MODEL 1
REMARK VINA RESULT:      -8.1      0.000      0.000
REMARK  Name = 
REMARK  6 active torsions:
REMARK  status: ('A' for Active; 'I' for Inactive)
REMARK    1  A    between atoms: C_1  and  C_2
REMARK    2  A    between atoms: C_8  and  C_9
REMARK    3  A    between atoms: N_11  and  C_12
REMARK    4  A    between atoms: C_12  and  C_13
REMARK    5  A    between atoms: N_20  and  S_21
REMARK    6  A    between atoms: S_21  and  C_22
REMARK                            x       y       z     vdW  Elec       q    Type
REMARK                         _______ _______ _______ _____ _____    ______ ____
ROOT
ATOM      1  C   UNL     1       2.129   9.753  17.945  0.00  0.00    +0.000 C 
ENDROOT
BRANCH   1   2
ATOM      2  C   UNL     1       2.422   8.333  18.324  0.00  0.00    +0.000 A 
ATOM      3  C   UNL     1       3.222   7.410  17.607  0.00  0.00    +0.000 A 
ATOM      4  C   UNL     1       3.220   6.263  18.368  0.00  0.00    +0.000 A 
ATOM      5  N   UNL     1       2.448   6.543  19.455  0.00  0.00    +0.000 N 
ATOM      6  N   UNL     1       1.928   7.788  19.446  0.00  0.00    +0.000 NA
ATOM      7  C   UNL     1       2.089   5.603  20.492  0.00  0.00    +0.000 C 
ATOM      8  C   UNL     1       2.800   4.259  20.353  0.00  0.00    +0.000 C 
ATOM      9  N   UNL     1       3.152   3.934  18.959  0.00  0.00    +0.000 NA
ATOM     10  C   UNL     1       3.864   4.945  18.175  0.00  0.00    +0.000 C 
BRANCH   9  11
ATOM     11  S   UNL     1       2.655   2.507  18.244  0.00  0.00    +0.000 S 
ATOM     12  C   UNL     1       1.197   2.153  19.201  0.00  0.00    +0.000 C 
ATOM     13  O   UNL     1       2.253   2.772  16.883  0.00  0.00    +0.000 OA
ATOM     14  O   UNL     1       3.638   1.491  18.557  0.00  0.00    +0.000 OA
ENDBRANCH   9  11
ENDBRANCH   1   2
BRANCH   1  17
ATOM     15  C   UNL     1      -0.087  10.597  18.634  0.00  0.00    +0.000 C 
ATOM     16  O   UNL     1       0.366  11.097  19.662  0.00  0.00    +0.000 OA
ATOM     17  N   UNL     1       0.704   9.926  17.732  0.00  0.00    +0.000 N 
ATOM     18  H   UNL     1       0.377   9.779  16.789  0.00  0.00    +0.000 HD
BRANCH  15  26
ATOM     19  C   UNL     1      -2.072  12.517  20.132  0.00  0.00    +0.000 C 
ATOM     20  C   UNL     1      -2.441  11.633  18.974  0.00  0.00    +0.000 A 
ATOM     21  C   UNL     1      -3.760  11.736  18.485  0.00  0.00    +0.000 A 
ATOM     22  C   UNL     1      -4.182  10.986  17.392  0.00  0.00    +0.000 A 
ATOM     23  F   UNL     1      -5.437  11.120  16.943  0.00  0.00    +0.000 F 
ATOM     24  C   UNL     1      -3.317  10.114  16.758  0.00  0.00    +0.000 A 
ATOM     25  C   UNL     1      -2.002  10.004  17.215  0.00  0.00    +0.000 A 
ATOM     26  C   UNL     1      -1.545  10.753  18.321  0.00  0.00    +0.000 A 
ENDBRANCH  15  26
ENDBRANCH   1  17
TORSDOF 4
ENDMDL
MODEL 2
REMARK VINA RESULT:      -7.9      1.481      1.646
REMARK  Name = 
REMARK  6 active torsions:
REMARK  status: ('A' for Active; 'I' for Inactive)
REMARK    1  A    between atoms: C_1  and  C_2
REMARK    2  A    between atoms: C_8  and  C_9
REMARK    3  A    between atoms: N_11  and  C_12
REMARK    4  A    between atoms: C_12  and  C_13
REMARK    5  A    between atoms: N_20  and  S_21
REMARK    6  A    between atoms: S_21  and  C_22
REMARK                            x       y       z     vdW  Elec       q    Type
REMARK                         _______ _______ _______ _____ _____    ______ ____
ROOT
ATOM      1  C   UNL     1       0.696   9.245  21.086  0.00  0.00    +0.000 C 
ENDROOT
BRANCH   1   2
ATOM      2  C   UNL     1       1.384   7.989  20.646  0.00  0.00    +0.000 A 
ATOM      3  C   UNL     1       2.294   7.851  19.571  0.00  0.00    +0.000 A 
ATOM      4  C   UNL     1       2.678   6.529  19.589  0.00  0.00    +0.000 A 
ATOM      5  N   UNL     1       2.004   5.964  20.629  0.00  0.00    +0.000 N 
ATOM      6  N   UNL     1       1.188   6.821  21.278  0.00  0.00    +0.000 NA
ATOM      7  C   UNL     1       2.028   4.563  20.980  0.00  0.00    +0.000 C 
ATOM      8  C   UNL     1       3.032   3.757  20.159  0.00  0.00    +0.000 C 
ATOM      9  N   UNL     1       3.277   4.330  18.823  0.00  0.00    +0.000 NA
ATOM     10  C   UNL     1       3.605   5.755  18.736  0.00  0.00    +0.000 C 
BRANCH   9  11
ATOM     11  S   UNL     1       3.071   3.424  17.435  0.00  0.00    +0.000 S 
ATOM     12  C   UNL     1       3.361   1.786  18.068  0.00  0.00    +0.000 C 
ATOM     13  O   UNL     1       1.694   3.510  17.011  0.00  0.00    +0.000 OA
ATOM     14  O   UNL     1       4.161   3.741  16.535  0.00  0.00    +0.000 OA
ENDBRANCH   9  11
ENDBRANCH   1   2
BRANCH   1  17
ATOM     15  C   UNL     1      -0.409  10.374  19.188  0.00  0.00    +0.000 C 
ATOM     16  O   UNL     1       0.617  10.980  18.884  0.00  0.00    +0.000 OA
ATOM     17  N   UNL     1      -0.461   9.499  20.246  0.00  0.00    +0.000 N 
ATOM     18  H   UNL     1      -1.204   8.819  20.300  0.00  0.00    +0.000 HD
BRANCH  15  26
ATOM     19  C   UNL     1      -2.752  12.368  19.825  0.00  0.00    +0.000 C 
ATOM     20  C   UNL     1      -2.692  11.469  18.622  0.00  0.00    +0.000 A 
ATOM     21  C   UNL     1      -3.734  11.591  17.679  0.00  0.00    +0.000 A 
ATOM     22  C   UNL     1      -3.744  10.828  16.516  0.00  0.00    +0.000 A 
ATOM     23  F   UNL     1      -4.740  10.981  15.633  0.00  0.00    +0.000 F 
ATOM     24  C   UNL     1      -2.730   9.925  16.255  0.00  0.00    +0.000 A 
ATOM     25  C   UNL     1      -1.681   9.794  17.168  0.00  0.00    +0.000 A 
ATOM     26  C   UNL     1      -1.643  10.555  18.356  0.00  0.00    +0.000 A 
ENDBRANCH  15  26
ENDBRANCH   1  17
TORSDOF 4
ENDMDL
MODEL 3
REMARK VINA RESULT:      -7.9      2.520      3.025
REMARK  Name = 
REMARK  6 active torsions:
REMARK  status: ('A' for Active; 'I' for Inactive)
REMARK    1  A    between atoms: C_1  and  C_2
REMARK    2  A    between atoms: C_8  and  C_9
REMARK    3  A    between atoms: N_11  and  C_12
REMARK    4  A    between atoms: C_12  and  C_13
REMARK    5  A    between atoms: N_20  and  S_21
REMARK    6  A    between atoms: S_21  and  C_22
REMARK                            x       y       z     vdW  Elec       q    Type
REMARK                         _______ _______ _______ _____ _____    ______ ____
ROOT
ATOM      1  C   UNL     1       1.564   9.925  18.613  0.00  0.00    +0.000 C 
ENDROOT
BRANCH   1   2
ATOM      2  C   UNL     1       1.983   8.497  18.794  0.00  0.00    +0.000 A 
ATOM      3  C   UNL     1       2.713   7.703  17.878  0.00  0.00    +0.000 A 
ATOM      4  C   UNL     1       2.883   6.490  18.505  0.00  0.00    +0.000 A 
ATOM      5  N   UNL     1       2.269   6.611  19.715  0.00  0.00    +0.000 N 
ATOM      6  N   UNL     1       1.689   7.814  19.911  0.00  0.00    +0.000 NA
ATOM      7  C   UNL     1       2.116   5.554  20.687  0.00  0.00    +0.000 C 
ATOM      8  C   UNL     1       2.866   4.280  20.307  0.00  0.00    +0.000 C 
ATOM      9  N   UNL     1       3.024   4.115  18.850  0.00  0.00    +0.000 NA
ATOM     10  C   UNL     1       3.559   5.243  18.085  0.00  0.00    +0.000 C 
BRANCH   9  11
ATOM     11  S   UNL     1       2.501   2.735  18.067  0.00  0.00    +0.000 S 
ATOM     12  C   UNL     1       0.941   2.468  18.882  0.00  0.00    +0.000 C 
ATOM     13  O   UNL     1       2.242   3.044  16.681  0.00  0.00    +0.000 OA
ATOM     14  O   UNL     1       3.382   1.650  18.448  0.00  0.00    +0.000 OA
ENDBRANCH   9  11
ENDBRANCH   1   2
BRANCH   1  17
ATOM     15  C   UNL     1       0.584  11.315  20.403  0.00  0.00    +0.000 C 
ATOM     16  O   UNL     1       1.563  12.058  20.434  0.00  0.00    +0.000 OA
ATOM     17  N   UNL     1       0.494  10.250  19.540  0.00  0.00    +0.000 N 
ATOM     18  H   UNL     1      -0.406   9.841  19.337  0.00  0.00    +0.000 HD
BRANCH  15  26
ATOM     19  C   UNL     1      -0.085   9.747  23.042  0.00  0.00    +0.000 C 
ATOM     20  C   UNL     1      -0.875  10.911  22.511  0.00  0.00    +0.000 A 
ATOM     21  C   UNL     1      -1.949  11.370  23.301  0.00  0.00    +0.000 A 
ATOM     22  C   UNL     1      -2.713  12.465  22.909  0.00  0.00    +0.000 A 
ATOM     23  F   UNL     1      -3.715  12.885  23.692  0.00  0.00    +0.000 F 
ATOM     24  C   UNL     1      -2.439  13.130  21.729  0.00  0.00    +0.000 A 
ATOM     25  C   UNL     1      -1.372  12.702  20.935  0.00  0.00    +0.000 A 
ATOM     26  C   UNL     1      -0.579  11.595  21.307  0.00  0.00    +0.000 A 
ENDBRANCH  15  26
ENDBRANCH   1  17
TORSDOF 4
ENDMDL
MODEL 4
REMARK VINA RESULT:      -7.8      1.266      1.973
REMARK  Name = 
REMARK  6 active torsions:
REMARK  status: ('A' for Active; 'I' for Inactive)
REMARK    1  A    between atoms: C_1  and  C_2
REMARK    2  A    between atoms: C_8  and  C_9
REMARK    3  A    between atoms: N_11  and  C_12
REMARK    4  A    between atoms: C_12  and  C_13
REMARK    5  A    between atoms: N_20  and  S_21
REMARK    6  A    between atoms: S_21  and  C_22
REMARK                            x       y       z     vdW  Elec       q    Type
REMARK                         _______ _______ _______ _____ _____    ______ ____
ROOT
ATOM      1  C   UNL     1       0.966  10.706  18.526  0.00  0.00    +0.000 C 
ENDROOT
BRANCH   1   2
ATOM      2  C   UNL     1       1.478   9.310  18.720  0.00  0.00    +0.000 A 
ATOM      3  C   UNL     1       2.179   8.523  17.775  0.00  0.00    +0.000 A 
ATOM      4  C   UNL     1       2.466   7.345  18.427  0.00  0.00    +0.000 A 
ATOM      5  N   UNL     1       1.941   7.478  19.676  0.00  0.00    +0.000 N 
ATOM      6  N   UNL     1       1.311   8.654  19.879  0.00  0.00    +0.000 NA
ATOM      7  C   UNL     1       1.925   6.451  20.692  0.00  0.00    +0.000 C 
ATOM      8  C   UNL     1       2.714   5.206  20.295  0.00  0.00    +0.000 C 
ATOM      9  N   UNL     1       2.767   4.996  18.837  0.00  0.00    +0.000 NA
ATOM     10  C   UNL     1       3.176   6.122  17.995  0.00  0.00    +0.000 C 
BRANCH   9  11
ATOM     11  S   UNL     1       2.263   3.562  18.144  0.00  0.00    +0.000 S 
ATOM     12  C   UNL     1       1.519   2.762  19.549  0.00  0.00    +0.000 C 
ATOM     13  O   UNL     1       1.228   3.839  17.177  0.00  0.00    +0.000 OA
ATOM     14  O   UNL     1       3.446   2.804  17.788  0.00  0.00    +0.000 OA
ENDBRANCH   9  11
ENDBRANCH   1   2
BRANCH   1  17
ATOM     15  C   UNL     1      -1.197  11.841  18.172  0.00  0.00    +0.000 C 
ATOM     16  O   UNL     1      -0.667  12.950  18.123  0.00  0.00    +0.000 OA
ATOM     17  N   UNL     1      -0.476  10.687  18.359  0.00  0.00    +0.000 N 
ATOM     18  H   UNL     1      -0.881   9.796  18.116  0.00  0.00    +0.000 HD
BRANCH  15  26
ATOM     19  C   UNL     1      -2.618  10.716  15.605  0.00  0.00    +0.000 C 
ATOM     20  C   UNL     1      -3.328  11.199  16.838  0.00  0.00    +0.000 A 
ATOM     21  C   UNL     1      -4.733  11.064  16.862  0.00  0.00    +0.000 A 
ATOM     22  C   UNL     1      -5.472  11.449  17.975  0.00  0.00    +0.000 A 
ATOM     23  F   UNL     1      -6.802  11.291  17.971  0.00  0.00    +0.000 F 
ATOM     24  C   UNL     1      -4.848  11.978  19.090  0.00  0.00    +0.000 A 
ATOM     25  C   UNL     1      -3.458  12.110  19.095  0.00  0.00    +0.000 A 
ATOM     26  C   UNL     1      -2.680  11.728  17.980  0.00  0.00    +0.000 A 
ENDBRANCH  15  26
ENDBRANCH   1  17
TORSDOF 4
ENDMDL
MODEL 5
REMARK VINA RESULT:      -7.8      1.293      1.728
REMARK  Name = 
REMARK  6 active torsions:
REMARK  status: ('A' for Active; 'I' for Inactive)
REMARK    1  A    between atoms: C_1  and  C_2
REMARK    2  A    between atoms: C_8  and  C_9
REMARK    3  A    between atoms: N_11  and  C_12
REMARK    4  A    between atoms: C_12  and  C_13
REMARK    5  A    between atoms: N_20  and  S_21
REMARK    6  A    between atoms: S_21  and  C_22
REMARK                            x       y       z     vdW  Elec       q    Type
REMARK                         _______ _______ _______ _____ _____    ______ ____
ROOT
ATOM      1  C   UNL     1       2.376   9.691  18.061  0.00  0.00    +0.000 C 
ENDROOT
BRANCH   1   2
ATOM      2  C   UNL     1       2.686   8.229  17.948  0.00  0.00    +0.000 A 
ATOM      3  C   UNL     1       1.844   7.152  18.317  0.00  0.00    +0.000 A 
ATOM      4  C   UNL     1       2.549   6.015  17.991  0.00  0.00    +0.000 A 
ATOM      5  N   UNL     1       3.729   6.450  17.469  0.00  0.00    +0.000 N 
ATOM      6  N   UNL     1       3.854   7.794  17.452  0.00  0.00    +0.000 NA
ATOM      7  C   UNL     1       4.828   5.604  17.065  0.00  0.00    +0.000 C 
ATOM      8  C   UNL     1       4.491   4.116  17.123  0.00  0.00    +0.000 C 
ATOM      9  N   UNL     1       3.463   3.796  18.130  0.00  0.00    +0.000 NA
ATOM     10  C   UNL     1       2.225   4.578  18.122  0.00  0.00    +0.000 C 
BRANCH   9  11
ATOM     11  S   UNL     1       3.738   2.662  19.326  0.00  0.00    +0.000 S 
ATOM     12  C   UNL     1       2.732   3.320  20.638  0.00  0.00    +0.000 C 
ATOM     13  O   UNL     1       3.181   1.395  18.917  0.00  0.00    +0.000 OA
ATOM     14  O   UNL     1       5.122   2.782  19.737  0.00  0.00    +0.000 OA
ENDBRANCH   9  11
ENDBRANCH   1   2
BRANCH   1  17
ATOM     15  C   UNL     1       0.075  10.302  18.716  0.00  0.00    +0.000 C 
ATOM     16  O   UNL     1       0.398  10.468  19.891  0.00  0.00    +0.000 OA
ATOM     17  N   UNL     1       0.978   9.929  17.750  0.00  0.00    +0.000 N 
ATOM     18  H   UNL     1       0.760  10.074  16.775  0.00  0.00    +0.000 HD
BRANCH  15  26
ATOM     19  C   UNL     1      -1.856  12.407  20.026  0.00  0.00    +0.000 C 
ATOM     20  C   UNL     1      -2.213  11.516  18.869  0.00  0.00    +0.000 A 
ATOM     21  C   UNL     1      -3.487  11.698  18.290  0.00  0.00    +0.000 A 
ATOM     22  C   UNL     1      -3.891  10.946  17.192  0.00  0.00    +0.000 A 
ATOM     23  F   UNL     1      -5.100  11.157  16.656  0.00  0.00    +0.000 F 
ATOM     24  C   UNL     1      -3.053   9.995  16.640  0.00  0.00    +0.000 A 
ATOM     25  C   UNL     1      -1.783   9.805  17.188  0.00  0.00    +0.000 A 
ATOM     26  C   UNL     1      -1.344  10.553  18.302  0.00  0.00    +0.000 A 
ENDBRANCH  15  26
ENDBRANCH   1  17
TORSDOF 4
ENDMDL
MODEL 6
REMARK VINA RESULT:      -7.8      4.613      8.844
REMARK  Name = 
REMARK  6 active torsions:
REMARK  status: ('A' for Active; 'I' for Inactive)
REMARK    1  A    between atoms: C_1  and  C_2
REMARK    2  A    between atoms: C_8  and  C_9
REMARK    3  A    between atoms: N_11  and  C_12
REMARK    4  A    between atoms: C_12  and  C_13
REMARK    5  A    between atoms: N_20  and  S_21
REMARK    6  A    between atoms: S_21  and  C_22
REMARK                            x       y       z     vdW  Elec       q    Type
REMARK                         _______ _______ _______ _____ _____    ______ ____
ROOT
ATOM      1  C   UNL     1       2.781   5.864  19.697  0.00  0.00    +0.000 C 
ENDROOT
BRANCH   1   2
ATOM      2  C   UNL     1       2.145   7.219  19.774  0.00  0.00    +0.000 A 
ATOM      3  C   UNL     1       2.125   8.207  18.761  0.00  0.00    +0.000 A 
ATOM      4  C   UNL     1       1.396   9.249  19.286  0.00  0.00    +0.000 A 
ATOM      5  N   UNL     1       1.034   8.852  20.537  0.00  0.00    +0.000 N 
ATOM      6  N   UNL     1       1.495   7.629  20.874  0.00  0.00    +0.000 NA
ATOM      7  C   UNL     1       0.325   9.662  21.501  0.00  0.00    +0.000 C 
ATOM      8  C   UNL     1      -0.145  10.997  20.930  0.00  0.00    +0.000 C 
ATOM      9  N   UNL     1       0.708  11.487  19.831  0.00  0.00    +0.000 NA
ATOM     10  C   UNL     1       1.011  10.566  18.734  0.00  0.00    +0.000 C 
BRANCH   9  11
ATOM     11  S   UNL     1       1.411  13.002  19.882  0.00  0.00    +0.000 S 
ATOM     12  C   UNL     1       2.475  12.917  18.458  0.00  0.00    +0.000 C 
ATOM     13  O   UNL     1       0.401  14.003  19.636  0.00  0.00    +0.000 OA
ATOM     14  O   UNL     1       2.258  13.056  21.056  0.00  0.00    +0.000 OA
ENDBRANCH   9  11
ENDBRANCH   1   2
BRANCH   1  17
ATOM     15  C   UNL     1       4.812   5.375  18.382  0.00  0.00    +0.000 C 
ATOM     16  O   UNL     1       5.480   5.168  19.393  0.00  0.00    +0.000 OA
ATOM     17  N   UNL     1       3.482   5.714  18.435  0.00  0.00    +0.000 N 
ATOM     18  H   UNL     1       2.901   5.602  17.618  0.00  0.00    +0.000 HD
BRANCH  15  26
ATOM     19  C   UNL     1       7.389   6.882  17.401  0.00  0.00    +0.000 C 
ATOM     20  C   UNL     1       6.625   5.871  16.592  0.00  0.00    +0.000 A 
ATOM     21  C   UNL     1       7.154   5.528  15.331  0.00  0.00    +0.000 A 
ATOM     22  C   UNL     1       6.537   4.574  14.528  0.00  0.00    +0.000 A 
ATOM     23  F   UNL     1       7.076   4.260  13.343  0.00  0.00    +0.000 F 
ATOM     24  C   UNL     1       5.383   3.939  14.946  0.00  0.00    +0.000 A 
ATOM     25  C   UNL     1       4.846   4.253  16.197  0.00  0.00    +0.000 A 
ATOM     26  C   UNL     1       5.450   5.216  17.034  0.00  0.00    +0.000 A 
ENDBRANCH  15  26
ENDBRANCH   1  17
TORSDOF 4
ENDMDL
MODEL 7
REMARK VINA RESULT:      -7.7      4.479      8.983
REMARK  Name = 
REMARK  6 active torsions:
REMARK  status: ('A' for Active; 'I' for Inactive)
REMARK    1  A    between atoms: C_1  and  C_2
REMARK    2  A    between atoms: C_8  and  C_9
REMARK    3  A    between atoms: N_11  and  C_12
REMARK    4  A    between atoms: C_12  and  C_13
REMARK    5  A    between atoms: N_20  and  S_21
REMARK    6  A    between atoms: S_21  and  C_22
REMARK                            x       y       z     vdW  Elec       q    Type
REMARK                         _______ _______ _______ _____ _____    ______ ____
ROOT
ATOM      1  C   UNL     1       2.937   5.781  19.695  0.00  0.00    +0.000 C 
ENDROOT
BRANCH   1   2
ATOM      2  C   UNL     1       2.214   7.090  19.798  0.00  0.00    +0.000 A 
ATOM      3  C   UNL     1       2.175   8.118  18.826  0.00  0.00    +0.000 A 
ATOM      4  C   UNL     1       1.360   9.090  19.360  0.00  0.00    +0.000 A 
ATOM      5  N   UNL     1       0.969   8.617  20.576  0.00  0.00    +0.000 N 
ATOM      6  N   UNL     1       1.492   7.411  20.883  0.00  0.00    +0.000 NA
ATOM      7  C   UNL     1       0.169   9.338  21.538  0.00  0.00    +0.000 C 
ATOM      8  C   UNL     1      -0.359  10.666  21.001  0.00  0.00    +0.000 C 
ATOM      9  N   UNL     1       0.507  11.255  19.964  0.00  0.00    +0.000 NA
ATOM     10  C   UNL     1       0.917  10.404  18.845  0.00  0.00    +0.000 C 
BRANCH   9  11
ATOM     11  S   UNL     1       1.110  12.807  20.110  0.00  0.00    +0.000 S 
ATOM     12  C   UNL     1      -0.282  13.755  19.533  0.00  0.00    +0.000 C 
ATOM     13  O   UNL     1       1.318  13.107  21.506  0.00  0.00    +0.000 OA
ATOM     14  O   UNL     1       2.174  12.960  19.138  0.00  0.00    +0.000 OA
ENDBRANCH   9  11
ENDBRANCH   1   2
BRANCH   1  17
ATOM     15  C   UNL     1       4.528   4.673  18.167  0.00  0.00    +0.000 C 
ATOM     16  O   UNL     1       4.478   3.618  18.795  0.00  0.00    +0.000 OA
ATOM     17  N   UNL     1       3.803   5.782  18.530  0.00  0.00    +0.000 N 
ATOM     18  H   UNL     1       3.641   6.520  17.860  0.00  0.00    +0.000 HD
BRANCH  15  26
ATOM     19  C   UNL     1       7.586   5.392  18.107  0.00  0.00    +0.000 C 
ATOM     20  C   UNL     1       6.760   5.052  16.898  0.00  0.00    +0.000 A 
ATOM     21  C   UNL     1       7.434   4.982  15.661  0.00  0.00    +0.000 A 
ATOM     22  C   UNL     1       6.760   4.637  14.494  0.00  0.00    +0.000 A 
ATOM     23  F   UNL     1       7.434   4.563  13.339  0.00  0.00    +0.000 F 
ATOM     24  C   UNL     1       5.406   4.357  14.517  0.00  0.00    +0.000 A 
ATOM     25  C   UNL     1       4.719   4.407  15.732  0.00  0.00    +0.000 A 
ATOM     26  C   UNL     1       5.376   4.754  16.933  0.00  0.00    +0.000 A 
ENDBRANCH  15  26
ENDBRANCH   1  17
TORSDOF 4
ENDMDL
MODEL 8
REMARK VINA RESULT:      -7.6      1.600      2.058
REMARK  Name = 
REMARK  6 active torsions:
REMARK  status: ('A' for Active; 'I' for Inactive)
REMARK    1  A    between atoms: C_1  and  C_2
REMARK    2  A    between atoms: C_8  and  C_9
REMARK    3  A    between atoms: N_11  and  C_12
REMARK    4  A    between atoms: C_12  and  C_13
REMARK    5  A    between atoms: N_20  and  S_21
REMARK    6  A    between atoms: S_21  and  C_22
REMARK                            x       y       z     vdW  Elec       q    Type
REMARK                         _______ _______ _______ _____ _____    ______ ____
ROOT
ATOM      1  C   UNL     1       1.101   9.261  20.918  0.00  0.00    +0.000 C 
ENDROOT
BRANCH   1   2
ATOM      2  C   UNL     1       1.525   7.930  20.373  0.00  0.00    +0.000 A 
ATOM      3  C   UNL     1       1.268   6.659  20.940  0.00  0.00    +0.000 A 
ATOM      4  C   UNL     1       1.820   5.753  20.062  0.00  0.00    +0.000 A 
ATOM      5  N   UNL     1       2.360   6.497  19.057  0.00  0.00    +0.000 N 
ATOM      6  N   UNL     1       2.219   7.828  19.229  0.00  0.00    +0.000 NA
ATOM      7  C   UNL     1       3.125   5.976  17.947  0.00  0.00    +0.000 C 
ATOM      8  C   UNL     1       3.148   4.450  17.901  0.00  0.00    +0.000 C 
ATOM      9  N   UNL     1       2.997   3.830  19.229  0.00  0.00    +0.000 NA
ATOM     10  C   UNL     1       1.888   4.276  20.075  0.00  0.00    +0.000 C 
BRANCH   9  11
ATOM     11  S   UNL     1       4.119   2.739  19.814  0.00  0.00    +0.000 S 
ATOM     12  C   UNL     1       3.798   1.342  18.758  0.00  0.00    +0.000 C 
ATOM     13  O   UNL     1       5.448   3.226  19.532  0.00  0.00    +0.000 OA
ATOM     14  O   UNL     1       3.719   2.370  21.157  0.00  0.00    +0.000 OA
ENDBRANCH   9  11
ENDBRANCH   1   2
BRANCH   1  17
ATOM     15  C   UNL     1      -0.319  10.450  19.286  0.00  0.00    +0.000 C 
ATOM     16  O   UNL     1       0.656  10.912  18.696  0.00  0.00    +0.000 OA
ATOM     17  N   UNL     1      -0.196   9.627  20.379  0.00  0.00    +0.000 N 
ATOM     18  H   UNL     1      -0.972   9.048  20.663  0.00  0.00    +0.000 HD
BRANCH  15  26
ATOM     19  C   UNL     1      -2.179  12.749  20.350  0.00  0.00    +0.000 C 
ATOM     20  C   UNL     1      -2.532  11.805  19.235  0.00  0.00    +0.000 A 
ATOM     21  C   UNL     1      -3.761  12.022  18.577  0.00  0.00    +0.000 A 
ATOM     22  C   UNL     1      -4.155  11.223  17.509  0.00  0.00    +0.000 A 
ATOM     23  F   UNL     1      -5.320  11.468  16.896  0.00  0.00    +0.000 F 
ATOM     24  C   UNL     1      -3.352  10.189  17.066  0.00  0.00    +0.000 A 
ATOM     25  C   UNL     1      -2.125   9.961  17.694  0.00  0.00    +0.000 A 
ATOM     26  C   UNL     1      -1.697  10.756  18.780  0.00  0.00    +0.000 A 
ENDBRANCH  15  26
ENDBRANCH   1  17
TORSDOF 4
ENDMDL
MODEL 9
REMARK VINA RESULT:      -7.6      0.942      1.060
REMARK  Name = 
REMARK  6 active torsions:
REMARK  status: ('A' for Active; 'I' for Inactive)
REMARK    1  A    between atoms: C_1  and  C_2
REMARK    2  A    between atoms: C_8  and  C_9
REMARK    3  A    between atoms: N_11  and  C_12
REMARK    4  A    between atoms: C_12  and  C_13
REMARK    5  A    between atoms: N_20  and  S_21
REMARK    6  A    between atoms: S_21  and  C_22
REMARK                            x       y       z     vdW  Elec       q    Type
REMARK                         _______ _______ _______ _____ _____    ______ ____
ROOT
ATOM      1  C   UNL     1       1.575   9.924  19.037  0.00  0.00    +0.000 C 
ENDROOT
BRANCH   1   2
ATOM      2  C   UNL     1       1.989   8.486  19.113  0.00  0.00    +0.000 A 
ATOM      3  C   UNL     1       2.687   7.749  18.127  0.00  0.00    +0.000 A 
ATOM      4  C   UNL     1       2.867   6.497  18.669  0.00  0.00    +0.000 A 
ATOM      5  N   UNL     1       2.289   6.543  19.902  0.00  0.00    +0.000 N 
ATOM      6  N   UNL     1       1.723   7.734  20.192  0.00  0.00    +0.000 NA
ATOM      7  C   UNL     1       2.158   5.426  20.808  0.00  0.00    +0.000 C 
ATOM      8  C   UNL     1       2.888   4.175  20.325  0.00  0.00    +0.000 C 
ATOM      9  N   UNL     1       3.002   4.105  18.856  0.00  0.00    +0.000 NA
ATOM     10  C   UNL     1       3.522   5.277  18.150  0.00  0.00    +0.000 C 
BRANCH   9  11
ATOM     11  S   UNL     1       2.446   2.781  18.002  0.00  0.00    +0.000 S 
ATOM     12  C   UNL     1       0.896   2.486  18.826  0.00  0.00    +0.000 C 
ATOM     13  O   UNL     1       2.169   3.175  16.641  0.00  0.00    +0.000 OA
ATOM     14  O   UNL     1       3.318   1.663  18.302  0.00  0.00    +0.000 OA
ENDBRANCH   9  11
ENDBRANCH   1   2
BRANCH   1  17
ATOM     15  C   UNL     1      -0.848  10.260  18.700  0.00  0.00    +0.000 C 
ATOM     16  O   UNL     1      -1.057  10.346  19.909  0.00  0.00    +0.000 OA
ATOM     17  N   UNL     1       0.409  10.061  18.182  0.00  0.00    +0.000 N 
ATOM     18  H   UNL     1       0.595  10.275  17.214  0.00  0.00    +0.000 HD
BRANCH  15  26
ATOM     19  C   UNL     1      -3.342  12.119  19.141  0.00  0.00    +0.000 C 
ATOM     20  C   UNL     1      -3.107  11.272  17.921  0.00  0.00    +0.000 A 
ATOM     21  C   UNL     1      -4.045  11.383  16.873  0.00  0.00    +0.000 A 
ATOM     22  C   UNL     1      -3.889  10.667  15.691  0.00  0.00    +0.000 A 
ATOM     23  F   UNL     1      -4.789  10.809  14.709  0.00  0.00    +0.000 F 
ATOM     24  C   UNL     1      -2.810   9.821  15.514  0.00  0.00    +0.000 A 
ATOM     25  C   UNL     1      -1.861   9.703  16.533  0.00  0.00    +0.000 A 
ATOM     26  C   UNL     1      -1.992  10.418  17.743  0.00  0.00    +0.000 A 
ENDBRANCH  15  26
ENDBRANCH   1  17
TORSDOF 4
ENDMDL
