MODEL 1
REMARK VINA RESULT:      -9.6      0.000      0.000
REMARK  Name = 
REMARK  9 active torsions:
REMARK  status: ('A' for Active; 'I' for Inactive)
REMARK    1  A    between atoms: C_1  and  C_2
REMARK    2  A    between atoms: C_4  and  C_5
REMARK    3  A    between atoms: C_6  and  C_7
REMARK    4  A    between atoms: C_7  and  C_9
REMARK    5  A    between atoms: C_10  and  C_11
REMARK    6  A    between atoms: C_14  and  N_15
REMARK    7  A    between atoms: C_19  and  C_20
REMARK    8  A    between atoms: N_21  and  C_22
REMARK    9  A    between atoms: C_34  and  C_35
REMARK                            x       y       z     vdW  Elec       q    Type
REMARK                         _______ _______ _______ _____ _____    ______ ____
ROOT
ATOM      1  C   UNL     1       2.362   7.504  19.144  0.00  0.00    +0.000 A 
ATOM      2  C   UNL     1       2.014   8.568  18.275  0.00  0.00    +0.000 A 
ATOM      3  C   UNL     1       1.255   9.739  18.711  0.00  0.00    +0.000 A 
ATOM      4  C   UNL     1       0.877   9.860  20.039  0.00  0.00    +0.000 A 
ATOM      5  C   UNL     1       1.069   8.679  20.833  0.00  0.00    +0.000 A 
ATOM      6  C   UNL     1       1.813   7.556  20.419  0.00  0.00    +0.000 A 
ENDROOT
BRANCH   4   7
ATOM      7  N   UNL     1       0.511  11.068  20.802  0.00  0.00    +0.000 N 
ATOM      8  N   UNL     1      -0.125  11.450  22.047  0.00  0.00    +0.000 NA
ATOM      9  C   UNL     1      -0.034  12.849  21.975  0.00  0.00    +0.000 A 
ATOM     10  C   UNL     1       0.849  13.103  20.874  0.00  0.00    +0.000 A 
ATOM     11  C   UNL     1       0.300  12.187  20.021  0.00  0.00    +0.000 A 
ATOM     12  C   UNL     1      -0.897  12.131  19.123  0.00  0.00    +0.000 C 
ATOM     13  N   UNL     1       1.412  14.353  20.584  0.00  0.00    +0.000 N 
ATOM     14  C   UNL     1       2.434  14.823  21.604  0.00  0.00    +0.000 C 
ATOM     15  S   UNL     1       0.166  15.501  20.403  0.00  0.00    +0.000 S 
ATOM     16  O   UNL     1       0.780  16.798  20.208  0.00  0.00    +0.000 OA
ATOM     17  O   UNL     1      -0.870  15.049  19.504  0.00  0.00    +0.000 OA
ATOM     18  C   UNL     1      -0.453  15.389  22.055  0.00  0.00    +0.000 A 
ATOM     19  C   UNL     1      -0.647  16.638  22.675  0.00  0.00    +0.000 A 
ATOM     20  C   UNL     1      -1.305  16.674  23.874  0.00  0.00    +0.000 A 
ATOM     21  C   UNL     1      -1.762  15.462  24.403  0.00  0.00    +0.000 A 
ATOM     22  C   UNL     1      -1.424  14.182  23.834  0.00  0.00    +0.000 A 
ATOM     23  C   UNL     1      -0.669  14.096  22.660  0.00  0.00    +0.000 A 
ENDBRANCH   4   7
BRANCH   1  25
ATOM     24  C   UNL     1       3.849   5.418  19.633  0.00  0.00    +0.000 C 
ATOM     25  C   UNL     1       3.254   6.303  18.796  0.00  0.00    +0.000 C 
BRANCH  24  26
ATOM     26  C   UNL     1       4.790   4.301  19.192  0.00  0.00    +0.000 C 
ATOM     27  O   UNL     1       5.012   3.362  19.951  0.00  0.00    +0.000 OA
BRANCH  26  33
ATOM     28  C   UNL     1       7.063   4.856  13.761  0.00  0.00    +0.000 C 
ATOM     29  C   UNL     1       6.511   4.669  15.148  0.00  0.00    +0.000 A 
ATOM     30  C   UNL     1       7.214   5.086  16.270  0.00  0.00    +0.000 A 
ATOM     31  C   UNL     1       6.688   4.960  17.581  0.00  0.00    +0.000 A 
ATOM     32  C   UNL     1       7.551   5.540  18.672  0.00  0.00    +0.000 C 
ATOM     33  C   UNL     1       5.412   4.358  17.804  0.00  0.00    +0.000 A 
ATOM     34  C   UNL     1       4.720   3.902  16.641  0.00  0.00    +0.000 A 
ATOM     35  C   UNL     1       3.356   3.244  16.648  0.00  0.00    +0.000 C 
ATOM     36  C   UNL     1       5.268   4.080  15.353  0.00  0.00    +0.000 A 
ENDBRANCH  26  33
ENDBRANCH  24  26
ENDBRANCH   1  25
TORSDOF 4
ENDMDL
MODEL 2
REMARK VINA RESULT:      -9.4      0.225      1.476
REMARK  Name = 
REMARK  9 active torsions:
REMARK  status: ('A' for Active; 'I' for Inactive)
REMARK    1  A    between atoms: C_1  and  C_2
REMARK    2  A    between atoms: C_4  and  C_5
REMARK    3  A    between atoms: C_6  and  C_7
REMARK    4  A    between atoms: C_7  and  C_9
REMARK    5  A    between atoms: C_10  and  C_11
REMARK    6  A    between atoms: C_14  and  N_15
REMARK    7  A    between atoms: C_19  and  C_20
REMARK    8  A    between atoms: N_21  and  C_22
REMARK    9  A    between atoms: C_34  and  C_35
REMARK                            x       y       z     vdW  Elec       q    Type
REMARK                         _______ _______ _______ _____ _____    ______ ____
ROOT
ATOM      1  C   UNL     1       2.311   7.644  19.069  0.00  0.00    +0.000 A 
ATOM      2  C   UNL     1       1.902   8.697  18.215  0.00  0.00    +0.000 A 
ATOM      3  C   UNL     1       1.143   9.856  18.682  0.00  0.00    +0.000 A 
ATOM      4  C   UNL     1       0.826   9.975  20.026  0.00  0.00    +0.000 A 
ATOM      5  C   UNL     1       1.077   8.801  20.814  0.00  0.00    +0.000 A 
ATOM      6  C   UNL     1       1.822   7.690  20.369  0.00  0.00    +0.000 A 
ENDROOT
BRANCH   4   7
ATOM      7  N   UNL     1       0.473  11.179  20.801  0.00  0.00    +0.000 N 
ATOM      8  N   UNL     1      -0.154  11.555  22.053  0.00  0.00    +0.000 NA
ATOM      9  C   UNL     1      -0.052  12.954  21.992  0.00  0.00    +0.000 A 
ATOM     10  C   UNL     1       0.829  13.210  20.890  0.00  0.00    +0.000 A 
ATOM     11  C   UNL     1       0.268  12.307  20.031  0.00  0.00    +0.000 A 
ATOM     12  C   UNL     1      -0.934  12.268  19.139  0.00  0.00    +0.000 C 
ATOM     13  N   UNL     1       1.400  14.459  20.608  0.00  0.00    +0.000 N 
ATOM     14  C   UNL     1       2.431  14.911  21.627  0.00  0.00    +0.000 C 
ATOM     15  S   UNL     1       0.163  15.618  20.443  0.00  0.00    +0.000 S 
ATOM     16  O   UNL     1       0.787  16.911  20.256  0.00  0.00    +0.000 OA
ATOM     17  O   UNL     1      -0.881  15.183  19.545  0.00  0.00    +0.000 OA
ATOM     18  C   UNL     1      -0.450  15.496  22.097  0.00  0.00    +0.000 A 
ATOM     19  C   UNL     1      -0.630  16.742  22.729  0.00  0.00    +0.000 A 
ATOM     20  C   UNL     1      -1.282  16.772  23.932  0.00  0.00    +0.000 A 
ATOM     21  C   UNL     1      -1.747  15.560  24.452  0.00  0.00    +0.000 A 
ATOM     22  C   UNL     1      -1.422  14.282  23.869  0.00  0.00    +0.000 A 
ATOM     23  C   UNL     1      -0.673  14.200  22.692  0.00  0.00    +0.000 A 
ENDBRANCH   4   7
BRANCH   1  25
ATOM     24  C   UNL     1       3.904   5.623  19.494  0.00  0.00    +0.000 C 
ATOM     25  C   UNL     1       3.208   6.458  18.684  0.00  0.00    +0.000 C 
BRANCH  24  26
ATOM     26  C   UNL     1       4.839   4.519  19.008  0.00  0.00    +0.000 C 
ATOM     27  O   UNL     1       5.140   3.603  19.768  0.00  0.00    +0.000 OA
BRANCH  26  33
ATOM     28  C   UNL     1       6.999   4.351  13.505  0.00  0.00    +0.000 C 
ATOM     29  C   UNL     1       6.423   4.438  14.893  0.00  0.00    +0.000 A 
ATOM     30  C   UNL     1       5.167   3.931  15.190  0.00  0.00    +0.000 A 
ATOM     31  C   UNL     1       4.630   3.963  16.503  0.00  0.00    +0.000 A 
ATOM     32  C   UNL     1       3.288   3.294  16.659  0.00  0.00    +0.000 C 
ATOM     33  C   UNL     1       5.356   4.560  17.578  0.00  0.00    +0.000 A 
ATOM     34  C   UNL     1       6.632   5.109  17.245  0.00  0.00    +0.000 A 
ATOM     35  C   UNL     1       7.568   5.780  18.229  0.00  0.00    +0.000 C 
ATOM     36  C   UNL     1       7.141   5.023  15.932  0.00  0.00    +0.000 A 
ENDBRANCH  26  33
ENDBRANCH  24  26
ENDBRANCH   1  25
TORSDOF 4
ENDMDL
MODEL 3
REMARK VINA RESULT:      -9.2      1.914      2.422
REMARK  Name = 
REMARK  9 active torsions:
REMARK  status: ('A' for Active; 'I' for Inactive)
REMARK    1  A    between atoms: C_1  and  C_2
REMARK    2  A    between atoms: C_4  and  C_5
REMARK    3  A    between atoms: C_6  and  C_7
REMARK    4  A    between atoms: C_7  and  C_9
REMARK    5  A    between atoms: C_10  and  C_11
REMARK    6  A    between atoms: C_14  and  N_15
REMARK    7  A    between atoms: C_19  and  C_20
REMARK    8  A    between atoms: N_21  and  C_22
REMARK    9  A    between atoms: C_34  and  C_35
REMARK                            x       y       z     vdW  Elec       q    Type
REMARK                         _______ _______ _______ _____ _____    ______ ____
ROOT
ATOM      1  C   UNL     1       2.393   7.590  19.065  0.00  0.00    +0.000 A 
ATOM      2  C   UNL     1       1.947   8.573  18.148  0.00  0.00    +0.000 A 
ATOM      3  C   UNL     1       1.108   9.705  18.535  0.00  0.00    +0.000 A 
ATOM      4  C   UNL     1       0.747   9.872  19.863  0.00  0.00    +0.000 A 
ATOM      5  C   UNL     1       1.043   8.756  20.716  0.00  0.00    +0.000 A 
ATOM      6  C   UNL     1       1.864   7.671  20.348  0.00  0.00    +0.000 A 
ENDROOT
BRANCH   4   7
ATOM      7  N   UNL     1       0.302  11.090  20.566  0.00  0.00    +0.000 N 
ATOM      8  N   UNL     1       0.828  12.347  21.060  0.00  0.00    +0.000 NA
ATOM      9  C   UNL     1      -0.332  12.927  21.600  0.00  0.00    +0.000 A 
ATOM     10  C   UNL     1      -1.406  12.098  21.136  0.00  0.00    +0.000 A 
ATOM     11  C   UNL     1      -0.796  10.901  21.383  0.00  0.00    +0.000 A 
ATOM     12  C   UNL     1      -0.566  10.034  22.582  0.00  0.00    +0.000 C 
ATOM     13  N   UNL     1      -2.764  12.434  21.236  0.00  0.00    +0.000 N 
ATOM     14  C   UNL     1      -3.180  13.593  20.348  0.00  0.00    +0.000 C 
ATOM     15  S   UNL     1      -3.144  12.753  22.865  0.00  0.00    +0.000 S 
ATOM     16  O   UNL     1      -4.522  13.197  22.922  0.00  0.00    +0.000 OA
ATOM     17  O   UNL     1      -2.684  11.710  23.752  0.00  0.00    +0.000 OA
ATOM     18  C   UNL     1      -2.072  14.147  23.054  0.00  0.00    +0.000 A 
ATOM     19  C   UNL     1      -2.690  15.263  23.650  0.00  0.00    +0.000 A 
ATOM     20  C   UNL     1      -1.905  16.320  24.021  0.00  0.00    +0.000 A 
ATOM     21  C   UNL     1      -0.527  16.218  23.801  0.00  0.00    +0.000 A 
ATOM     22  C   UNL     1       0.068  15.138  23.055  0.00  0.00    +0.000 A 
ATOM     23  C   UNL     1      -0.713  14.084  22.571  0.00  0.00    +0.000 A 
ENDBRANCH   4   7
BRANCH   1  25
ATOM     24  C   UNL     1       3.760   5.428  19.574  0.00  0.00    +0.000 C 
ATOM     25  C   UNL     1       3.367   6.442  18.764  0.00  0.00    +0.000 C 
BRANCH  24  26
ATOM     26  C   UNL     1       4.805   4.377  19.209  0.00  0.00    +0.000 C 
ATOM     27  O   UNL     1       5.111   3.518  20.031  0.00  0.00    +0.000 OA
BRANCH  26  33
ATOM     28  C   UNL     1       7.071   4.787  13.762  0.00  0.00    +0.000 C 
ATOM     29  C   UNL     1       6.520   4.637  15.155  0.00  0.00    +0.000 A 
ATOM     30  C   UNL     1       7.230   5.071  16.265  0.00  0.00    +0.000 A 
ATOM     31  C   UNL     1       6.705   4.980  17.580  0.00  0.00    +0.000 A 
ATOM     32  C   UNL     1       7.577   5.574  18.657  0.00  0.00    +0.000 C 
ATOM     33  C   UNL     1       5.424   4.397  17.819  0.00  0.00    +0.000 A 
ATOM     34  C   UNL     1       4.724   3.923  16.668  0.00  0.00    +0.000 A 
ATOM     35  C   UNL     1       3.353   3.279  16.692  0.00  0.00    +0.000 C 
ATOM     36  C   UNL     1       5.271   4.066  15.375  0.00  0.00    +0.000 A 
ENDBRANCH  26  33
ENDBRANCH  24  26
ENDBRANCH   1  25
TORSDOF 4
ENDMDL
MODEL 4
REMARK VINA RESULT:      -9.2      2.052      2.921
REMARK  Name = 
REMARK  9 active torsions:
REMARK  status: ('A' for Active; 'I' for Inactive)
REMARK    1  A    between atoms: C_1  and  C_2
REMARK    2  A    between atoms: C_4  and  C_5
REMARK    3  A    between atoms: C_6  and  C_7
REMARK    4  A    between atoms: C_7  and  C_9
REMARK    5  A    between atoms: C_10  and  C_11
REMARK    6  A    between atoms: C_14  and  N_15
REMARK    7  A    between atoms: C_19  and  C_20
REMARK    8  A    between atoms: N_21  and  C_22
REMARK    9  A    between atoms: C_34  and  C_35
REMARK                            x       y       z     vdW  Elec       q    Type
REMARK                         _______ _______ _______ _____ _____    ______ ____
ROOT
ATOM      1  C   UNL     1       2.302   7.811  19.053  0.00  0.00    +0.000 A 
ATOM      2  C   UNL     1       1.754   8.776  18.173  0.00  0.00    +0.000 A 
ATOM      3  C   UNL     1       0.876   9.856  18.618  0.00  0.00    +0.000 A 
ATOM      4  C   UNL     1       0.577   9.990  19.965  0.00  0.00    +0.000 A 
ATOM      5  C   UNL     1       0.980   8.884  20.787  0.00  0.00    +0.000 A 
ATOM      6  C   UNL     1       1.840   7.851  20.363  0.00  0.00    +0.000 A 
ENDROOT
BRANCH   4   7
ATOM      7  N   UNL     1       0.104  11.174  20.706  0.00  0.00    +0.000 N 
ATOM      8  N   UNL     1       0.605  12.415  21.264  0.00  0.00    +0.000 NA
ATOM      9  C   UNL     1      -0.572  12.962  21.796  0.00  0.00    +0.000 A 
ATOM     10  C   UNL     1      -1.627  12.145  21.272  0.00  0.00    +0.000 A 
ATOM     11  C   UNL     1      -1.013  10.944  21.486  0.00  0.00    +0.000 A 
ATOM     12  C   UNL     1      -0.805  10.030  22.654  0.00  0.00    +0.000 C 
ATOM     13  N   UNL     1      -2.990  12.466  21.351  0.00  0.00    +0.000 N 
ATOM     14  C   UNL     1      -3.394  13.657  20.500  0.00  0.00    +0.000 C 
ATOM     15  S   UNL     1      -3.414  12.715  22.981  0.00  0.00    +0.000 S 
ATOM     16  O   UNL     1      -4.797  13.145  23.021  0.00  0.00    +0.000 OA
ATOM     17  O   UNL     1      -2.967  11.640  23.836  0.00  0.00    +0.000 OA
ATOM     18  C   UNL     1      -2.360  14.107  23.254  0.00  0.00    +0.000 A 
ATOM     19  C   UNL     1      -3.003  15.193  23.879  0.00  0.00    +0.000 A 
ATOM     20  C   UNL     1      -2.237  16.241  24.313  0.00  0.00    +0.000 A 
ATOM     21  C   UNL     1      -0.853  16.158  24.124  0.00  0.00    +0.000 A 
ATOM     22  C   UNL     1      -0.230  15.115  23.351  0.00  0.00    +0.000 A 
ATOM     23  C   UNL     1      -0.989  14.076  22.804  0.00  0.00    +0.000 A 
ENDBRANCH   4   7
BRANCH   1  25
ATOM     24  C   UNL     1       3.822   5.732  19.466  0.00  0.00    +0.000 C 
ATOM     25  C   UNL     1       3.322   6.722  18.687  0.00  0.00    +0.000 C 
BRANCH  24  26
ATOM     26  C   UNL     1       4.901   4.744  19.032  0.00  0.00    +0.000 C 
ATOM     27  O   UNL     1       5.357   3.949  19.849  0.00  0.00    +0.000 OA
BRANCH  26  33
ATOM     28  C   UNL     1       6.891   4.431  13.472  0.00  0.00    +0.000 C 
ATOM     29  C   UNL     1       6.356   4.553  14.874  0.00  0.00    +0.000 A 
ATOM     30  C   UNL     1       5.141   3.991  15.237  0.00  0.00    +0.000 A 
ATOM     31  C   UNL     1       4.644   4.057  16.564  0.00  0.00    +0.000 A 
ATOM     32  C   UNL     1       3.349   3.323  16.797  0.00  0.00    +0.000 C 
ATOM     33  C   UNL     1       5.370   4.745  17.585  0.00  0.00    +0.000 A 
ATOM     34  C   UNL     1       6.600   5.347  17.183  0.00  0.00    +0.000 A 
ATOM     35  C   UNL     1       7.528   6.116  18.102  0.00  0.00    +0.000 C 
ATOM     36  C   UNL     1       7.071   5.226  15.859  0.00  0.00    +0.000 A 
ENDBRANCH  26  33
ENDBRANCH  24  26
ENDBRANCH   1  25
TORSDOF 4
ENDMDL
MODEL 5
REMARK VINA RESULT:      -9.1      2.052      2.851
REMARK  Name = 
REMARK  9 active torsions:
REMARK  status: ('A' for Active; 'I' for Inactive)
REMARK    1  A    between atoms: C_1  and  C_2
REMARK    2  A    between atoms: C_4  and  C_5
REMARK    3  A    between atoms: C_6  and  C_7
REMARK    4  A    between atoms: C_7  and  C_9
REMARK    5  A    between atoms: C_10  and  C_11
REMARK    6  A    between atoms: C_14  and  N_15
REMARK    7  A    between atoms: C_19  and  C_20
REMARK    8  A    between atoms: N_21  and  C_22
REMARK    9  A    between atoms: C_34  and  C_35
REMARK                            x       y       z     vdW  Elec       q    Type
REMARK                         _______ _______ _______ _____ _____    ______ ____
ROOT
ATOM      1  C   UNL     1       1.740   8.473  18.761  0.00  0.00    +0.000 A 
ATOM      2  C   UNL     1       1.027   9.172  17.756  0.00  0.00    +0.000 A 
ATOM      3  C   UNL     1      -0.042  10.124  18.052  0.00  0.00    +0.000 A 
ATOM      4  C   UNL     1      -0.371  10.403  19.369  0.00  0.00    +0.000 A 
ATOM      5  C   UNL     1       0.226   9.531  20.340  0.00  0.00    +0.000 A 
ATOM      6  C   UNL     1       1.268   8.624  20.059  0.00  0.00    +0.000 A 
ENDROOT
BRANCH   4   7
ATOM      7  N   UNL     1      -1.065  11.576  19.932  0.00  0.00    +0.000 N 
ATOM      8  N   UNL     1      -2.068  12.559  19.571  0.00  0.00    +0.000 NA
ATOM      9  C   UNL     1      -2.131  13.320  20.749  0.00  0.00    +0.000 A 
ATOM     10  C   UNL     1      -1.391  12.563  21.716  0.00  0.00    +0.000 A 
ATOM     11  C   UNL     1      -0.342  12.251  20.897  0.00  0.00    +0.000 A 
ATOM     12  C   UNL     1       0.891  12.946  20.409  0.00  0.00    +0.000 C 
ATOM     13  N   UNL     1      -1.388  12.827  23.092  0.00  0.00    +0.000 N 
ATOM     14  C   UNL     1      -2.712  12.542  23.779  0.00  0.00    +0.000 C 
ATOM     15  S   UNL     1      -0.905  14.439  23.354  0.00  0.00    +0.000 S 
ATOM     16  O   UNL     1      -1.011  14.712  24.772  0.00  0.00    +0.000 OA
ATOM     17  O   UNL     1       0.308  14.772  22.643  0.00  0.00    +0.000 OA
ATOM     18  C   UNL     1      -2.261  15.196  22.509  0.00  0.00    +0.000 A 
ATOM     19  C   UNL     1      -2.878  16.232  23.236  0.00  0.00    +0.000 A 
ATOM     20  C   UNL     1      -3.805  17.011  22.600  0.00  0.00    +0.000 A 
ATOM     21  C   UNL     1      -4.069  16.741  21.253  0.00  0.00    +0.000 A 
ATOM     22  C   UNL     1      -3.544  15.587  20.569  0.00  0.00    +0.000 A 
ATOM     23  C   UNL     1      -2.669  14.707  21.213  0.00  0.00    +0.000 A 
ENDBRANCH   4   7
BRANCH   1  25
ATOM     24  C   UNL     1       3.231   6.365  19.135  0.00  0.00    +0.000 C 
ATOM     25  C   UNL     1       2.950   7.552  18.542  0.00  0.00    +0.000 C 
BRANCH  24  26
ATOM     26  C   UNL     1       4.509   5.562  18.911  0.00  0.00    +0.000 C 
ATOM     27  O   UNL     1       5.173   5.201  19.878  0.00  0.00    +0.000 OA
BRANCH  26  33
ATOM     28  C   UNL     1       6.338   3.912  13.535  0.00  0.00    +0.000 C 
ATOM     29  C   UNL     1       5.834   4.360  14.880  0.00  0.00    +0.000 A 
ATOM     30  C   UNL     1       4.803   3.694  15.526  0.00  0.00    +0.000 A 
ATOM     31  C   UNL     1       4.348   4.075  16.815  0.00  0.00    +0.000 A 
ATOM     32  C   UNL     1       3.278   3.189  17.400  0.00  0.00    +0.000 C 
ATOM     33  C   UNL     1       4.917   5.197  17.491  0.00  0.00    +0.000 A 
ATOM     34  C   UNL     1       5.951   5.893  16.794  0.00  0.00    +0.000 A 
ATOM     35  C   UNL     1       6.692   7.101  17.327  0.00  0.00    +0.000 C 
ATOM     36  C   UNL     1       6.395   5.456  15.528  0.00  0.00    +0.000 A 
ENDBRANCH  26  33
ENDBRANCH  24  26
ENDBRANCH   1  25
TORSDOF 4
ENDMDL
MODEL 6
REMARK VINA RESULT:      -9.0      2.040      2.477
REMARK  Name = 
REMARK  9 active torsions:
REMARK  status: ('A' for Active; 'I' for Inactive)
REMARK    1  A    between atoms: C_1  and  C_2
REMARK    2  A    between atoms: C_4  and  C_5
REMARK    3  A    between atoms: C_6  and  C_7
REMARK    4  A    between atoms: C_7  and  C_9
REMARK    5  A    between atoms: C_10  and  C_11
REMARK    6  A    between atoms: C_14  and  N_15
REMARK    7  A    between atoms: C_19  and  C_20
REMARK    8  A    between atoms: N_21  and  C_22
REMARK    9  A    between atoms: C_34  and  C_35
REMARK                            x       y       z     vdW  Elec       q    Type
REMARK                         _______ _______ _______ _____ _____    ______ ____
ROOT
ATOM      1  C   UNL     1       2.029   8.336  18.714  0.00  0.00    +0.000 A 
ATOM      2  C   UNL     1       1.347   9.038  17.690  0.00  0.00    +0.000 A 
ATOM      3  C   UNL     1       0.235   9.949  17.951  0.00  0.00    +0.000 A 
ATOM      4  C   UNL     1      -0.170  10.186  19.256  0.00  0.00    +0.000 A 
ATOM      5  C   UNL     1       0.405   9.309  20.236  0.00  0.00    +0.000 A 
ATOM      6  C   UNL     1       1.487   8.441  19.989  0.00  0.00    +0.000 A 
ENDROOT
BRANCH   4   7
ATOM      7  N   UNL     1      -0.928  11.324  19.809  0.00  0.00    +0.000 N 
ATOM      8  N   UNL     1      -1.979  12.251  19.437  0.00  0.00    +0.000 NA
ATOM      9  C   UNL     1      -2.088  13.014  20.610  0.00  0.00    +0.000 A 
ATOM     10  C   UNL     1      -1.315  12.302  21.585  0.00  0.00    +0.000 A 
ATOM     11  C   UNL     1      -0.247  12.041  20.774  0.00  0.00    +0.000 A 
ATOM     12  C   UNL     1       0.951  12.798  20.289  0.00  0.00    +0.000 C 
ATOM     13  N   UNL     1      -1.333  12.573  22.960  0.00  0.00    +0.000 N 
ATOM     14  C   UNL     1      -2.644  12.222  23.641  0.00  0.00    +0.000 C 
ATOM     15  S   UNL     1      -0.937  14.209  23.215  0.00  0.00    +0.000 S 
ATOM     16  O   UNL     1      -1.066  14.484  24.631  0.00  0.00    +0.000 OA
ATOM     17  O   UNL     1       0.260  14.602  22.509  0.00  0.00    +0.000 OA
ATOM     18  C   UNL     1      -2.327  14.889  22.359  0.00  0.00    +0.000 A 
ATOM     19  C   UNL     1      -3.001  15.895  23.078  0.00  0.00    +0.000 A 
ATOM     20  C   UNL     1      -3.965  16.621  22.432  0.00  0.00    +0.000 A 
ATOM     21  C   UNL     1      -4.207  16.330  21.086  0.00  0.00    +0.000 A 
ATOM     22  C   UNL     1      -3.618  15.202  20.410  0.00  0.00    +0.000 A 
ATOM     23  C   UNL     1      -2.702  14.373  21.064  0.00  0.00    +0.000 A 
ENDBRANCH   4   7
BRANCH   1  25
ATOM     24  C   UNL     1       3.529   6.229  19.053  0.00  0.00    +0.000 C 
ATOM     25  C   UNL     1       3.276   7.457  18.537  0.00  0.00    +0.000 C 
BRANCH  24  26
ATOM     26  C   UNL     1       4.842   5.469  18.887  0.00  0.00    +0.000 C 
ATOM     27  O   UNL     1       5.522   5.213  19.877  0.00  0.00    +0.000 OA
BRANCH  26  33
ATOM     28  C   UNL     1       6.270   3.959  13.350  0.00  0.00    +0.000 C 
ATOM     29  C   UNL     1       5.944   4.310  14.777  0.00  0.00    +0.000 A 
ATOM     30  C   UNL     1       6.645   5.295  15.459  0.00  0.00    +0.000 A 
ATOM     31  C   UNL     1       6.319   5.670  16.788  0.00  0.00    +0.000 A 
ATOM     32  C   UNL     1       7.131   6.812  17.344  0.00  0.00    +0.000 C 
ATOM     33  C   UNL     1       5.267   5.016  17.498  0.00  0.00    +0.000 A 
ATOM     34  C   UNL     1       4.582   3.981  16.792  0.00  0.00    +0.000 A 
ATOM     35  C   UNL     1       3.434   3.165  17.351  0.00  0.00    +0.000 C 
ATOM     36  C   UNL     1       4.917   3.665  15.458  0.00  0.00    +0.000 A 
ENDBRANCH  26  33
ENDBRANCH  24  26
ENDBRANCH   1  25
TORSDOF 4
ENDMDL
MODEL 7
REMARK VINA RESULT:      -8.8      2.275      3.411
REMARK  Name = 
REMARK  9 active torsions:
REMARK  status: ('A' for Active; 'I' for Inactive)
REMARK    1  A    between atoms: C_1  and  C_2
REMARK    2  A    between atoms: C_4  and  C_5
REMARK    3  A    between atoms: C_6  and  C_7
REMARK    4  A    between atoms: C_7  and  C_9
REMARK    5  A    between atoms: C_10  and  C_11
REMARK    6  A    between atoms: C_14  and  N_15
REMARK    7  A    between atoms: C_19  and  C_20
REMARK    8  A    between atoms: N_21  and  C_22
REMARK    9  A    between atoms: C_34  and  C_35
REMARK                            x       y       z     vdW  Elec       q    Type
REMARK                         _______ _______ _______ _____ _____    ______ ____
ROOT
ATOM      1  C   UNL     1       2.295   7.598  19.238  0.00  0.00    +0.000 A 
ATOM      2  C   UNL     1       1.924   7.908  20.570  0.00  0.00    +0.000 A 
ATOM      3  C   UNL     1       1.005   8.992  20.912  0.00  0.00    +0.000 A 
ATOM      4  C   UNL     1       0.424   9.746  19.904  0.00  0.00    +0.000 A 
ATOM      5  C   UNL     1       0.977   9.537  18.596  0.00  0.00    +0.000 A 
ATOM      6  C   UNL     1       1.851   8.483  18.262  0.00  0.00    +0.000 A 
ENDROOT
BRANCH   4   7
ATOM      7  N   UNL     1      -0.803  10.563  19.936  0.00  0.00    +0.000 N 
ATOM      8  N   UNL     1      -2.099  10.655  19.293  0.00  0.00    +0.000 NA
ATOM      9  C   UNL     1      -2.655  11.752  19.969  0.00  0.00    +0.000 A 
ATOM     10  C   UNL     1      -1.767  11.994  21.069  0.00  0.00    +0.000 A 
ATOM     11  C   UNL     1      -0.606  11.863  20.361  0.00  0.00    +0.000 A 
ATOM     12  C   UNL     1       0.202  12.726  19.442  0.00  0.00    +0.000 C 
ATOM     13  N   UNL     1      -2.054  12.847  22.144  0.00  0.00    +0.000 N 
ATOM     14  C   UNL     1      -3.159  12.342  23.055  0.00  0.00    +0.000 C 
ATOM     15  S   UNL     1      -2.424  14.398  21.547  0.00  0.00    +0.000 S 
ATOM     16  O   UNL     1      -2.816  15.226  22.668  0.00  0.00    +0.000 OA
ATOM     17  O   UNL     1      -1.437  14.876  20.607  0.00  0.00    +0.000 OA
ATOM     18  C   UNL     1      -3.865  13.926  20.636  0.00  0.00    +0.000 A 
ATOM     19  C   UNL     1      -4.980  14.755  20.865  0.00  0.00    +0.000 A 
ATOM     20  C   UNL     1      -6.081  14.600  20.068  0.00  0.00    +0.000 A 
ATOM     21  C   UNL     1      -6.023  13.634  19.058  0.00  0.00    +0.000 A 
ATOM     22  C   UNL     1      -4.937  12.695  18.934  0.00  0.00    +0.000 A 
ATOM     23  C   UNL     1      -3.835  12.755  19.793  0.00  0.00    +0.000 A 
ENDBRANCH   4   7
BRANCH   1  25
ATOM     24  C   UNL     1       4.000   5.646  19.525  0.00  0.00    +0.000 C 
ATOM     25  C   UNL     1       3.155   6.409  18.788  0.00  0.00    +0.000 C 
BRANCH  24  26
ATOM     26  C   UNL     1       4.880   4.532  18.964  0.00  0.00    +0.000 C 
ATOM     27  O   UNL     1       5.128   3.550  19.659  0.00  0.00    +0.000 OA
BRANCH  26  33
ATOM     28  C   UNL     1       7.088   4.654  13.480  0.00  0.00    +0.000 C 
ATOM     29  C   UNL     1       6.499   4.668  14.865  0.00  0.00    +0.000 A 
ATOM     30  C   UNL     1       5.252   4.120  15.127  0.00  0.00    +0.000 A 
ATOM     31  C   UNL     1       4.704   4.082  16.435  0.00  0.00    +0.000 A 
ATOM     32  C   UNL     1       3.376   3.377  16.550  0.00  0.00    +0.000 C 
ATOM     33  C   UNL     1       5.408   4.648  17.542  0.00  0.00    +0.000 A 
ATOM     34  C   UNL     1       6.673   5.239  17.245  0.00  0.00    +0.000 A 
ATOM     35  C   UNL     1       7.586   5.887  18.266  0.00  0.00    +0.000 C 
ATOM     36  C   UNL     1       7.194   5.222  15.934  0.00  0.00    +0.000 A 
ENDBRANCH  26  33
ENDBRANCH  24  26
ENDBRANCH   1  25
TORSDOF 4
ENDMDL
MODEL 8
REMARK VINA RESULT:      -8.8      1.021      1.193
REMARK  Name = 
REMARK  9 active torsions:
REMARK  status: ('A' for Active; 'I' for Inactive)
REMARK    1  A    between atoms: C_1  and  C_2
REMARK    2  A    between atoms: C_4  and  C_5
REMARK    3  A    between atoms: C_6  and  C_7
REMARK    4  A    between atoms: C_7  and  C_9
REMARK    5  A    between atoms: C_10  and  C_11
REMARK    6  A    between atoms: C_14  and  N_15
REMARK    7  A    between atoms: C_19  and  C_20
REMARK    8  A    between atoms: N_21  and  C_22
REMARK    9  A    between atoms: C_34  and  C_35
REMARK                            x       y       z     vdW  Elec       q    Type
REMARK                         _______ _______ _______ _____ _____    ______ ____
ROOT
ATOM      1  C   UNL     1       1.801   7.902  20.021  0.00  0.00    +0.000 A 
ATOM      2  C   UNL     1       1.497   8.964  19.135  0.00  0.00    +0.000 A 
ATOM      3  C   UNL     1       0.730  10.143  19.534  0.00  0.00    +0.000 A 
ATOM      4  C   UNL     1       0.298  10.272  20.844  0.00  0.00    +0.000 A 
ATOM      5  C   UNL     1       0.446   9.093  21.650  0.00  0.00    +0.000 A 
ATOM      6  C   UNL     1       1.198   7.963  21.273  0.00  0.00    +0.000 A 
ENDROOT
BRANCH   4   7
ATOM      7  N   UNL     1      -0.091  11.486  21.586  0.00  0.00    +0.000 N 
ATOM      8  N   UNL     1      -0.627  11.883  22.874  0.00  0.00    +0.000 NA
ATOM      9  C   UNL     1      -0.665  13.279  22.728  0.00  0.00    +0.000 A 
ATOM     10  C   UNL     1       0.076  13.543  21.529  0.00  0.00    +0.000 A 
ATOM     11  C   UNL     1      -0.477  12.541  20.782  0.00  0.00    +0.000 A 
ATOM     12  C   UNL     1      -1.751  12.339  20.022  0.00  0.00    +0.000 C 
ATOM     13  N   UNL     1       0.496  14.817  21.124  0.00  0.00    +0.000 N 
ATOM     14  C   UNL     1       1.573  15.423  22.006  0.00  0.00    +0.000 C 
ATOM     15  S   UNL     1      -0.856  15.848  21.025  0.00  0.00    +0.000 S 
ATOM     16  O   UNL     1      -0.380  17.178  20.706  0.00  0.00    +0.000 OA
ATOM     17  O   UNL     1      -1.937  15.267  20.264  0.00  0.00    +0.000 OA
ATOM     18  C   UNL     1      -1.291  15.777  22.737  0.00  0.00    +0.000 A 
ATOM     19  C   UNL     1      -1.527  17.038  23.317  0.00  0.00    +0.000 A 
ATOM     20  C   UNL     1      -2.058  17.085  24.577  0.00  0.00    +0.000 A 
ATOM     21  C   UNL     1      -2.353  15.871  25.206  0.00  0.00    +0.000 A 
ATOM     22  C   UNL     1      -1.966  14.594  24.663  0.00  0.00    +0.000 A 
ATOM     23  C   UNL     1      -1.331  14.505  23.420  0.00  0.00    +0.000 A 
ENDBRANCH   4   7
BRANCH   1  25
ATOM     24  C   UNL     1       2.470   5.382  19.980  0.00  0.00    +0.000 C 
ATOM     25  C   UNL     1       2.696   6.692  19.716  0.00  0.00    +0.000 C 
BRANCH  24  26
ATOM     26  C   UNL     1       3.466   4.256  19.712  0.00  0.00    +0.000 C 
ATOM     27  O   UNL     1       3.602   3.360  20.540  0.00  0.00    +0.000 OA
BRANCH  26  33
ATOM     28  C   UNL     1       6.377   4.573  14.575  0.00  0.00    +0.000 C 
ATOM     29  C   UNL     1       5.661   4.447  15.893  0.00  0.00    +0.000 A 
ATOM     30  C   UNL     1       6.232   4.898  17.073  0.00  0.00    +0.000 A 
ATOM     31  C   UNL     1       5.552   4.830  18.316  0.00  0.00    +0.000 A 
ATOM     32  C   UNL     1       6.288   5.441  19.481  0.00  0.00    +0.000 C 
ATOM     33  C   UNL     1       4.249   4.252  18.408  0.00  0.00    +0.000 A 
ATOM     34  C   UNL     1       3.693   3.760  17.188  0.00  0.00    +0.000 A 
ATOM     35  C   UNL     1       2.327   3.118  17.057  0.00  0.00    +0.000 C 
ATOM     36  C   UNL     1       4.392   3.881  15.969  0.00  0.00    +0.000 A 
ENDBRANCH  26  33
ENDBRANCH  24  26
ENDBRANCH   1  25
TORSDOF 4
ENDMDL
MODEL 9
REMARK VINA RESULT:      -8.7      1.152      2.015
REMARK  Name = 
REMARK  9 active torsions:
REMARK  status: ('A' for Active; 'I' for Inactive)
REMARK    1  A    between atoms: C_1  and  C_2
REMARK    2  A    between atoms: C_4  and  C_5
REMARK    3  A    between atoms: C_6  and  C_7
REMARK    4  A    between atoms: C_7  and  C_9
REMARK    5  A    between atoms: C_10  and  C_11
REMARK    6  A    between atoms: C_14  and  N_15
REMARK    7  A    between atoms: C_19  and  C_20
REMARK    8  A    between atoms: N_21  and  C_22
REMARK    9  A    between atoms: C_34  and  C_35
REMARK                            x       y       z     vdW  Elec       q    Type
REMARK                         _______ _______ _______ _____ _____    ______ ____
ROOT
ATOM      1  C   UNL     1       1.730   8.042  20.141  0.00  0.00    +0.000 A 
ATOM      2  C   UNL     1       1.405   9.105  19.263  0.00  0.00    +0.000 A 
ATOM      3  C   UNL     1       0.622  10.269  19.673  0.00  0.00    +0.000 A 
ATOM      4  C   UNL     1       0.196  10.384  20.987  0.00  0.00    +0.000 A 
ATOM      5  C   UNL     1       0.367   9.202  21.785  0.00  0.00    +0.000 A 
ATOM      6  C   UNL     1       1.135   8.086  21.396  0.00  0.00    +0.000 A 
ENDROOT
BRANCH   4   7
ATOM      7  N   UNL     1      -0.207  11.587  21.739  0.00  0.00    +0.000 N 
ATOM      8  N   UNL     1      -0.698  11.972  23.048  0.00  0.00    +0.000 NA
ATOM      9  C   UNL     1      -0.800  13.363  22.895  0.00  0.00    +0.000 A 
ATOM     10  C   UNL     1      -0.127  13.648  21.661  0.00  0.00    +0.000 A 
ATOM     11  C   UNL     1      -0.673  12.619  20.947  0.00  0.00    +0.000 A 
ATOM     12  C   UNL     1      -1.972  12.359  20.248  0.00  0.00    +0.000 C 
ATOM     13  N   UNL     1       0.221  14.935  21.228  0.00  0.00    +0.000 N 
ATOM     14  C   UNL     1       1.312  15.591  22.056  0.00  0.00    +0.000 C 
ATOM     15  S   UNL     1      -1.176  15.909  21.186  0.00  0.00    +0.000 S 
ATOM     16  O   UNL     1      -0.769  17.255  20.838  0.00  0.00    +0.000 OA
ATOM     17  O   UNL     1      -2.266  15.278  20.480  0.00  0.00    +0.000 OA
ATOM     18  C   UNL     1      -1.527  15.834  22.918  0.00  0.00    +0.000 A 
ATOM     19  C   UNL     1      -1.787  17.089  23.500  0.00  0.00    +0.000 A 
ATOM     20  C   UNL     1      -2.260  17.126  24.784  0.00  0.00    +0.000 A 
ATOM     21  C   UNL     1      -2.475  15.906  25.433  0.00  0.00    +0.000 A 
ATOM     22  C   UNL     1      -2.062  14.641  24.880  0.00  0.00    +0.000 A 
ATOM     23  C   UNL     1      -1.483  14.568  23.610  0.00  0.00    +0.000 A 
ENDBRANCH   4   7
BRANCH   1  25
ATOM     24  C   UNL     1       2.399   5.525  19.993  0.00  0.00    +0.000 C 
ATOM     25  C   UNL     1       2.643   6.848  19.823  0.00  0.00    +0.000 C 
BRANCH  24  26
ATOM     26  C   UNL     1       3.409   4.413  19.724  0.00  0.00    +0.000 C 
ATOM     27  O   UNL     1       3.561   3.521  20.554  0.00  0.00    +0.000 OA
BRANCH  26  33
ATOM     28  C   UNL     1       6.547   4.090  14.723  0.00  0.00    +0.000 C 
ATOM     29  C   UNL     1       5.728   4.218  15.978  0.00  0.00    +0.000 A 
ATOM     30  C   UNL     1       4.414   3.776  16.034  0.00  0.00    +0.000 A 
ATOM     31  C   UNL     1       3.644   3.847  17.224  0.00  0.00    +0.000 A 
ATOM     32  C   UNL     1       2.264   3.247  17.125  0.00  0.00    +0.000 C 
ATOM     33  C   UNL     1       4.186   4.416  18.416  0.00  0.00    +0.000 A 
ATOM     34  C   UNL     1       5.527   4.898  18.328  0.00  0.00    +0.000 A 
ATOM     35  C   UNL     1       6.296   5.530  19.470  0.00  0.00    +0.000 C 
ATOM     36  C   UNL     1       6.267   4.775  17.133  0.00  0.00    +0.000 A 
ENDBRANCH  26  33
ENDBRANCH  24  26
ENDBRANCH   1  25
TORSDOF 4
ENDMDL
