MODEL 1
REMARK VINA RESULT:      -7.7      0.000      0.000
REMARK  Name = 
REMARK  7 active torsions:
REMARK  status: ('A' for Active; 'I' for Inactive)
REMARK    1  A    between atoms: C_1  and  C_2
REMARK    2  A    between atoms: C_6  and  C_7
REMARK    3  A    between atoms: C_7  and  N_8
REMARK    4  A    between atoms: C_11  and  C_12
REMARK    5  A    between atoms: C_11  and  O_13
REMARK    6  A    between atoms: C_14  and  O_15
REMARK    7  A    between atoms: O_15  and  C_16
REMARK                            x       y       z     vdW  Elec       q    Type
REMARK                         _______ _______ _______ _____ _____    ______ ____
ROOT
ATOM      1  N   UNL     1       4.090   3.650  17.849  0.00  0.00    +0.000 NA
ATOM      2  C   UNL     1       4.357   2.701  18.929  0.00  0.00    +0.000 C 
ATOM      3  C   UNL     1       3.596   2.927  20.247  0.00  0.00    +0.000 C 
ATOM      4  C   UNL     1       2.124   3.270  19.997  0.00  0.00    +0.000 C 
ATOM      5  C   UNL     1       1.330   3.385  21.301  0.00  0.00    +0.000 C 
ATOM      6  C   UNL     1       2.084   4.559  19.143  0.00  0.00    +0.000 C 
ATOM      7  C   UNL     1       2.770   4.280  17.791  0.00  0.00    +0.000 C 
ENDROOT
BRANCH   4   8
ATOM      8  O   UNL     1       1.500   2.194  19.270  0.00  0.00    +0.000 OA
ATOM      9  H   UNL     1       1.461   2.448  18.330  0.00  0.00    +0.000 HD
ENDBRANCH   4   8
BRANCH   1  10
ATOM     10  C   UNL     1       4.584   3.234  16.525  0.00  0.00    +0.000 C 
BRANCH  10  16
ATOM     11  C   UNL     1       7.247   4.918  17.762  0.00  0.00    +0.000 C 
ATOM     12  C   UNL     1       6.791   4.735  16.364  0.00  0.00    +0.000 A 
ATOM     13  N   UNL     1       7.607   5.307  15.392  0.00  0.00    +0.000 NA
ATOM     14  C   UNL     1       7.143   5.056  14.194  0.00  0.00    +0.000 A 
ATOM     15  S   UNL     1       5.693   4.156  14.140  0.00  0.00    +0.000 S 
ATOM     16  C   UNL     1       5.677   4.055  15.873  0.00  0.00    +0.000 A 
ENDBRANCH  10  16
ENDBRANCH   1  10
BRANCH   6  17
ATOM     17  O   UNL     1       2.802   5.654  19.751  0.00  0.00    +0.000 OA
BRANCH  17  18
ATOM     18  C   UNL     1       2.294   6.912  19.639  0.00  0.00    +0.000 A 
ATOM     19  C   UNL     1       1.611   7.383  20.768  0.00  0.00    +0.000 A 
ATOM     20  C   UNL     1       0.982   8.630  20.748  0.00  0.00    +0.000 A 
ATOM     21  C   UNL     1       1.054   9.418  19.602  0.00  0.00    +0.000 A 
ATOM     22  C   UNL     1       1.780   8.966  18.508  0.00  0.00    +0.000 A 
ATOM     23  F   UNL     1       1.866   9.734  17.414  0.00  0.00    +0.000 F 
ATOM     24  C   UNL     1       2.412   7.729  18.517  0.00  0.00    +0.000 A 
ENDBRANCH  17  18
ENDBRANCH   6  17
TORSDOF 5
ENDMDL
MODEL 2
REMARK VINA RESULT:      -7.7      1.044      1.447
REMARK  Name = 
REMARK  7 active torsions:
REMARK  status: ('A' for Active; 'I' for Inactive)
REMARK    1  A    between atoms: C_1  and  C_2
REMARK    2  A    between atoms: C_6  and  C_7
REMARK    3  A    between atoms: C_7  and  N_8
REMARK    4  A    between atoms: C_11  and  C_12
REMARK    5  A    between atoms: C_11  and  O_13
REMARK    6  A    between atoms: C_14  and  O_15
REMARK    7  A    between atoms: O_15  and  C_16
REMARK                            x       y       z     vdW  Elec       q    Type
REMARK                         _______ _______ _______ _____ _____    ______ ____
ROOT
ATOM      1  N   UNL     1       4.292   3.843  17.731  0.00  0.00    +0.000 NA
ATOM      2  C   UNL     1       4.297   2.993  18.922  0.00  0.00    +0.000 C 
ATOM      3  C   UNL     1       3.340   3.393  20.058  0.00  0.00    +0.000 C 
ATOM      4  C   UNL     1       1.963   3.794  19.519  0.00  0.00    +0.000 C 
ATOM      5  C   UNL     1       0.967   4.084  20.645  0.00  0.00    +0.000 C 
ATOM      6  C   UNL     1       2.165   4.991  18.561  0.00  0.00    +0.000 C 
ATOM      7  C   UNL     1       3.052   4.539  17.383  0.00  0.00    +0.000 C 
ENDROOT
BRANCH   4   8
ATOM      8  O   UNL     1       1.395   2.688  18.790  0.00  0.00    +0.000 OA
ATOM      9  H   UNL     1       1.479   1.889  19.341  0.00  0.00    +0.000 HD
ENDBRANCH   4   8
BRANCH   1  10
ATOM     10  C   UNL     1       4.974   3.269  16.559  0.00  0.00    +0.000 C 
BRANCH  10  16
ATOM     11  C   UNL     1       7.299   5.538  17.507  0.00  0.00    +0.000 C 
ATOM     12  C   UNL     1       6.911   5.067  16.156  0.00  0.00    +0.000 A 
ATOM     13  N   UNL     1       7.645   5.607  15.104  0.00  0.00    +0.000 NA
ATOM     14  C   UNL     1       7.257   5.099  13.962  0.00  0.00    +0.000 A 
ATOM     15  S   UNL     1       5.974   3.976  14.055  0.00  0.00    +0.000 S 
ATOM     16  C   UNL     1       5.934   4.146  15.782  0.00  0.00    +0.000 A 
ENDBRANCH  10  16
ENDBRANCH   1  10
BRANCH   6  17
ATOM     17  O   UNL     1       2.848   6.097  19.187  0.00  0.00    +0.000 OA
BRANCH  17  18
ATOM     18  C   UNL     1       2.227   7.309  19.230  0.00  0.00    +0.000 A 
ATOM     19  C   UNL     1       2.250   8.035  18.031  0.00  0.00    +0.000 A 
ATOM     20  C   UNL     1       1.712   9.321  17.970  0.00  0.00    +0.000 A 
ATOM     21  C   UNL     1       1.130   9.878  19.107  0.00  0.00    +0.000 A 
ATOM     22  C   UNL     1       1.063   9.130  20.275  0.00  0.00    +0.000 A 
ATOM     23  F   UNL     1       0.485   9.659  21.361  0.00  0.00    +0.000 F 
ATOM     24  C   UNL     1       1.593   7.848  20.346  0.00  0.00    +0.000 A 
ENDBRANCH  17  18
ENDBRANCH   6  17
TORSDOF 5
ENDMDL
MODEL 3
REMARK VINA RESULT:      -7.4      1.036      1.355
REMARK  Name = 
REMARK  7 active torsions:
REMARK  status: ('A' for Active; 'I' for Inactive)
REMARK    1  A    between atoms: C_1  and  C_2
REMARK    2  A    between atoms: C_6  and  C_7
REMARK    3  A    between atoms: C_7  and  N_8
REMARK    4  A    between atoms: C_11  and  C_12
REMARK    5  A    between atoms: C_11  and  O_13
REMARK    6  A    between atoms: C_14  and  O_15
REMARK    7  A    between atoms: O_15  and  C_16
REMARK                            x       y       z     vdW  Elec       q    Type
REMARK                         _______ _______ _______ _____ _____    ______ ____
ROOT
ATOM      1  N   UNL     1       3.914   3.854  18.187  0.00  0.00    +0.000 NA
ATOM      2  C   UNL     1       4.270   2.806  19.144  0.00  0.00    +0.000 C 
ATOM      3  C   UNL     1       3.482   2.784  20.465  0.00  0.00    +0.000 C 
ATOM      4  C   UNL     1       1.985   3.006  20.232  0.00  0.00    +0.000 C 
ATOM      5  C   UNL     1       1.175   2.873  21.524  0.00  0.00    +0.000 C 
ATOM      6  C   UNL     1       1.817   4.383  19.547  0.00  0.00    +0.000 C 
ATOM      7  C   UNL     1       2.537   4.350  18.184  0.00  0.00    +0.000 C 
ENDROOT
BRANCH   4   8
ATOM      8  O   UNL     1       1.478   1.975  19.362  0.00  0.00    +0.000 OA
ATOM      9  H   UNL     1       1.351   1.169  19.894  0.00  0.00    +0.000 HD
ENDBRANCH   4   8
BRANCH   1  10
ATOM     10  C   UNL     1       4.457   3.662  16.831  0.00  0.00    +0.000 C 
BRANCH  10  16
ATOM     11  C   UNL     1       6.209   3.869  13.943  0.00  0.00    +0.000 C 
ATOM     12  C   UNL     1       6.364   4.612  15.216  0.00  0.00    +0.000 A 
ATOM     13  N   UNL     1       7.360   5.584  15.219  0.00  0.00    +0.000 NA
ATOM     14  C   UNL     1       7.389   6.210  16.369  0.00  0.00    +0.000 A 
ATOM     15  S   UNL     1       6.264   5.664  17.532  0.00  0.00    +0.000 S 
ATOM     16  C   UNL     1       5.646   4.498  16.405  0.00  0.00    +0.000 A 
ENDBRANCH  10  16
ENDBRANCH   1  10
BRANCH   6  17
ATOM     17  O   UNL     1       2.416   5.458  20.301  0.00  0.00    +0.000 OA
BRANCH  17  18
ATOM     18  C   UNL     1       2.079   6.741  19.992  0.00  0.00    +0.000 A 
ATOM     19  C   UNL     1       1.389   7.436  20.995  0.00  0.00    +0.000 A 
ATOM     20  C   UNL     1       0.926   8.733  20.769  0.00  0.00    +0.000 A 
ATOM     21  C   UNL     1       1.170   9.347  19.543  0.00  0.00    +0.000 A 
ATOM     22  C   UNL     1       1.903   8.671  18.576  0.00  0.00    +0.000 A 
ATOM     23  F   UNL     1       2.155   9.270  17.405  0.00  0.00    +0.000 F 
ATOM     24  C   UNL     1       2.371   7.381  18.790  0.00  0.00    +0.000 A 
ENDBRANCH  17  18
ENDBRANCH   6  17
TORSDOF 5
ENDMDL
MODEL 4
REMARK VINA RESULT:      -7.2      3.890      7.051
REMARK  Name = 
REMARK  7 active torsions:
REMARK  status: ('A' for Active; 'I' for Inactive)
REMARK    1  A    between atoms: C_1  and  C_2
REMARK    2  A    between atoms: C_6  and  C_7
REMARK    3  A    between atoms: C_7  and  N_8
REMARK    4  A    between atoms: C_11  and  C_12
REMARK    5  A    between atoms: C_11  and  O_13
REMARK    6  A    between atoms: C_14  and  O_15
REMARK    7  A    between atoms: O_15  and  C_16
REMARK                            x       y       z     vdW  Elec       q    Type
REMARK                         _______ _______ _______ _____ _____    ______ ____
ROOT
ATOM      1  N   UNL     1       4.903   3.373  18.126  0.00  0.00    +0.000 NA
ATOM      2  C   UNL     1       5.531   4.238  19.125  0.00  0.00    +0.000 C 
ATOM      3  C   UNL     1       6.293   5.464  18.593  0.00  0.00    +0.000 C 
ATOM      4  C   UNL     1       5.516   6.171  17.479  0.00  0.00    +0.000 C 
ATOM      5  C   UNL     1       6.209   7.457  17.019  0.00  0.00    +0.000 C 
ATOM      6  C   UNL     1       5.304   5.151  16.335  0.00  0.00    +0.000 C 
ATOM      7  C   UNL     1       4.459   3.977  16.869  0.00  0.00    +0.000 C 
ENDROOT
BRANCH   4   8
ATOM      8  O   UNL     1       4.235   6.595  17.986  0.00  0.00    +0.000 OA
ATOM      9  H   UNL     1       4.292   6.631  18.957  0.00  0.00    +0.000 HD
ENDBRANCH   4   8
BRANCH   1  10
ATOM     10  C   UNL     1       3.936   2.404  18.669  0.00  0.00    +0.000 C 
BRANCH  10  16
ATOM     11  C   UNL     1       1.180   4.215  17.912  0.00  0.00    +0.000 C 
ATOM     12  C   UNL     1       1.632   3.650  19.205  0.00  0.00    +0.000 A 
ATOM     13  N   UNL     1       0.770   3.854  20.278  0.00  0.00    +0.000 NA
ATOM     14  C   UNL     1       1.237   3.284  21.360  0.00  0.00    +0.000 A 
ATOM     15  S   UNL     1       2.744   2.499  21.186  0.00  0.00    +0.000 S 
ATOM     16  C   UNL     1       2.784   2.924  19.503  0.00  0.00    +0.000 A 
ENDBRANCH  10  16
ENDBRANCH   1  10
BRANCH   6  17
ATOM     17  O   UNL     1       6.542   4.583  15.859  0.00  0.00    +0.000 OA
BRANCH  17  18
ATOM     18  C   UNL     1       6.710   4.413  14.518  0.00  0.00    +0.000 A 
ATOM     19  C   UNL     1       7.632   5.280  13.917  0.00  0.00    +0.000 A 
ATOM     20  C   UNL     1       7.836   5.252  12.536  0.00  0.00    +0.000 A 
ATOM     21  C   UNL     1       7.131   4.340  11.754  0.00  0.00    +0.000 A 
ATOM     22  C   UNL     1       6.260   3.448  12.366  0.00  0.00    +0.000 A 
ATOM     23  F   UNL     1       5.598   2.557  11.616  0.00  0.00    +0.000 F 
ATOM     24  C   UNL     1       6.051   3.464  13.740  0.00  0.00    +0.000 A 
ENDBRANCH  17  18
ENDBRANCH   6  17
TORSDOF 5
ENDMDL
MODEL 5
REMARK VINA RESULT:      -7.2      1.704      1.997
REMARK  Name = 
REMARK  7 active torsions:
REMARK  status: ('A' for Active; 'I' for Inactive)
REMARK    1  A    between atoms: C_1  and  C_2
REMARK    2  A    between atoms: C_6  and  C_7
REMARK    3  A    between atoms: C_7  and  N_8
REMARK    4  A    between atoms: C_11  and  C_12
REMARK    5  A    between atoms: C_11  and  O_13
REMARK    6  A    between atoms: C_14  and  O_15
REMARK    7  A    between atoms: O_15  and  C_16
REMARK                            x       y       z     vdW  Elec       q    Type
REMARK                         _______ _______ _______ _____ _____    ______ ____
ROOT
ATOM      1  N   UNL     1       4.707   4.191  19.012  0.00  0.00    +0.000 NA
ATOM      2  C   UNL     1       4.457   2.997  19.820  0.00  0.00    +0.000 C 
ATOM      3  C   UNL     1       3.056   2.868  20.443  0.00  0.00    +0.000 C 
ATOM      4  C   UNL     1       1.958   3.252  19.445  0.00  0.00    +0.000 C 
ATOM      5  C   UNL     1       0.556   3.020  20.014  0.00  0.00    +0.000 C 
ATOM      6  C   UNL     1       2.207   4.718  19.017  0.00  0.00    +0.000 C 
ATOM      7  C   UNL     1       3.576   4.803  18.314  0.00  0.00    +0.000 C 
ENDROOT
BRANCH   4   8
ATOM      8  O   UNL     1       2.042   2.395  18.290  0.00  0.00    +0.000 OA
ATOM      9  H   UNL     1       2.878   2.590  17.830  0.00  0.00    +0.000 HD
ENDBRANCH   4   8
BRANCH   1  10
ATOM     10  C   UNL     1       5.927   4.135  18.189  0.00  0.00    +0.000 C 
BRANCH  10  16
ATOM     11  C   UNL     1       5.531   6.241  15.570  0.00  0.00    +0.000 C 
ATOM     12  C   UNL     1       6.431   6.327  16.744  0.00  0.00    +0.000 A 
ATOM     13  N   UNL     1       7.212   7.477  16.812  0.00  0.00    +0.000 NA
ATOM     14  C   UNL     1       7.938   7.478  17.901  0.00  0.00    +0.000 A 
ATOM     15  S   UNL     1       7.770   6.101  18.898  0.00  0.00    +0.000 S 
ATOM     16  C   UNL     1       6.597   5.437  17.804  0.00  0.00    +0.000 A 
ENDBRANCH  10  16
ENDBRANCH   1  10
BRANCH   6  17
ATOM     17  O   UNL     1       2.264   5.624  20.139  0.00  0.00    +0.000 OA
BRANCH  17  18
ATOM     18  C   UNL     1       1.933   6.931  19.942  0.00  0.00    +0.000 A 
ATOM     19  C   UNL     1       1.341   7.569  21.040  0.00  0.00    +0.000 A 
ATOM     20  C   UNL     1       0.890   8.886  20.936  0.00  0.00    +0.000 A 
ATOM     21  C   UNL     1       1.051   9.576  19.737  0.00  0.00    +0.000 A 
ATOM     22  C   UNL     1       1.690   8.953  18.672  0.00  0.00    +0.000 A 
ATOM     23  F   UNL     1       1.862   9.624  17.526  0.00  0.00    +0.000 F 
ATOM     24  C   UNL     1       2.144   7.644  18.764  0.00  0.00    +0.000 A 
ENDBRANCH  17  18
ENDBRANCH   6  17
TORSDOF 5
ENDMDL
MODEL 6
REMARK VINA RESULT:      -7.2      3.269      6.089
REMARK  Name = 
REMARK  7 active torsions:
REMARK  status: ('A' for Active; 'I' for Inactive)
REMARK    1  A    between atoms: C_1  and  C_2
REMARK    2  A    between atoms: C_6  and  C_7
REMARK    3  A    between atoms: C_7  and  N_8
REMARK    4  A    between atoms: C_11  and  C_12
REMARK    5  A    between atoms: C_11  and  O_13
REMARK    6  A    between atoms: C_14  and  O_15
REMARK    7  A    between atoms: O_15  and  C_16
REMARK                            x       y       z     vdW  Elec       q    Type
REMARK                         _______ _______ _______ _____ _____    ______ ____
ROOT
ATOM      1  N   UNL     1       2.077   5.441  19.880  0.00  0.00    +0.000 NA
ATOM      2  C   UNL     1       1.138   4.322  19.799  0.00  0.00    +0.000 C 
ATOM      3  C   UNL     1       1.606   3.087  19.009  0.00  0.00    +0.000 C 
ATOM      4  C   UNL     1       3.060   2.729  19.334  0.00  0.00    +0.000 C 
ATOM      5  C   UNL     1       3.502   1.436  18.643  0.00  0.00    +0.000 C 
ATOM      6  C   UNL     1       3.937   3.948  18.964  0.00  0.00    +0.000 C 
ATOM      7  C   UNL     1       3.510   5.148  19.834  0.00  0.00    +0.000 C 
ENDROOT
BRANCH   4   8
ATOM      8  O   UNL     1       3.182   2.462  20.745  0.00  0.00    +0.000 OA
ATOM      9  H   UNL     1       2.332   2.105  21.059  0.00  0.00    +0.000 HD
ENDBRANCH   4   8
BRANCH   1  10
ATOM     10  C   UNL     1       1.734   6.463  20.884  0.00  0.00    +0.000 C 
BRANCH  10  16
ATOM     11  C   UNL     1       2.402   8.090  17.993  0.00  0.00    +0.000 C 
ATOM     12  C   UNL     1       1.710   8.554  19.218  0.00  0.00    +0.000 A 
ATOM     13  N   UNL     1       1.211   9.852  19.164  0.00  0.00    +0.000 NA
ATOM     14  C   UNL     1       0.584  10.152  20.273  0.00  0.00    +0.000 A 
ATOM     15  S   UNL     1       0.573   8.929  21.465  0.00  0.00    +0.000 S 
ATOM     16  C   UNL     1       1.462   7.876  20.411  0.00  0.00    +0.000 A 
ENDBRANCH  10  16
ENDBRANCH   1  10
BRANCH   6  17
ATOM     17  O   UNL     1       3.771   4.357  17.590  0.00  0.00    +0.000 OA
BRANCH  17  18
ATOM     18  C   UNL     1       4.878   4.692  16.870  0.00  0.00    +0.000 A 
ATOM     19  C   UNL     1       5.076   3.948  15.699  0.00  0.00    +0.000 A 
ATOM     20  C   UNL     1       6.213   4.148  14.915  0.00  0.00    +0.000 A 
ATOM     21  C   UNL     1       7.148   5.111  15.291  0.00  0.00    +0.000 A 
ATOM     22  C   UNL     1       6.915   5.881  16.424  0.00  0.00    +0.000 A 
ATOM     23  F   UNL     1       7.804   6.820  16.773  0.00  0.00    +0.000 F 
ATOM     24  C   UNL     1       5.785   5.692  17.210  0.00  0.00    +0.000 A 
ENDBRANCH  17  18
ENDBRANCH   6  17
TORSDOF 5
ENDMDL
MODEL 7
REMARK VINA RESULT:      -7.2      3.421      6.190
REMARK  Name = 
REMARK  7 active torsions:
REMARK  status: ('A' for Active; 'I' for Inactive)
REMARK    1  A    between atoms: C_1  and  C_2
REMARK    2  A    between atoms: C_6  and  C_7
REMARK    3  A    between atoms: C_7  and  N_8
REMARK    4  A    between atoms: C_11  and  C_12
REMARK    5  A    between atoms: C_11  and  O_13
REMARK    6  A    between atoms: C_14  and  O_15
REMARK    7  A    between atoms: O_15  and  C_16
REMARK                            x       y       z     vdW  Elec       q    Type
REMARK                         _______ _______ _______ _____ _____    ______ ____
ROOT
ATOM      1  N   UNL     1       2.182   5.441  19.774  0.00  0.00    +0.000 NA
ATOM      2  C   UNL     1       1.262   4.304  19.736  0.00  0.00    +0.000 C 
ATOM      3  C   UNL     1       1.726   3.070  18.944  0.00  0.00    +0.000 C 
ATOM      4  C   UNL     1       3.196   2.741  19.222  0.00  0.00    +0.000 C 
ATOM      5  C   UNL     1       3.638   1.449  18.529  0.00  0.00    +0.000 C 
ATOM      6  C   UNL     1       4.037   3.972  18.809  0.00  0.00    +0.000 C 
ATOM      7  C   UNL     1       3.618   5.173  19.681  0.00  0.00    +0.000 C 
ENDROOT
BRANCH   4   8
ATOM      8  O   UNL     1       3.371   2.491  20.630  0.00  0.00    +0.000 OA
ATOM      9  H   UNL     1       3.177   3.317  21.109  0.00  0.00    +0.000 HD
ENDBRANCH   4   8
BRANCH   1  10
ATOM     10  C   UNL     1       1.856   6.467  20.778  0.00  0.00    +0.000 C 
BRANCH  10  16
ATOM     11  C   UNL     1       2.500   8.111  17.891  0.00  0.00    +0.000 C 
ATOM     12  C   UNL     1       1.783   8.555  19.109  0.00  0.00    +0.000 A 
ATOM     13  N   UNL     1       1.246   9.837  19.049  0.00  0.00    +0.000 NA
ATOM     14  C   UNL     1       0.599  10.119  20.152  0.00  0.00    +0.000 A 
ATOM     15  S   UNL     1       0.614   8.897  21.345  0.00  0.00    +0.000 S 
ATOM     16  C   UNL     1       1.545   7.871  20.301  0.00  0.00    +0.000 A 
ENDBRANCH  10  16
ENDBRANCH   1  10
BRANCH   6  17
ATOM     17  O   UNL     1       3.816   4.363  17.438  0.00  0.00    +0.000 OA
BRANCH  17  18
ATOM     18  C   UNL     1       4.892   4.479  16.610  0.00  0.00    +0.000 A 
ATOM     19  C   UNL     1       5.926   5.297  17.084  0.00  0.00    +0.000 A 
ATOM     20  C   UNL     1       7.047   5.553  16.294  0.00  0.00    +0.000 A 
ATOM     21  C   UNL     1       7.146   4.973  15.031  0.00  0.00    +0.000 A 
ATOM     22  C   UNL     1       6.141   4.120  14.592  0.00  0.00    +0.000 A 
ATOM     23  F   UNL     1       6.247   3.546  13.386  0.00  0.00    +0.000 F 
ATOM     24  C   UNL     1       5.022   3.856  15.371  0.00  0.00    +0.000 A 
ENDBRANCH  17  18
ENDBRANCH   6  17
TORSDOF 5
ENDMDL
MODEL 8
REMARK VINA RESULT:      -7.2      3.461      7.128
REMARK  Name = 
REMARK  7 active torsions:
REMARK  status: ('A' for Active; 'I' for Inactive)
REMARK    1  A    between atoms: C_1  and  C_2
REMARK    2  A    between atoms: C_6  and  C_7
REMARK    3  A    between atoms: C_7  and  N_8
REMARK    4  A    between atoms: C_11  and  C_12
REMARK    5  A    between atoms: C_11  and  O_13
REMARK    6  A    between atoms: C_14  and  O_15
REMARK    7  A    between atoms: O_15  and  C_16
REMARK                            x       y       z     vdW  Elec       q    Type
REMARK                         _______ _______ _______ _____ _____    ______ ____
ROOT
ATOM      1  N   UNL     1       5.098   4.014  17.642  0.00  0.00    +0.000 NA
ATOM      2  C   UNL     1       5.882   4.475  18.787  0.00  0.00    +0.000 C 
ATOM      3  C   UNL     1       6.995   5.496  18.493  0.00  0.00    +0.000 C 
ATOM      4  C   UNL     1       6.522   6.578  17.517  0.00  0.00    +0.000 C 
ATOM      5  C   UNL     1       7.581   7.664  17.305  0.00  0.00    +0.000 C 
ATOM      6  C   UNL     1       6.101   5.874  16.206  0.00  0.00    +0.000 C 
ATOM      7  C   UNL     1       4.924   4.925  16.509  0.00  0.00    +0.000 C 
ENDROOT
BRANCH   4   8
ATOM      8  O   UNL     1       5.387   7.265  18.078  0.00  0.00    +0.000 OA
ATOM      9  H   UNL     1       4.584   6.774  17.829  0.00  0.00    +0.000 HD
ENDBRANCH   4   8
BRANCH   1  10
ATOM     10  C   UNL     1       3.863   3.291  17.990  0.00  0.00    +0.000 C 
BRANCH  10  16
ATOM     11  C   UNL     1       2.131   6.154  18.494  0.00  0.00    +0.000 C 
ATOM     12  C   UNL     1       2.294   4.965  19.363  0.00  0.00    +0.000 A 
ATOM     13  N   UNL     1       1.590   5.003  20.562  0.00  0.00    +0.000 NA
ATOM     14  C   UNL     1       1.765   3.895  21.236  0.00  0.00    +0.000 A 
ATOM     15  S   UNL     1       2.803   2.749  20.510  0.00  0.00    +0.000 S 
ATOM     16  C   UNL     1       3.031   3.801  19.148  0.00  0.00    +0.000 A 
ENDBRANCH  10  16
ENDBRANCH   1  10
BRANCH   6  17
ATOM     17  O   UNL     1       7.153   5.059  15.648  0.00  0.00    +0.000 OA
BRANCH  17  18
ATOM     18  C   UNL     1       7.076   4.700  14.336  0.00  0.00    +0.000 A 
ATOM     19  C   UNL     1       7.864   5.461  13.461  0.00  0.00    +0.000 A 
ATOM     20  C   UNL     1       7.814   5.237  12.085  0.00  0.00    +0.000 A 
ATOM     21  C   UNL     1       6.988   4.235  11.580  0.00  0.00    +0.000 A 
ATOM     22  C   UNL     1       6.253   3.450  12.459  0.00  0.00    +0.000 A 
ATOM     23  F   UNL     1       5.475   2.473  11.974  0.00  0.00    +0.000 F 
ATOM     24  C   UNL     1       6.297   3.662  13.831  0.00  0.00    +0.000 A 
ENDBRANCH  17  18
ENDBRANCH   6  17
TORSDOF 5
ENDMDL
MODEL 9
REMARK VINA RESULT:      -7.1      1.369      1.899
REMARK  Name = 
REMARK  7 active torsions:
REMARK  status: ('A' for Active; 'I' for Inactive)
REMARK    1  A    between atoms: C_1  and  C_2
REMARK    2  A    between atoms: C_6  and  C_7
REMARK    3  A    between atoms: C_7  and  N_8
REMARK    4  A    between atoms: C_11  and  C_12
REMARK    5  A    between atoms: C_11  and  O_13
REMARK    6  A    between atoms: C_14  and  O_15
REMARK    7  A    between atoms: O_15  and  C_16
REMARK                            x       y       z     vdW  Elec       q    Type
REMARK                         _______ _______ _______ _____ _____    ______ ____
ROOT
ATOM      1  N   UNL     1       3.982   3.756  18.233  0.00  0.00    +0.000 NA
ATOM      2  C   UNL     1       4.331   2.728  19.214  0.00  0.00    +0.000 C 
ATOM      3  C   UNL     1       3.528   2.728  20.526  0.00  0.00    +0.000 C 
ATOM      4  C   UNL     1       2.033   2.939  20.271  0.00  0.00    +0.000 C 
ATOM      5  C   UNL     1       1.208   2.827  21.556  0.00  0.00    +0.000 C 
ATOM      6  C   UNL     1       1.867   4.302  19.558  0.00  0.00    +0.000 C 
ATOM      7  C   UNL     1       2.603   4.245  18.204  0.00  0.00    +0.000 C 
ENDROOT
BRANCH   4   8
ATOM      8  O   UNL     1       1.541   1.888  19.416  0.00  0.00    +0.000 OA
ATOM      9  H   UNL     1       1.267   1.144  19.981  0.00  0.00    +0.000 HD
ENDBRANCH   4   8
BRANCH   1  10
ATOM     10  C   UNL     1       4.541   3.541  16.888  0.00  0.00    +0.000 C 
BRANCH  10  16
ATOM     11  C   UNL     1       6.163   3.870  13.936  0.00  0.00    +0.000 C 
ATOM     12  C   UNL     1       6.359   4.577  15.223  0.00  0.00    +0.000 A 
ATOM     13  N   UNL     1       7.335   5.569  15.215  0.00  0.00    +0.000 NA
ATOM     14  C   UNL     1       7.402   6.160  16.381  0.00  0.00    +0.000 A 
ATOM     15  S   UNL     1       6.339   5.557  17.574  0.00  0.00    +0.000 S 
ATOM     16  C   UNL     1       5.695   4.413  16.438  0.00  0.00    +0.000 A 
ENDBRANCH  10  16
ENDBRANCH   1  10
BRANCH   6  17
ATOM     17  O   UNL     1       2.452   5.393  20.298  0.00  0.00    +0.000 OA
BRANCH  17  18
ATOM     18  C   UNL     1       2.045   6.664  20.022  0.00  0.00    +0.000 A 
ATOM     19  C   UNL     1       2.400   7.143  18.754  0.00  0.00    +0.000 A 
ATOM     20  C   UNL     1       2.104   8.455  18.383  0.00  0.00    +0.000 A 
ATOM     21  C   UNL     1       1.431   9.288  19.276  0.00  0.00    +0.000 A 
ATOM     22  C   UNL     1       1.035   8.786  20.509  0.00  0.00    +0.000 A 
ATOM     23  F   UNL     1       0.371   9.581  21.358  0.00  0.00    +0.000 F 
ATOM     24  C   UNL     1       1.322   7.481  20.888  0.00  0.00    +0.000 A 
ENDBRANCH  17  18
ENDBRANCH   6  17
TORSDOF 5
ENDMDL
