MODEL 1
REMARK VINA RESULT:      -6.6      0.000      0.000
REMARK  Name = 
REMARK  10 active torsions:
REMARK  status: ('A' for Active; 'I' for Inactive)
REMARK    1  A    between atoms: C_1  and  C_2
REMARK    2  A    between atoms: C_2  and  N_3
REMARK    3  A    between atoms: N_3  and  C_4
REMARK    4  A    between atoms: N_3  and  S_6
REMARK    5  A    between atoms: C_4  and  C_5
REMARK    6  A    between atoms: S_6  and  N_9
REMARK    7  A    between atoms: N_9  and  C_10
REMARK    8  A    between atoms: N_9  and  C_12
REMARK    9  A    between atoms: C_10  and  C_11
REMARK   10  A    between atoms: C_12  and  C_13
REMARK                            x       y       z     vdW  Elec       q    Type
REMARK                         _______ _______ _______ _____ _____    ______ ____
ROOT
ATOM      1  N   UNL     1       5.860   4.297  15.416  0.00  0.00    +0.000 NA
ENDROOT
BRANCH   1   2
ATOM      2  S   UNL     1       7.157   5.120  16.166  0.00  0.00    +0.000 S 
ATOM      3  O   UNL     1       7.812   5.979  15.202  0.00  0.00    +0.000 OA
ATOM      4  O   UNL     1       7.941   4.153  16.899  0.00  0.00    +0.000 OA
BRANCH   2   5
ATOM      5  N   UNL     1       6.421   6.181  17.290  0.00  0.00    +0.000 NA
BRANCH   5   7
ATOM      6  C   UNL     1       7.812   8.291  17.675  0.00  0.00    +0.000 C 
ATOM      7  C   UNL     1       7.491   6.869  18.104  0.00  0.00    +0.000 C 
ENDBRANCH   5   7
BRANCH   5   8
ATOM      8  C   UNL     1       5.343   7.094  16.805  0.00  0.00    +0.000 C 
ATOM      9  C   UNL     1       4.051   7.070  17.605  0.00  0.00    +0.000 C 
ENDBRANCH   5   8
ENDBRANCH   2   5
ENDBRANCH   1   2
BRANCH   1  10
ATOM     10  C   UNL     1       6.171   3.692  14.063  0.00  0.00    +0.000 C 
ATOM     11  C   UNL     1       5.075   3.765  13.021  0.00  0.00    +0.000 C 
ENDBRANCH   1  10
BRANCH   1  12
ATOM     12  C   UNL     1       5.331   3.153  16.250  0.00  0.00    +0.000 C 
BRANCH  12  13
ATOM     13  C   UNL     1       4.211   3.414  17.217  0.00  0.00    +0.000 A 
ATOM     14  C   UNL     1       2.938   3.769  16.755  0.00  0.00    +0.000 A 
ATOM     15  C   UNL     1       1.865   3.855  17.641  0.00  0.00    +0.000 A 
ATOM     16  C   UNL     1       2.051   3.572  18.993  0.00  0.00    +0.000 A 
ATOM     17  C   UNL     1       3.314   3.201  19.462  0.00  0.00    +0.000 A 
ATOM     18  C   UNL     1       4.394   3.145  18.583  0.00  0.00    +0.000 A 
ATOM     19  O   UNL     1       3.563   2.855  20.765  0.00  0.00    +0.000 OA
ATOM     20  C   UNL     1       2.343   2.552  21.459  0.00  0.00    +0.000 C 
ATOM     21  C   UNL     1       1.291   3.611  21.183  0.00  0.00    +0.000 C 
ATOM     22  O   UNL     1       0.943   3.644  19.795  0.00  0.00    +0.000 OA
ENDBRANCH  12  13
ENDBRANCH   1  12
TORSDOF 7
ENDMDL
MODEL 2
REMARK VINA RESULT:      -6.5      3.666      5.537
REMARK  Name = 
REMARK  10 active torsions:
REMARK  status: ('A' for Active; 'I' for Inactive)
REMARK    1  A    between atoms: C_1  and  C_2
REMARK    2  A    between atoms: C_2  and  N_3
REMARK    3  A    between atoms: N_3  and  C_4
REMARK    4  A    between atoms: N_3  and  S_6
REMARK    5  A    between atoms: C_4  and  C_5
REMARK    6  A    between atoms: S_6  and  N_9
REMARK    7  A    between atoms: N_9  and  C_10
REMARK    8  A    between atoms: N_9  and  C_12
REMARK    9  A    between atoms: C_10  and  C_11
REMARK   10  A    between atoms: C_12  and  C_13
REMARK                            x       y       z     vdW  Elec       q    Type
REMARK                         _______ _______ _______ _____ _____    ______ ____
ROOT
ATOM      1  N   UNL     1       2.788   4.530  18.689  0.00  0.00    +0.000 NA
ENDROOT
BRANCH   1   2
ATOM      2  S   UNL     1       4.242   3.683  18.386  0.00  0.00    +0.000 S 
ATOM      3  O   UNL     1       3.984   2.579  17.484  0.00  0.00    +0.000 OA
ATOM      4  O   UNL     1       4.885   3.425  19.653  0.00  0.00    +0.000 OA
BRANCH   2   5
ATOM      5  N   UNL     1       5.217   4.774  17.498  0.00  0.00    +0.000 NA
BRANCH   5   7
ATOM      6  C   UNL     1       7.314   5.964  18.346  0.00  0.00    +0.000 C 
ATOM      7  C   UNL     1       6.650   4.654  17.958  0.00  0.00    +0.000 C 
ENDBRANCH   5   7
BRANCH   5   8
ATOM      8  C   UNL     1       5.056   4.824  16.013  0.00  0.00    +0.000 C 
ATOM      9  C   UNL     1       6.156   4.152  15.209  0.00  0.00    +0.000 C 
ENDBRANCH   5   8
ENDBRANCH   2   5
ENDBRANCH   1   2
BRANCH   1  10
ATOM     10  C   UNL     1       1.627   3.679  19.159  0.00  0.00    +0.000 C 
ATOM     11  C   UNL     1       1.255   3.793  20.624  0.00  0.00    +0.000 C 
ENDBRANCH   1  10
BRANCH   1  12
ATOM     12  C   UNL     1       2.945   5.604  19.740  0.00  0.00    +0.000 C 
BRANCH  12  13
ATOM     13  C   UNL     1       2.468   6.996  19.435  0.00  0.00    +0.000 A 
ATOM     14  C   UNL     1       2.554   7.511  18.136  0.00  0.00    +0.000 A 
ATOM     15  C   UNL     1       1.969   8.738  17.824  0.00  0.00    +0.000 A 
ATOM     16  C   UNL     1       1.279   9.452  18.801  0.00  0.00    +0.000 A 
ATOM     17  C   UNL     1       1.172   8.939  20.097  0.00  0.00    +0.000 A 
ATOM     18  C   UNL     1       1.783   7.729  20.419  0.00  0.00    +0.000 A 
ATOM     19  O   UNL     1       0.465   9.556  21.097  0.00  0.00    +0.000 OA
ATOM     20  C   UNL     1      -0.436  10.536  20.559  0.00  0.00    +0.000 C 
ATOM     21  C   UNL     1       0.268  11.405  19.532  0.00  0.00    +0.000 C 
ATOM     22  O   UNL     1       0.702  10.631  18.409  0.00  0.00    +0.000 OA
ENDBRANCH  12  13
ENDBRANCH   1  12
TORSDOF 7
ENDMDL
MODEL 3
REMARK VINA RESULT:      -6.5      3.711      5.753
REMARK  Name = 
REMARK  10 active torsions:
REMARK  status: ('A' for Active; 'I' for Inactive)
REMARK    1  A    between atoms: C_1  and  C_2
REMARK    2  A    between atoms: C_2  and  N_3
REMARK    3  A    between atoms: N_3  and  C_4
REMARK    4  A    between atoms: N_3  and  S_6
REMARK    5  A    between atoms: C_4  and  C_5
REMARK    6  A    between atoms: S_6  and  N_9
REMARK    7  A    between atoms: N_9  and  C_10
REMARK    8  A    between atoms: N_9  and  C_12
REMARK    9  A    between atoms: C_10  and  C_11
REMARK   10  A    between atoms: C_12  and  C_13
REMARK                            x       y       z     vdW  Elec       q    Type
REMARK                         _______ _______ _______ _____ _____    ______ ____
ROOT
ATOM      1  N   UNL     1       4.301   5.718  18.327  0.00  0.00    +0.000 NA
ENDROOT
BRANCH   1   2
ATOM      2  S   UNL     1       4.493   4.026  18.475  0.00  0.00    +0.000 S 
ATOM      3  O   UNL     1       5.545   3.735  19.428  0.00  0.00    +0.000 OA
ATOM      4  O   UNL     1       4.569   3.463  17.146  0.00  0.00    +0.000 OA
BRANCH   2   5
ATOM      5  N   UNL     1       3.050   3.475  19.212  0.00  0.00    +0.000 NA
BRANCH   5   7
ATOM      6  C   UNL     1       0.865   2.296  18.605  0.00  0.00    +0.000 C 
ATOM      7  C   UNL     1       2.323   2.553  18.263  0.00  0.00    +0.000 C 
ENDBRANCH   5   7
BRANCH   5   8
ATOM      8  C   UNL     1       3.117   2.974  20.618  0.00  0.00    +0.000 C 
ATOM      9  C   UNL     1       2.201   3.672  21.610  0.00  0.00    +0.000 C 
ENDBRANCH   5   8
ENDBRANCH   2   5
ENDBRANCH   1   2
BRANCH   1  10
ATOM     10  C   UNL     1       5.133   6.373  17.245  0.00  0.00    +0.000 C 
ATOM     11  C   UNL     1       6.608   6.552  17.540  0.00  0.00    +0.000 C 
ENDBRANCH   1  10
BRANCH   1  12
ATOM     12  C   UNL     1       2.876   6.122  18.033  0.00  0.00    +0.000 C 
BRANCH  12  13
ATOM     13  C   UNL     1       2.343   7.395  18.625  0.00  0.00    +0.000 A 
ATOM     14  C   UNL     1       2.024   8.485  17.805  0.00  0.00    +0.000 A 
ATOM     15  C   UNL     1       1.384   9.604  18.337  0.00  0.00    +0.000 A 
ATOM     16  C   UNL     1       1.041   9.637  19.686  0.00  0.00    +0.000 A 
ATOM     17  C   UNL     1       1.340   8.548  20.510  0.00  0.00    +0.000 A 
ATOM     18  C   UNL     1       2.008   7.443  19.988  0.00  0.00    +0.000 A 
ATOM     19  O   UNL     1       0.987   8.485  21.834  0.00  0.00    +0.000 OA
ATOM     20  C   UNL     1      -0.026   9.454  22.143  0.00  0.00    +0.000 C 
ATOM     21  C   UNL     1       0.330  10.808  21.556  0.00  0.00    +0.000 C 
ATOM     22  O   UNL     1       0.383  10.755  20.127  0.00  0.00    +0.000 OA
ENDBRANCH  12  13
ENDBRANCH   1  12
TORSDOF 7
ENDMDL
MODEL 4
REMARK VINA RESULT:      -6.5      3.732      5.986
REMARK  Name = 
REMARK  10 active torsions:
REMARK  status: ('A' for Active; 'I' for Inactive)
REMARK    1  A    between atoms: C_1  and  C_2
REMARK    2  A    between atoms: C_2  and  N_3
REMARK    3  A    between atoms: N_3  and  C_4
REMARK    4  A    between atoms: N_3  and  S_6
REMARK    5  A    between atoms: C_4  and  C_5
REMARK    6  A    between atoms: S_6  and  N_9
REMARK    7  A    between atoms: N_9  and  C_10
REMARK    8  A    between atoms: N_9  and  C_12
REMARK    9  A    between atoms: C_10  and  C_11
REMARK   10  A    between atoms: C_12  and  C_13
REMARK                            x       y       z     vdW  Elec       q    Type
REMARK                         _______ _______ _______ _____ _____    ______ ____
ROOT
ATOM      1  N   UNL     1       4.455   5.505  18.536  0.00  0.00    +0.000 NA
ENDROOT
BRANCH   1   2
ATOM      2  S   UNL     1       4.453   3.796  18.590  0.00  0.00    +0.000 S 
ATOM      3  O   UNL     1       5.465   3.336  19.519  0.00  0.00    +0.000 OA
ATOM      4  O   UNL     1       4.463   3.303  17.233  0.00  0.00    +0.000 OA
BRANCH   2   5
ATOM      5  N   UNL     1       2.958   3.374  19.307  0.00  0.00    +0.000 NA
BRANCH   5   7
ATOM      6  C   UNL     1       0.679   2.376  18.718  0.00  0.00    +0.000 C 
ATOM      7  C   UNL     1       2.126   2.601  18.311  0.00  0.00    +0.000 C 
ENDBRANCH   5   7
BRANCH   5   8
ATOM      8  C   UNL     1       2.969   2.784  20.680  0.00  0.00    +0.000 C 
ATOM      9  C   UNL     1       2.129   3.514  21.716  0.00  0.00    +0.000 C 
ENDBRANCH   5   8
ENDBRANCH   2   5
ENDBRANCH   1   2
BRANCH   1  10
ATOM     10  C   UNL     1       5.601   6.129  17.768  0.00  0.00    +0.000 C 
ATOM     11  C   UNL     1       5.304   6.571  16.350  0.00  0.00    +0.000 C 
ENDBRANCH   1  10
BRANCH   1  12
ATOM     12  C   UNL     1       3.202   6.072  17.911  0.00  0.00    +0.000 C 
BRANCH  12  13
ATOM     13  C   UNL     1       2.388   7.069  18.687  0.00  0.00    +0.000 A 
ATOM     14  C   UNL     1       2.104   6.858  20.042  0.00  0.00    +0.000 A 
ATOM     15  C   UNL     1       1.487   7.855  20.796  0.00  0.00    +0.000 A 
ATOM     16  C   UNL     1       1.164   9.076  20.209  0.00  0.00    +0.000 A 
ATOM     17  C   UNL     1       1.458   9.303  18.862  0.00  0.00    +0.000 A 
ATOM     18  C   UNL     1       2.046   8.297  18.098  0.00  0.00    +0.000 A 
ATOM     19  O   UNL     1       1.220  10.497  18.228  0.00  0.00    +0.000 OA
ATOM     20  C   UNL     1       1.013  11.552  19.179  0.00  0.00    +0.000 C 
ATOM     21  C   UNL     1       0.053  11.110  20.270  0.00  0.00    +0.000 C 
ATOM     22  O   UNL     1       0.592  10.018  21.023  0.00  0.00    +0.000 OA
ENDBRANCH  12  13
ENDBRANCH   1  12
TORSDOF 7
ENDMDL
MODEL 5
REMARK VINA RESULT:      -6.4      3.983      6.005
REMARK  Name = 
REMARK  10 active torsions:
REMARK  status: ('A' for Active; 'I' for Inactive)
REMARK    1  A    between atoms: C_1  and  C_2
REMARK    2  A    between atoms: C_2  and  N_3
REMARK    3  A    between atoms: N_3  and  C_4
REMARK    4  A    between atoms: N_3  and  S_6
REMARK    5  A    between atoms: C_4  and  C_5
REMARK    6  A    between atoms: S_6  and  N_9
REMARK    7  A    between atoms: N_9  and  C_10
REMARK    8  A    between atoms: N_9  and  C_12
REMARK    9  A    between atoms: C_10  and  C_11
REMARK   10  A    between atoms: C_12  and  C_13
REMARK                            x       y       z     vdW  Elec       q    Type
REMARK                         _______ _______ _______ _____ _____    ______ ____
ROOT
ATOM      1  N   UNL     1       3.319   5.519  18.605  0.00  0.00    +0.000 NA
ENDROOT
BRANCH   1   2
ATOM      2  S   UNL     1       2.616   4.121  17.917  0.00  0.00    +0.000 S 
ATOM      3  O   UNL     1       3.565   3.486  17.026  0.00  0.00    +0.000 OA
ATOM      4  O   UNL     1       1.307   4.473  17.420  0.00  0.00    +0.000 OA
BRANCH   2   5
ATOM      5  N   UNL     1       2.423   3.031  19.222  0.00  0.00    +0.000 NA
BRANCH   5   7
ATOM      6  C   UNL     1       4.622   2.078  20.112  0.00  0.00    +0.000 C 
ATOM      7  C   UNL     1       3.471   1.947  19.129  0.00  0.00    +0.000 C 
ENDBRANCH   5   7
BRANCH   5   8
ATOM      8  C   UNL     1       2.245   3.590  20.596  0.00  0.00    +0.000 C 
ATOM      9  C   UNL     1       1.347   2.787  21.522  0.00  0.00    +0.000 C 
ENDBRANCH   5   8
ENDBRANCH   2   5
ENDBRANCH   1   2
BRANCH   1  10
ATOM     10  C   UNL     1       4.830   5.507  18.700  0.00  0.00    +0.000 C 
ATOM     11  C   UNL     1       5.581   6.278  17.634  0.00  0.00    +0.000 C 
ENDBRANCH   1  10
BRANCH   1  12
ATOM     12  C   UNL     1       2.979   6.780  17.845  0.00  0.00    +0.000 C 
BRANCH  12  13
ATOM     13  C   UNL     1       2.296   7.905  18.569  0.00  0.00    +0.000 A 
ATOM     14  C   UNL     1       1.834   9.027  17.870  0.00  0.00    +0.000 A 
ATOM     15  C   UNL     1       1.064   9.993  18.517  0.00  0.00    +0.000 A 
ATOM     16  C   UNL     1       0.734   9.838  19.861  0.00  0.00    +0.000 A 
ATOM     17  C   UNL     1       1.177   8.714  20.564  0.00  0.00    +0.000 A 
ATOM     18  C   UNL     1       1.973   7.764  19.929  0.00  0.00    +0.000 A 
ATOM     19  O   UNL     1       0.849   8.466  21.873  0.00  0.00    +0.000 OA
ATOM     20  C   UNL     1      -0.275   9.260  22.282  0.00  0.00    +0.000 C 
ATOM     21  C   UNL     1      -0.099  10.704  21.844  0.00  0.00    +0.000 C 
ATOM     22  O   UNL     1      -0.055  10.810  20.418  0.00  0.00    +0.000 OA
ENDBRANCH  12  13
ENDBRANCH   1  12
TORSDOF 7
ENDMDL
MODEL 6
REMARK VINA RESULT:      -6.3      3.886      5.703
REMARK  Name = 
REMARK  10 active torsions:
REMARK  status: ('A' for Active; 'I' for Inactive)
REMARK    1  A    between atoms: C_1  and  C_2
REMARK    2  A    between atoms: C_2  and  N_3
REMARK    3  A    between atoms: N_3  and  C_4
REMARK    4  A    between atoms: N_3  and  S_6
REMARK    5  A    between atoms: C_4  and  C_5
REMARK    6  A    between atoms: S_6  and  N_9
REMARK    7  A    between atoms: N_9  and  C_10
REMARK    8  A    between atoms: N_9  and  C_12
REMARK    9  A    between atoms: C_10  and  C_11
REMARK   10  A    between atoms: C_12  and  C_13
REMARK                            x       y       z     vdW  Elec       q    Type
REMARK                         _______ _______ _______ _____ _____    ______ ____
ROOT
ATOM      1  N   UNL     1       3.208   5.468  18.227  0.00  0.00    +0.000 NA
ENDROOT
BRANCH   1   2
ATOM      2  S   UNL     1       4.754   4.774  18.447  0.00  0.00    +0.000 S 
ATOM      3  O   UNL     1       4.696   3.354  18.164  0.00  0.00    +0.000 OA
ATOM      4  O   UNL     1       5.273   5.220  19.719  0.00  0.00    +0.000 OA
BRANCH   2   5
ATOM      5  N   UNL     1       5.724   5.441  17.204  0.00  0.00    +0.000 NA
BRANCH   5   7
ATOM      6  C   UNL     1       6.316   4.142  15.084  0.00  0.00    +0.000 C 
ATOM      7  C   UNL     1       5.264   4.908  15.868  0.00  0.00    +0.000 C 
ENDBRANCH   5   7
BRANCH   5   8
ATOM      8  C   UNL     1       5.981   6.913  17.217  0.00  0.00    +0.000 C 
ATOM      9  C   UNL     1       7.424   7.327  17.456  0.00  0.00    +0.000 C 
ENDBRANCH   5   8
ENDBRANCH   2   5
ENDBRANCH   1   2
BRANCH   1  10
ATOM     10  C   UNL     1       2.101   4.493  17.887  0.00  0.00    +0.000 C 
ATOM     11  C   UNL     1       1.318   3.924  19.053  0.00  0.00    +0.000 C 
ENDBRANCH   1  10
BRANCH   1  12
ATOM     12  C   UNL     1       2.721   6.211  19.449  0.00  0.00    +0.000 C 
BRANCH  12  13
ATOM     13  C   UNL     1       2.235   7.624  19.297  0.00  0.00    +0.000 A 
ATOM     14  C   UNL     1       2.293   8.269  18.055  0.00  0.00    +0.000 A 
ATOM     15  C   UNL     1       1.699   9.518  17.881  0.00  0.00    +0.000 A 
ATOM     16  C   UNL     1       1.027  10.126  18.939  0.00  0.00    +0.000 A 
ATOM     17  C   UNL     1       0.948   9.484  20.178  0.00  0.00    +0.000 A 
ATOM     18  C   UNL     1       1.569   8.251  20.363  0.00  0.00    +0.000 A 
ATOM     19  O   UNL     1       0.260   9.994  21.249  0.00  0.00    +0.000 OA
ATOM     20  C   UNL     1      -0.654  11.019  20.832  0.00  0.00    +0.000 C 
ATOM     21  C   UNL     1       0.026  11.991  19.884  0.00  0.00    +0.000 C 
ATOM     22  O   UNL     1       0.439  11.336  18.680  0.00  0.00    +0.000 OA
ENDBRANCH  12  13
ENDBRANCH   1  12
TORSDOF 7
ENDMDL
MODEL 7
REMARK VINA RESULT:      -6.3      3.662      5.840
REMARK  Name = 
REMARK  10 active torsions:
REMARK  status: ('A' for Active; 'I' for Inactive)
REMARK    1  A    between atoms: C_1  and  C_2
REMARK    2  A    between atoms: C_2  and  N_3
REMARK    3  A    between atoms: N_3  and  C_4
REMARK    4  A    between atoms: N_3  and  S_6
REMARK    5  A    between atoms: C_4  and  C_5
REMARK    6  A    between atoms: S_6  and  N_9
REMARK    7  A    between atoms: N_9  and  C_10
REMARK    8  A    between atoms: N_9  and  C_12
REMARK    9  A    between atoms: C_10  and  C_11
REMARK   10  A    between atoms: C_12  and  C_13
REMARK                            x       y       z     vdW  Elec       q    Type
REMARK                         _______ _______ _______ _____ _____    ______ ____
ROOT
ATOM      1  N   UNL     1       4.716   6.123  18.128  0.00  0.00    +0.000 NA
ENDROOT
BRANCH   1   2
ATOM      2  S   UNL     1       4.894   4.426  18.230  0.00  0.00    +0.000 S 
ATOM      3  O   UNL     1       5.737   4.091  19.359  0.00  0.00    +0.000 OA
ATOM      4  O   UNL     1       5.239   3.929  16.919  0.00  0.00    +0.000 OA
BRANCH   2   5
ATOM      5  N   UNL     1       3.339   3.838  18.638  0.00  0.00    +0.000 NA
BRANCH   5   7
ATOM      6  C   UNL     1       3.557   1.305  18.371  0.00  0.00    +0.000 C 
ATOM      7  C   UNL     1       3.032   2.615  17.808  0.00  0.00    +0.000 C 
ENDBRANCH   5   7
BRANCH   5   8
ATOM      8  C   UNL     1       2.989   3.697  20.084  0.00  0.00    +0.000 C 
ATOM      9  C   UNL     1       1.505   3.614  20.397  0.00  0.00    +0.000 C 
ENDBRANCH   5   8
ENDBRANCH   2   5
ENDBRANCH   1   2
BRANCH   1  10
ATOM     10  C   UNL     1       5.724   6.829  17.247  0.00  0.00    +0.000 C 
ATOM     11  C   UNL     1       7.169   6.786  17.702  0.00  0.00    +0.000 C 
ENDBRANCH   1  10
BRANCH   1  12
ATOM     12  C   UNL     1       3.364   6.539  17.597  0.00  0.00    +0.000 C 
BRANCH  12  13
ATOM     13  C   UNL     1       2.477   7.395  18.456  0.00  0.00    +0.000 A 
ATOM     14  C   UNL     1       2.286   7.092  19.809  0.00  0.00    +0.000 A 
ATOM     15  C   UNL     1       1.592   7.973  20.639  0.00  0.00    +0.000 A 
ATOM     16  C   UNL     1       1.099   9.171  20.127  0.00  0.00    +0.000 A 
ATOM     17  C   UNL     1       1.297   9.491  18.781  0.00  0.00    +0.000 A 
ATOM     18  C   UNL     1       1.962   8.598  17.944  0.00  0.00    +0.000 A 
ATOM     19  O   UNL     1       0.888  10.673  18.219  0.00  0.00    +0.000 OA
ATOM     20  C   UNL     1       0.605  11.653  19.229  0.00  0.00    +0.000 C 
ATOM     21  C   UNL     1      -0.242  11.051  20.337  0.00  0.00    +0.000 C 
ATOM     22  O   UNL     1       0.459  10.000  21.011  0.00  0.00    +0.000 OA
ENDBRANCH  12  13
ENDBRANCH   1  12
TORSDOF 7
ENDMDL
MODEL 8
REMARK VINA RESULT:      -6.2      2.609      6.699
REMARK  Name = 
REMARK  10 active torsions:
REMARK  status: ('A' for Active; 'I' for Inactive)
REMARK    1  A    between atoms: C_1  and  C_2
REMARK    2  A    between atoms: C_2  and  N_3
REMARK    3  A    between atoms: N_3  and  C_4
REMARK    4  A    between atoms: N_3  and  S_6
REMARK    5  A    between atoms: C_4  and  C_5
REMARK    6  A    between atoms: S_6  and  N_9
REMARK    7  A    between atoms: N_9  and  C_10
REMARK    8  A    between atoms: N_9  and  C_12
REMARK    9  A    between atoms: C_10  and  C_11
REMARK   10  A    between atoms: C_12  and  C_13
REMARK                            x       y       z     vdW  Elec       q    Type
REMARK                         _______ _______ _______ _____ _____    ______ ____
ROOT
ATOM      1  N   UNL     1       2.636   5.789  18.594  0.00  0.00    +0.000 NA
ENDROOT
BRANCH   1   2
ATOM      2  S   UNL     1       1.568   4.543  19.072  0.00  0.00    +0.000 S 
ATOM      3  O   UNL     1       0.915   3.986  17.905  0.00  0.00    +0.000 OA
ATOM      4  O   UNL     1       0.761   5.035  20.164  0.00  0.00    +0.000 OA
BRANCH   2   5
ATOM      5  N   UNL     1       2.575   3.293  19.665  0.00  0.00    +0.000 NA
BRANCH   5   7
ATOM      6  C   UNL     1       1.437   2.381  21.764  0.00  0.00    +0.000 C 
ATOM      7  C   UNL     1       2.514   3.275  21.174  0.00  0.00    +0.000 C 
ENDBRANCH   5   7
BRANCH   5   8
ATOM      8  C   UNL     1       2.478   1.942  19.035  0.00  0.00    +0.000 C 
ATOM      9  C   UNL     1       3.768   1.397  18.445  0.00  0.00    +0.000 C 
ENDBRANCH   5   8
ENDBRANCH   2   5
ENDBRANCH   1   2
BRANCH   1  10
ATOM     10  C   UNL     1       2.445   7.114  19.300  0.00  0.00    +0.000 C 
ATOM     11  C   UNL     1       2.043   8.290  18.434  0.00  0.00    +0.000 C 
ENDBRANCH   1  10
BRANCH   1  12
ATOM     12  C   UNL     1       4.088   5.430  18.810  0.00  0.00    +0.000 C 
BRANCH  12  13
ATOM     13  C   UNL     1       5.042   5.526  17.654  0.00  0.00    +0.000 A 
ATOM     14  C   UNL     1       6.330   6.044  17.833  0.00  0.00    +0.000 A 
ATOM     15  C   UNL     1       7.264   5.987  16.799  0.00  0.00    +0.000 A 
ATOM     16  C   UNL     1       6.925   5.397  15.584  0.00  0.00    +0.000 A 
ATOM     17  C   UNL     1       5.647   4.861  15.400  0.00  0.00    +0.000 A 
ATOM     18  C   UNL     1       4.703   4.946  16.420  0.00  0.00    +0.000 A 
ATOM     19  O   UNL     1       5.257   4.218  14.253  0.00  0.00    +0.000 OA
ATOM     20  C   UNL     1       6.395   3.833  13.467  0.00  0.00    +0.000 C 
ATOM     21  C   UNL     1       7.379   4.982  13.349  0.00  0.00    +0.000 C 
ATOM     22  O   UNL     1       7.906   5.346  14.629  0.00  0.00    +0.000 OA
ENDBRANCH  12  13
ENDBRANCH   1  12
TORSDOF 7
ENDMDL
MODEL 9
REMARK VINA RESULT:      -6.2      3.566      5.581
REMARK  Name = 
REMARK  10 active torsions:
REMARK  status: ('A' for Active; 'I' for Inactive)
REMARK    1  A    between atoms: C_1  and  C_2
REMARK    2  A    between atoms: C_2  and  N_3
REMARK    3  A    between atoms: N_3  and  C_4
REMARK    4  A    between atoms: N_3  and  S_6
REMARK    5  A    between atoms: C_4  and  C_5
REMARK    6  A    between atoms: S_6  and  N_9
REMARK    7  A    between atoms: N_9  and  C_10
REMARK    8  A    between atoms: N_9  and  C_12
REMARK    9  A    between atoms: C_10  and  C_11
REMARK   10  A    between atoms: C_12  and  C_13
REMARK                            x       y       z     vdW  Elec       q    Type
REMARK                         _______ _______ _______ _____ _____    ______ ____
ROOT
ATOM      1  N   UNL     1       2.812   4.476  18.546  0.00  0.00    +0.000 NA
ENDROOT
BRANCH   1   2
ATOM      2  S   UNL     1       4.280   3.648  18.262  0.00  0.00    +0.000 S 
ATOM      3  O   UNL     1       4.022   2.446  17.497  0.00  0.00    +0.000 OA
ATOM      4  O   UNL     1       4.992   3.549  19.515  0.00  0.00    +0.000 OA
BRANCH   2   5
ATOM      5  N   UNL     1       5.172   4.667  17.215  0.00  0.00    +0.000 NA
BRANCH   5   7
ATOM      6  C   UNL     1       6.491   6.856  17.260  0.00  0.00    +0.000 C 
ATOM      7  C   UNL     1       5.960   5.661  18.034  0.00  0.00    +0.000 C 
ENDBRANCH   5   7
BRANCH   5   8
ATOM      8  C   UNL     1       5.949   4.039  16.104  0.00  0.00    +0.000 C 
ATOM      9  C   UNL     1       5.488   4.387  14.699  0.00  0.00    +0.000 C 
ENDBRANCH   5   8
ENDBRANCH   2   5
ENDBRANCH   1   2
BRANCH   1  10
ATOM     10  C   UNL     1       1.590   3.595  18.703  0.00  0.00    +0.000 C 
ATOM     11  C   UNL     1       1.122   3.334  20.120  0.00  0.00    +0.000 C 
ENDBRANCH   1  10
BRANCH   1  12
ATOM     12  C   UNL     1       2.851   5.326  19.794  0.00  0.00    +0.000 C 
BRANCH  12  13
ATOM     13  C   UNL     1       2.177   6.669  19.782  0.00  0.00    +0.000 A 
ATOM     14  C   UNL     1       1.513   7.144  20.920  0.00  0.00    +0.000 A 
ATOM     15  C   UNL     1       1.026   8.450  20.958  0.00  0.00    +0.000 A 
ATOM     16  C   UNL     1       1.214   9.298  19.869  0.00  0.00    +0.000 A 
ATOM     17  C   UNL     1       1.890   8.839  18.735  0.00  0.00    +0.000 A 
ATOM     18  C   UNL     1       2.349   7.525  18.682  0.00  0.00    +0.000 A 
ATOM     19  O   UNL     1       2.160   9.629  17.647  0.00  0.00    +0.000 OA
ATOM     20  C   UNL     1       2.021  11.020  17.974  0.00  0.00    +0.000 C 
ATOM     21  C   UNL     1       0.733  11.265  18.740  0.00  0.00    +0.000 C 
ATOM     22  O   UNL     1       0.739  10.577  19.995  0.00  0.00    +0.000 OA
ENDBRANCH  12  13
ENDBRANCH   1  12
TORSDOF 7
ENDMDL
