MODEL 1
REMARK VINA RESULT:      -8.4      0.000      0.000
REMARK  Name = 
REMARK  11 active torsions:
REMARK  status: ('A' for Active; 'I' for Inactive)
REMARK    1  A    between atoms: C_1  and  O_2
REMARK    2  A    between atoms: O_2  and  C_3
REMARK    3  A    between atoms: C_5  and  C_6
REMARK    4  A    between atoms: N_7  and  N_8
REMARK    5  A    between atoms: C_9  and  C_11
REMARK    6  A    between atoms: C_11  and  O_12
REMARK    7  A    between atoms: C_11  and  C_14
REMARK    8  A    between atoms: O_12  and  C_13
REMARK    9  A    between atoms: C_25  and  O_26
REMARK   10  A    between atoms: O_26  and  C_27
REMARK   11  A    between atoms: C_28  and  C_29
REMARK                            x       y       z     vdW  Elec       q    Type
REMARK                         _______ _______ _______ _____ _____    ______ ____
ROOT
ATOM      1  N   UNL     1       7.370   7.815  17.212  0.00  0.00    +0.000 N 
ATOM      2  C   UNL     1       7.212   6.525  17.719  0.00  0.00    +0.000 C 
ATOM      3  O   UNL     1       7.523   6.172  18.860  0.00  0.00    +0.000 OA
ATOM      4  H   UNL     1       7.102   8.021  16.257  0.00  0.00    +0.000 HD
ENDROOT
BRANCH   1   6
ATOM      5  C   UNL     1       8.663   9.672  17.511  0.00  0.00    +0.000 C 
ATOM      6  N   UNL     1       7.871   8.787  18.025  0.00  0.00    +0.000 NA
BRANCH   5   9
ATOM      7  C   UNL     1      10.422  12.839  18.553  0.00  0.00    +0.000 A 
ATOM      8  C   UNL     1       9.915  11.798  17.773  0.00  0.00    +0.000 A 
ATOM      9  C   UNL     1       9.225  10.745  18.367  0.00  0.00    +0.000 A 
ATOM     10  C   UNL     1       9.074  10.733  19.755  0.00  0.00    +0.000 A 
ATOM     11  C   UNL     1       9.603  11.763  20.571  0.00  0.00    +0.000 A 
ATOM     12  C   UNL     1      10.291  12.838  19.968  0.00  0.00    +0.000 A 
ATOM     13  C   UNL     1      10.916  14.028  20.655  0.00  0.00    +0.000 C 
BRANCH   7  15
ATOM     14  C   UNL     1      12.183  13.539  17.116  0.00  0.00    +0.000 C 
ATOM     15  O   UNL     1      11.115  13.891  17.994  0.00  0.00    +0.000 OA
ENDBRANCH   7  15
BRANCH  11  16
ATOM     16  O   UNL     1       9.326  11.496  21.885  0.00  0.00    +0.000 OA
ATOM     17  C   UNL     1       8.130  11.930  22.504  0.00  0.00    +0.000 C 
ENDBRANCH  11  16
ENDBRANCH   5   9
ENDBRANCH   1   6
BRANCH   2  18
ATOM     18  C   UNL     1       6.583   5.520  16.710  0.00  0.00    +0.000 C 
BRANCH  18  19
ATOM     19  C   UNL     1       5.109   5.336  17.047  0.00  0.00    +0.000 A 
ATOM     20  C   UNL     1       4.273   6.372  17.498  0.00  0.00    +0.000 A 
ATOM     21  C   UNL     1       3.039   6.072  18.091  0.00  0.00    +0.000 A 
ATOM     22  C   UNL     1       2.649   4.740  18.242  0.00  0.00    +0.000 A 
ATOM     23  C   UNL     1       3.403   3.733  17.648  0.00  0.00    +0.000 A 
ATOM     24  C   UNL     1       4.609   4.026  17.031  0.00  0.00    +0.000 A 
ATOM     25  O   UNL     1       3.049   2.415  17.732  0.00  0.00    +0.000 OA
ATOM     26  C   UNL     1       2.605   2.196  19.067  0.00  0.00    +0.000 C 
ATOM     27  C   UNL     1       1.420   3.098  19.405  0.00  0.00    +0.000 C 
ATOM     28  O   UNL     1       1.566   4.484  19.031  0.00  0.00    +0.000 OA
ENDBRANCH  18  19
BRANCH  18  29
ATOM     29  O   UNL     1       6.799   5.967  15.369  0.00  0.00    +0.000 OA
ATOM     30  C   UNL     1       6.862   4.853  14.473  0.00  0.00    +0.000 C 
ENDBRANCH  18  29
ENDBRANCH   2  18
TORSDOF 7
ENDMDL
MODEL 2
REMARK VINA RESULT:      -8.3      1.015      1.025
REMARK  Name = 
REMARK  11 active torsions:
REMARK  status: ('A' for Active; 'I' for Inactive)
REMARK    1  A    between atoms: C_1  and  O_2
REMARK    2  A    between atoms: O_2  and  C_3
REMARK    3  A    between atoms: C_5  and  C_6
REMARK    4  A    between atoms: N_7  and  N_8
REMARK    5  A    between atoms: C_9  and  C_11
REMARK    6  A    between atoms: C_11  and  O_12
REMARK    7  A    between atoms: C_11  and  C_14
REMARK    8  A    between atoms: O_12  and  C_13
REMARK    9  A    between atoms: C_25  and  O_26
REMARK   10  A    between atoms: O_26  and  C_27
REMARK   11  A    between atoms: C_28  and  C_29
REMARK                            x       y       z     vdW  Elec       q    Type
REMARK                         _______ _______ _______ _____ _____    ______ ____
ROOT
ATOM      1  N   UNL     1       7.423   7.145  17.544  0.00  0.00    +0.000 N 
ATOM      2  C   UNL     1       7.290   5.855  18.059  0.00  0.00    +0.000 C 
ATOM      3  O   UNL     1       7.890   5.424  19.048  0.00  0.00    +0.000 OA
ATOM      4  H   UNL     1       6.905   7.417  16.717  0.00  0.00    +0.000 HD
ENDROOT
BRANCH   1   6
ATOM      5  C   UNL     1       8.223   9.266  17.806  0.00  0.00    +0.000 C 
ATOM      6  N   UNL     1       8.243   8.028  18.180  0.00  0.00    +0.000 NA
BRANCH   5   9
ATOM      7  C   UNL     1      10.875  11.892  18.335  0.00  0.00    +0.000 A 
ATOM      8  C   UNL     1      10.061  10.931  17.732  0.00  0.00    +0.000 A 
ATOM      9  C   UNL     1       9.101  10.255  18.479  0.00  0.00    +0.000 A 
ATOM     10  C   UNL     1       8.985  10.532  19.843  0.00  0.00    +0.000 A 
ATOM     11  C   UNL     1       9.818  11.482  20.483  0.00  0.00    +0.000 A 
ATOM     12  C   UNL     1      10.783  12.179  19.724  0.00  0.00    +0.000 A 
ATOM     13  C   UNL     1      11.752  13.228  20.211  0.00  0.00    +0.000 C 
BRANCH   7  15
ATOM     14  C   UNL     1      11.361  13.443  16.598  0.00  0.00    +0.000 C 
ATOM     15  O   UNL     1      11.839  12.573  17.622  0.00  0.00    +0.000 OA
ENDBRANCH   7  15
BRANCH  11  16
ATOM     16  O   UNL     1       9.504  11.546  21.814  0.00  0.00    +0.000 OA
ATOM     17  C   UNL     1       8.226  11.951  22.266  0.00  0.00    +0.000 C 
ENDBRANCH  11  16
ENDBRANCH   5   9
ENDBRANCH   1   6
BRANCH   2  18
ATOM     18  C   UNL     1       6.287   4.960  17.274  0.00  0.00    +0.000 C 
BRANCH  18  19
ATOM     19  C   UNL     1       4.923   5.038  17.945  0.00  0.00    +0.000 A 
ATOM     20  C   UNL     1       4.692   5.668  19.181  0.00  0.00    +0.000 A 
ATOM     21  C   UNL     1       3.504   5.422  19.883  0.00  0.00    +0.000 A 
ATOM     22  C   UNL     1       2.557   4.542  19.357  0.00  0.00    +0.000 A 
ATOM     23  C   UNL     1       2.718   4.052  18.066  0.00  0.00    +0.000 A 
ATOM     24  C   UNL     1       3.876   4.317  17.351  0.00  0.00    +0.000 A 
ATOM     25  O   UNL     1       1.805   3.216  17.487  0.00  0.00    +0.000 OA
ATOM     26  C   UNL     1       1.407   2.288  18.491  0.00  0.00    +0.000 C 
ATOM     27  C   UNL     1       0.799   3.008  19.692  0.00  0.00    +0.000 C 
ATOM     28  O   UNL     1       1.538   4.148  20.175  0.00  0.00    +0.000 OA
ENDBRANCH  18  19
BRANCH  18  29
ATOM     29  O   UNL     1       6.256   5.344  15.897  0.00  0.00    +0.000 OA
ATOM     30  C   UNL     1       6.785   4.299  15.074  0.00  0.00    +0.000 C 
ENDBRANCH  18  29
ENDBRANCH   2  18
TORSDOF 7
ENDMDL
MODEL 3
REMARK VINA RESULT:      -8.0      0.888      2.504
REMARK  Name = 
REMARK  11 active torsions:
REMARK  status: ('A' for Active; 'I' for Inactive)
REMARK    1  A    between atoms: C_1  and  O_2
REMARK    2  A    between atoms: O_2  and  C_3
REMARK    3  A    between atoms: C_5  and  C_6
REMARK    4  A    between atoms: N_7  and  N_8
REMARK    5  A    between atoms: C_9  and  C_11
REMARK    6  A    between atoms: C_11  and  O_12
REMARK    7  A    between atoms: C_11  and  C_14
REMARK    8  A    between atoms: O_12  and  C_13
REMARK    9  A    between atoms: C_25  and  O_26
REMARK   10  A    between atoms: O_26  and  C_27
REMARK   11  A    between atoms: C_28  and  C_29
REMARK                            x       y       z     vdW  Elec       q    Type
REMARK                         _______ _______ _______ _____ _____    ______ ____
ROOT
ATOM      1  N   UNL     1       7.422   7.307  17.153  0.00  0.00    +0.000 N 
ATOM      2  C   UNL     1       7.285   6.007  17.641  0.00  0.00    +0.000 C 
ATOM      3  O   UNL     1       7.915   5.542  18.596  0.00  0.00    +0.000 OA
ATOM      4  H   UNL     1       6.878   7.608  16.353  0.00  0.00    +0.000 HD
ENDROOT
BRANCH   1   6
ATOM      5  C   UNL     1       8.057   9.431  17.696  0.00  0.00    +0.000 C 
ATOM      6  N   UNL     1       8.283   8.159  17.778  0.00  0.00    +0.000 NA
BRANCH   5   9
ATOM      7  C   UNL     1       9.715  11.473  20.396  0.00  0.00    +0.000 A 
ATOM      8  C   UNL     1       8.843  10.605  19.736  0.00  0.00    +0.000 A 
ATOM      9  C   UNL     1       8.972  10.387  18.367  0.00  0.00    +0.000 A 
ATOM     10  C   UNL     1       9.966  11.069  17.663  0.00  0.00    +0.000 A 
ATOM     11  C   UNL     1      10.845  11.975  18.306  0.00  0.00    +0.000 A 
ATOM     12  C   UNL     1      10.724  12.188  19.696  0.00  0.00    +0.000 A 
ATOM     13  C   UNL     1      11.561  13.097  20.562  0.00  0.00    +0.000 C 
BRANCH   7  15
ATOM     14  C   UNL     1       8.282  11.879  22.251  0.00  0.00    +0.000 C 
ATOM     15  O   UNL     1       9.607  11.714  21.749  0.00  0.00    +0.000 OA
ENDBRANCH   7  15
BRANCH  11  16
ATOM     16  O   UNL     1      11.705  12.512  17.385  0.00  0.00    +0.000 OA
ATOM     17  C   UNL     1      11.485  13.782  16.803  0.00  0.00    +0.000 C 
ENDBRANCH  11  16
ENDBRANCH   5   9
ENDBRANCH   1   6
BRANCH   2  18
ATOM     18  C   UNL     1       6.237   5.149  16.875  0.00  0.00    +0.000 C 
BRANCH  18  19
ATOM     19  C   UNL     1       4.906   5.217  17.611  0.00  0.00    +0.000 A 
ATOM     20  C   UNL     1       4.713   5.913  18.817  0.00  0.00    +0.000 A 
ATOM     21  C   UNL     1       3.573   5.668  19.595  0.00  0.00    +0.000 A 
ATOM     22  C   UNL     1       2.637   4.722  19.174  0.00  0.00    +0.000 A 
ATOM     23  C   UNL     1       2.752   4.160  17.907  0.00  0.00    +0.000 A 
ATOM     24  C   UNL     1       3.861   4.423  17.117  0.00  0.00    +0.000 A 
ATOM     25  O   UNL     1       1.845   3.256  17.427  0.00  0.00    +0.000 OA
ATOM     26  C   UNL     1       1.537   2.378  18.505  0.00  0.00    +0.000 C 
ATOM     27  C   UNL     1       0.961   3.147  19.691  0.00  0.00    +0.000 C 
ATOM     28  O   UNL     1       1.677   4.341  20.066  0.00  0.00    +0.000 OA
ENDBRANCH  18  19
BRANCH  18  29
ATOM     29  O   UNL     1       6.147   5.580  15.514  0.00  0.00    +0.000 OA
ATOM     30  C   UNL     1       6.830   4.665  14.652  0.00  0.00    +0.000 C 
ENDBRANCH  18  29
ENDBRANCH   2  18
TORSDOF 7
ENDMDL
MODEL 4
REMARK VINA RESULT:      -7.6      5.601      7.819
REMARK  Name = 
REMARK  11 active torsions:
REMARK  status: ('A' for Active; 'I' for Inactive)
REMARK    1  A    between atoms: C_1  and  O_2
REMARK    2  A    between atoms: O_2  and  C_3
REMARK    3  A    between atoms: C_5  and  C_6
REMARK    4  A    between atoms: N_7  and  N_8
REMARK    5  A    between atoms: C_9  and  C_11
REMARK    6  A    between atoms: C_11  and  O_12
REMARK    7  A    between atoms: C_11  and  C_14
REMARK    8  A    between atoms: O_12  and  C_13
REMARK    9  A    between atoms: C_25  and  O_26
REMARK   10  A    between atoms: O_26  and  C_27
REMARK   11  A    between atoms: C_28  and  C_29
REMARK                            x       y       z     vdW  Elec       q    Type
REMARK                         _______ _______ _______ _____ _____    ______ ____
ROOT
ATOM      1  N   UNL     1       1.957   6.839  20.651  0.00  0.00    +0.000 N 
ATOM      2  C   UNL     1       2.440   6.355  19.434  0.00  0.00    +0.000 C 
ATOM      3  O   UNL     1       2.611   7.038  18.421  0.00  0.00    +0.000 OA
ATOM      4  H   UNL     1       1.830   6.208  21.434  0.00  0.00    +0.000 HD
ENDROOT
BRANCH   1   6
ATOM      5  C   UNL     1       0.580   8.516  21.358  0.00  0.00    +0.000 C 
ATOM      6  N   UNL     1       1.678   8.167  20.768  0.00  0.00    +0.000 NA
BRANCH   5   9
ATOM      7  C   UNL     1       0.514  12.235  20.749  0.00  0.00    +0.000 A 
ATOM      8  C   UNL     1       0.840  10.881  20.654  0.00  0.00    +0.000 A 
ATOM      9  C   UNL     1       0.246   9.953  21.505  0.00  0.00    +0.000 A 
ATOM     10  C   UNL     1      -0.657  10.403  22.471  0.00  0.00    +0.000 A 
ATOM     11  C   UNL     1      -0.982  11.775  22.607  0.00  0.00    +0.000 A 
ATOM     12  C   UNL     1      -0.391  12.714  21.735  0.00  0.00    +0.000 A 
ATOM     13  C   UNL     1      -0.610  14.207  21.709  0.00  0.00    +0.000 C 
BRANCH   7  15
ATOM     14  C   UNL     1       1.908  12.669  18.871  0.00  0.00    +0.000 C 
ATOM     15  O   UNL     1       1.091  13.177  19.925  0.00  0.00    +0.000 OA
ENDBRANCH   7  15
BRANCH  11  16
ATOM     16  O   UNL     1      -1.873  11.937  23.634  0.00  0.00    +0.000 OA
ATOM     17  C   UNL     1      -3.222  12.299  23.408  0.00  0.00    +0.000 C 
ENDBRANCH  11  16
ENDBRANCH   5   9
ENDBRANCH   1   6
BRANCH   2  18
ATOM     18  C   UNL     1       2.769   4.833  19.443  0.00  0.00    +0.000 C 
BRANCH  18  19
ATOM     19  C   UNL     1       4.130   4.616  18.797  0.00  0.00    +0.000 A 
ATOM     20  C   UNL     1       5.340   5.078  19.343  0.00  0.00    +0.000 A 
ATOM     21  C   UNL     1       6.494   5.131  18.550  0.00  0.00    +0.000 A 
ATOM     22  C   UNL     1       6.435   4.734  17.214  0.00  0.00    +0.000 A 
ATOM     23  C   UNL     1       5.282   4.127  16.728  0.00  0.00    +0.000 A 
ATOM     24  C   UNL     1       4.145   4.042  17.517  0.00  0.00    +0.000 A 
ATOM     25  O   UNL     1       5.180   3.686  15.438  0.00  0.00    +0.000 OA
ATOM     26  C   UNL     1       5.790   4.678  14.618  0.00  0.00    +0.000 C 
ATOM     27  C   UNL     1       7.251   4.888  15.007  0.00  0.00    +0.000 C 
ATOM     28  O   UNL     1       7.507   5.024  16.420  0.00  0.00    +0.000 OA
ENDBRANCH  18  19
BRANCH  18  29
ATOM     29  O   UNL     1       2.694   4.321  20.777  0.00  0.00    +0.000 OA
ATOM     30  C   UNL     1       2.521   2.900  20.758  0.00  0.00    +0.000 C 
ENDBRANCH  18  29
ENDBRANCH   2  18
TORSDOF 7
ENDMDL
MODEL 5
REMARK VINA RESULT:      -7.5      1.091      1.487
REMARK  Name = 
REMARK  11 active torsions:
REMARK  status: ('A' for Active; 'I' for Inactive)
REMARK    1  A    between atoms: C_1  and  O_2
REMARK    2  A    between atoms: O_2  and  C_3
REMARK    3  A    between atoms: C_5  and  C_6
REMARK    4  A    between atoms: N_7  and  N_8
REMARK    5  A    between atoms: C_9  and  C_11
REMARK    6  A    between atoms: C_11  and  O_12
REMARK    7  A    between atoms: C_11  and  C_14
REMARK    8  A    between atoms: O_12  and  C_13
REMARK    9  A    between atoms: C_25  and  O_26
REMARK   10  A    between atoms: O_26  and  C_27
REMARK   11  A    between atoms: C_28  and  C_29
REMARK                            x       y       z     vdW  Elec       q    Type
REMARK                         _______ _______ _______ _____ _____    ______ ____
ROOT
ATOM      1  N   UNL     1       7.704   7.970  17.569  0.00  0.00    +0.000 N 
ATOM      2  C   UNL     1       7.638   6.681  18.099  0.00  0.00    +0.000 C 
ATOM      3  O   UNL     1       8.176   6.322  19.150  0.00  0.00    +0.000 OA
ATOM      4  H   UNL     1       7.246   8.182  16.691  0.00  0.00    +0.000 HD
ENDROOT
BRANCH   1   6
ATOM      5  C   UNL     1       8.709  10.019  17.638  0.00  0.00    +0.000 C 
ATOM      6  N   UNL     1       8.377   8.933  18.260  0.00  0.00    +0.000 NA
BRANCH   5   9
ATOM      7  C   UNL     1      10.931  12.992  18.295  0.00  0.00    +0.000 A 
ATOM      8  C   UNL     1      10.261  11.954  17.644  0.00  0.00    +0.000 A 
ATOM      9  C   UNL     1       9.439  11.089  18.360  0.00  0.00    +0.000 A 
ATOM     10  C   UNL     1       9.318  11.259  19.740  0.00  0.00    +0.000 A 
ATOM     11  C   UNL     1      10.009  12.286  20.429  0.00  0.00    +0.000 A 
ATOM     12  C   UNL     1      10.832  13.172  19.701  0.00  0.00    +0.000 A 
ATOM     13  C   UNL     1      11.638  14.328  20.241  0.00  0.00    +0.000 C 
BRANCH   7  15
ATOM     14  C   UNL     1      11.110  14.930  16.927  0.00  0.00    +0.000 C 
ATOM     15  O   UNL     1      11.757  13.859  17.613  0.00  0.00    +0.000 OA
ENDBRANCH   7  15
BRANCH  11  16
ATOM     16  O   UNL     1       9.724  12.215  21.766  0.00  0.00    +0.000 OA
ATOM     17  C   UNL     1       8.432  11.892  22.243  0.00  0.00    +0.000 C 
ENDBRANCH  11  16
ENDBRANCH   5   9
ENDBRANCH   1   6
BRANCH   2  18
ATOM     18  C   UNL     1       6.800   5.687  17.243  0.00  0.00    +0.000 C 
BRANCH  18  19
ATOM     19  C   UNL     1       5.671   5.126  18.098  0.00  0.00    +0.000 A 
ATOM     20  C   UNL     1       5.821   4.046  18.984  0.00  0.00    +0.000 A 
ATOM     21  C   UNL     1       4.692   3.384  19.483  0.00  0.00    +0.000 A 
ATOM     22  C   UNL     1       3.417   3.794  19.088  0.00  0.00    +0.000 A 
ATOM     23  C   UNL     1       3.272   4.960  18.344  0.00  0.00    +0.000 A 
ATOM     24  C   UNL     1       4.385   5.640  17.874  0.00  0.00    +0.000 A 
ATOM     25  O   UNL     1       2.046   5.429  17.960  0.00  0.00    +0.000 OA
ATOM     26  C   UNL     1       1.286   4.296  17.551  0.00  0.00    +0.000 C 
ATOM     27  C   UNL     1       1.149   3.289  18.690  0.00  0.00    +0.000 C 
ATOM     28  O   UNL     1       2.366   2.982  19.400  0.00  0.00    +0.000 OA
ENDBRANCH  18  19
BRANCH  18  29
ATOM     29  O   UNL     1       6.335   6.331  16.054  0.00  0.00    +0.000 OA
ATOM     30  C   UNL     1       6.292   5.402  14.966  0.00  0.00    +0.000 C 
ENDBRANCH  18  29
ENDBRANCH   2  18
TORSDOF 7
ENDMDL
MODEL 6
REMARK VINA RESULT:      -7.5      7.125     10.119
REMARK  Name = 
REMARK  11 active torsions:
REMARK  status: ('A' for Active; 'I' for Inactive)
REMARK    1  A    between atoms: C_1  and  O_2
REMARK    2  A    between atoms: O_2  and  C_3
REMARK    3  A    between atoms: C_5  and  C_6
REMARK    4  A    between atoms: N_7  and  N_8
REMARK    5  A    between atoms: C_9  and  C_11
REMARK    6  A    between atoms: C_11  and  O_12
REMARK    7  A    between atoms: C_11  and  C_14
REMARK    8  A    between atoms: O_12  and  C_13
REMARK    9  A    between atoms: C_25  and  O_26
REMARK   10  A    between atoms: O_26  and  C_27
REMARK   11  A    between atoms: C_28  and  C_29
REMARK                            x       y       z     vdW  Elec       q    Type
REMARK                         _______ _______ _______ _____ _____    ______ ____
ROOT
ATOM      1  N   UNL     1       0.553  10.277  18.155  0.00  0.00    +0.000 N 
ATOM      2  C   UNL     1      -0.475  10.748  18.973  0.00  0.00    +0.000 C 
ATOM      3  O   UNL     1      -0.818  10.235  20.042  0.00  0.00    +0.000 OA
ATOM      4  H   UNL     1       0.764  10.747  17.283  0.00  0.00    +0.000 HD
ENDROOT
BRANCH   1   6
ATOM      5  C   UNL     1       2.082   8.641  17.713  0.00  0.00    +0.000 C 
ATOM      6  N   UNL     1       1.271   9.191  18.558  0.00  0.00    +0.000 NA
BRANCH   5   9
ATOM      7  C   UNL     1       4.845   6.079  17.820  0.00  0.00    +0.000 A 
ATOM      8  C   UNL     1       4.056   7.164  17.433  0.00  0.00    +0.000 A 
ATOM      9  C   UNL     1       2.881   7.459  18.119  0.00  0.00    +0.000 A 
ATOM     10  C   UNL     1       2.492   6.637  19.178  0.00  0.00    +0.000 A 
ATOM     11  C   UNL     1       3.260   5.514  19.572  0.00  0.00    +0.000 A 
ATOM     12  C   UNL     1       4.458   5.222  18.885  0.00  0.00    +0.000 A 
ATOM     13  C   UNL     1       5.416   4.086  19.153  0.00  0.00    +0.000 C 
BRANCH   7  15
ATOM     14  C   UNL     1       7.059   6.722  17.233  0.00  0.00    +0.000 C 
ATOM     15  O   UNL     1       6.009   5.758  17.155  0.00  0.00    +0.000 OA
ENDBRANCH   7  15
BRANCH  11  16
ATOM     16  O   UNL     1       2.645   4.880  20.618  0.00  0.00    +0.000 OA
ATOM     17  C   UNL     1       1.292   4.470  20.557  0.00  0.00    +0.000 C 
ENDBRANCH  11  16
ENDBRANCH   5   9
ENDBRANCH   1   6
BRANCH   2  18
ATOM     18  C   UNL     1      -1.184  12.022  18.428  0.00  0.00    +0.000 C 
BRANCH  18  19
ATOM     19  C   UNL     1      -2.657  11.710  18.201  0.00  0.00    +0.000 A 
ATOM     20  C   UNL     1      -3.181  11.246  16.981  0.00  0.00    +0.000 A 
ATOM     21  C   UNL     1      -4.562  11.293  16.746  0.00  0.00    +0.000 A 
ATOM     22  C   UNL     1      -5.413  11.812  17.723  0.00  0.00    +0.000 A 
ATOM     23  C   UNL     1      -4.909  12.115  18.983  0.00  0.00    +0.000 A 
ATOM     24  C   UNL     1      -3.547  12.041  19.233  0.00  0.00    +0.000 A 
ATOM     25  O   UNL     1      -5.703  12.592  19.988  0.00  0.00    +0.000 OA
ATOM     26  C   UNL     1      -6.588  13.537  19.396  0.00  0.00    +0.000 C 
ATOM     27  C   UNL     1      -7.430  12.887  18.301  0.00  0.00    +0.000 C 
ATOM     28  O   UNL     1      -6.707  12.061  17.366  0.00  0.00    +0.000 OA
ENDBRANCH  18  19
BRANCH  18  29
ATOM     29  O   UNL     1      -0.976  13.122  19.319  0.00  0.00    +0.000 OA
ATOM     30  C   UNL     1      -0.216  14.150  18.675  0.00  0.00    +0.000 C 
ENDBRANCH  18  29
ENDBRANCH   2  18
TORSDOF 7
ENDMDL
MODEL 7
REMARK VINA RESULT:      -7.5      5.627      8.095
REMARK  Name = 
REMARK  11 active torsions:
REMARK  status: ('A' for Active; 'I' for Inactive)
REMARK    1  A    between atoms: C_1  and  O_2
REMARK    2  A    between atoms: O_2  and  C_3
REMARK    3  A    between atoms: C_5  and  C_6
REMARK    4  A    between atoms: N_7  and  N_8
REMARK    5  A    between atoms: C_9  and  C_11
REMARK    6  A    between atoms: C_11  and  O_12
REMARK    7  A    between atoms: C_11  and  C_14
REMARK    8  A    between atoms: O_12  and  C_13
REMARK    9  A    between atoms: C_25  and  O_26
REMARK   10  A    between atoms: O_26  and  C_27
REMARK   11  A    between atoms: C_28  and  C_29
REMARK                            x       y       z     vdW  Elec       q    Type
REMARK                         _______ _______ _______ _____ _____    ______ ____
ROOT
ATOM      1  N   UNL     1       2.170   6.824  20.467  0.00  0.00    +0.000 N 
ATOM      2  C   UNL     1       2.428   6.191  19.250  0.00  0.00    +0.000 C 
ATOM      3  O   UNL     1       2.340   6.730  18.143  0.00  0.00    +0.000 OA
ATOM      4  H   UNL     1       2.251   6.307  21.335  0.00  0.00    +0.000 HD
ENDROOT
BRANCH   1   6
ATOM      5  C   UNL     1       0.748   8.498  21.087  0.00  0.00    +0.000 C 
ATOM      6  N   UNL     1       1.825   8.142  20.466  0.00  0.00    +0.000 NA
BRANCH   5   9
ATOM      7  C   UNL     1      -0.655  11.783  22.291  0.00  0.00    +0.000 A 
ATOM      8  C   UNL     1      -0.298  10.434  22.233  0.00  0.00    +0.000 A 
ATOM      9  C   UNL     1       0.345   9.925  21.108  0.00  0.00    +0.000 A 
ATOM     10  C   UNL     1       0.600  10.777  20.032  0.00  0.00    +0.000 A 
ATOM     11  C   UNL     1       0.223  12.142  20.055  0.00  0.00    +0.000 A 
ATOM     12  C   UNL     1      -0.416  12.662  21.201  0.00  0.00    +0.000 A 
ATOM     13  C   UNL     1      -0.885  14.079  21.426  0.00  0.00    +0.000 C 
BRANCH   7  15
ATOM     14  C   UNL     1      -2.685  12.000  23.513  0.00  0.00    +0.000 C 
ATOM     15  O   UNL     1      -1.298  12.314  23.389  0.00  0.00    +0.000 OA
ENDBRANCH   7  15
BRANCH  11  16
ATOM     16  O   UNL     1       0.577  12.737  18.874  0.00  0.00    +0.000 OA
ATOM     17  C   UNL     1       1.747  13.523  18.750  0.00  0.00    +0.000 C 
ENDBRANCH  11  16
ENDBRANCH   5   9
ENDBRANCH   1   6
BRANCH   2  18
ATOM     18  C   UNL     1       2.860   4.703  19.389  0.00  0.00    +0.000 C 
BRANCH  18  19
ATOM     19  C   UNL     1       4.227   4.520  18.742  0.00  0.00    +0.000 A 
ATOM     20  C   UNL     1       5.422   5.030  19.279  0.00  0.00    +0.000 A 
ATOM     21  C   UNL     1       6.572   5.109  18.483  0.00  0.00    +0.000 A 
ATOM     22  C   UNL     1       6.524   4.689  17.152  0.00  0.00    +0.000 A 
ATOM     23  C   UNL     1       5.390   4.038  16.679  0.00  0.00    +0.000 A 
ATOM     24  C   UNL     1       4.258   3.927  17.472  0.00  0.00    +0.000 A 
ATOM     25  O   UNL     1       5.301   3.574  15.396  0.00  0.00    +0.000 OA
ATOM     26  C   UNL     1       5.876   4.573  14.560  0.00  0.00    +0.000 C 
ATOM     27  C   UNL     1       7.330   4.836  14.942  0.00  0.00    +0.000 C 
ATOM     28  O   UNL     1       7.584   5.003  16.352  0.00  0.00    +0.000 OA
ENDBRANCH  18  19
BRANCH  18  29
ATOM     29  O   UNL     1       2.834   4.307  20.763  0.00  0.00    +0.000 OA
ATOM     30  C   UNL     1       2.712   2.886  20.873  0.00  0.00    +0.000 C 
ENDBRANCH  18  29
ENDBRANCH   2  18
TORSDOF 7
ENDMDL
MODEL 8
REMARK VINA RESULT:      -7.5      0.926      1.512
REMARK  Name = 
REMARK  11 active torsions:
REMARK  status: ('A' for Active; 'I' for Inactive)
REMARK    1  A    between atoms: C_1  and  O_2
REMARK    2  A    between atoms: O_2  and  C_3
REMARK    3  A    between atoms: C_5  and  C_6
REMARK    4  A    between atoms: N_7  and  N_8
REMARK    5  A    between atoms: C_9  and  C_11
REMARK    6  A    between atoms: C_11  and  O_12
REMARK    7  A    between atoms: C_11  and  C_14
REMARK    8  A    between atoms: O_12  and  C_13
REMARK    9  A    between atoms: C_25  and  O_26
REMARK   10  A    between atoms: O_26  and  C_27
REMARK   11  A    between atoms: C_28  and  C_29
REMARK                            x       y       z     vdW  Elec       q    Type
REMARK                         _______ _______ _______ _____ _____    ______ ____
ROOT
ATOM      1  N   UNL     1       7.629   7.395  17.267  0.00  0.00    +0.000 N 
ATOM      2  C   UNL     1       7.527   6.087  17.743  0.00  0.00    +0.000 C 
ATOM      3  O   UNL     1       7.942   5.700  18.839  0.00  0.00    +0.000 OA
ATOM      4  H   UNL     1       7.276   7.629  16.347  0.00  0.00    +0.000 HD
ENDROOT
BRANCH   1   6
ATOM      5  C   UNL     1       8.374   9.530  17.577  0.00  0.00    +0.000 C 
ATOM      6  N   UNL     1       8.194   8.344  18.064  0.00  0.00    +0.000 NA
BRANCH   5   9
ATOM      7  C   UNL     1      10.220  12.661  18.573  0.00  0.00    +0.000 A 
ATOM      8  C   UNL     1       9.669  11.634  17.805  0.00  0.00    +0.000 A 
ATOM      9  C   UNL     1       8.984  10.589  18.418  0.00  0.00    +0.000 A 
ATOM     10  C   UNL     1       8.882  10.570  19.810  0.00  0.00    +0.000 A 
ATOM     11  C   UNL     1       9.456  11.586  20.613  0.00  0.00    +0.000 A 
ATOM     12  C   UNL     1      10.140  12.654  19.992  0.00  0.00    +0.000 A 
ATOM     13  C   UNL     1      10.808  13.829  20.662  0.00  0.00    +0.000 C 
BRANCH   7  15
ATOM     14  C   UNL     1      11.667  13.385  16.829  0.00  0.00    +0.000 C 
ATOM     15  O   UNL     1      10.910  13.706  17.995  0.00  0.00    +0.000 OA
ENDBRANCH   7  15
BRANCH  11  16
ATOM     16  O   UNL     1       9.222  11.316  21.934  0.00  0.00    +0.000 OA
ATOM     17  C   UNL     1       8.095  11.830  22.618  0.00  0.00    +0.000 C 
ENDBRANCH  11  16
ENDBRANCH   5   9
ENDBRANCH   1   6
BRANCH   2  18
ATOM     18  C   UNL     1       6.819   5.109  16.761  0.00  0.00    +0.000 C 
BRANCH  18  19
ATOM     19  C   UNL     1       5.606   4.502  17.454  0.00  0.00    +0.000 A 
ATOM     20  C   UNL     1       4.817   3.480  16.899  0.00  0.00    +0.000 A 
ATOM     21  C   UNL     1       3.550   3.202  17.432  0.00  0.00    +0.000 A 
ATOM     22  C   UNL     1       3.072   3.952  18.508  0.00  0.00    +0.000 A 
ATOM     23  C   UNL     1       3.920   4.846  19.152  0.00  0.00    +0.000 A 
ATOM     24  C   UNL     1       5.187   5.103  18.650  0.00  0.00    +0.000 A 
ATOM     25  O   UNL     1       3.517   5.581  20.232  0.00  0.00    +0.000 OA
ATOM     26  C   UNL     1       2.193   6.023  19.954  0.00  0.00    +0.000 C 
ATOM     27  C   UNL     1       1.257   4.840  19.722  0.00  0.00    +0.000 C 
ATOM     28  O   UNL     1       1.755   3.815  18.838  0.00  0.00    +0.000 OA
ENDBRANCH  18  19
BRANCH  18  29
ATOM     29  O   UNL     1       6.488   5.785  15.544  0.00  0.00    +0.000 OA
ATOM     30  C   UNL     1       6.887   5.004  14.413  0.00  0.00    +0.000 C 
ENDBRANCH  18  29
ENDBRANCH   2  18
TORSDOF 7
ENDMDL
MODEL 9
REMARK VINA RESULT:      -7.5      7.173     10.491
REMARK  Name = 
REMARK  11 active torsions:
REMARK  status: ('A' for Active; 'I' for Inactive)
REMARK    1  A    between atoms: C_1  and  O_2
REMARK    2  A    between atoms: O_2  and  C_3
REMARK    3  A    between atoms: C_5  and  C_6
REMARK    4  A    between atoms: N_7  and  N_8
REMARK    5  A    between atoms: C_9  and  C_11
REMARK    6  A    between atoms: C_11  and  O_12
REMARK    7  A    between atoms: C_11  and  C_14
REMARK    8  A    between atoms: O_12  and  C_13
REMARK    9  A    between atoms: C_25  and  O_26
REMARK   10  A    between atoms: O_26  and  C_27
REMARK   11  A    between atoms: C_28  and  C_29
REMARK                            x       y       z     vdW  Elec       q    Type
REMARK                         _______ _______ _______ _____ _____    ______ ____
ROOT
ATOM      1  N   UNL     1       0.212  10.036  17.775  0.00  0.00    +0.000 N 
ATOM      2  C   UNL     1      -0.552  10.627  18.782  0.00  0.00    +0.000 C 
ATOM      3  O   UNL     1      -0.689  10.174  19.922  0.00  0.00    +0.000 OA
ATOM      4  H   UNL     1       0.262  10.465  16.858  0.00  0.00    +0.000 HD
ENDROOT
BRANCH   1   6
ATOM      5  C   UNL     1       2.162   8.850  17.786  0.00  0.00    +0.000 C 
ATOM      6  N   UNL     1       0.896   8.890  18.052  0.00  0.00    +0.000 NA
BRANCH   5   9
ATOM      7  C   UNL     1       3.253   5.634  19.423  0.00  0.00    +0.000 A 
ATOM      8  C   UNL     1       2.561   6.816  19.150  0.00  0.00    +0.000 A 
ATOM      9  C   UNL     1       2.937   7.619  18.078  0.00  0.00    +0.000 A 
ATOM     10  C   UNL     1       4.032   7.239  17.299  0.00  0.00    +0.000 A 
ATOM     11  C   UNL     1       4.768   6.060  17.572  0.00  0.00    +0.000 A 
ATOM     12  C   UNL     1       4.379   5.237  18.651  0.00  0.00    +0.000 A 
ATOM     13  C   UNL     1       5.019   3.946  19.098  0.00  0.00    +0.000 C 
BRANCH   7  15
ATOM     14  C   UNL     1       1.545   4.404  20.531  0.00  0.00    +0.000 C 
ATOM     15  O   UNL     1       2.908   4.822  20.482  0.00  0.00    +0.000 OA
ENDBRANCH   7  15
BRANCH  11  16
ATOM     16  O   UNL     1       5.791   5.937  16.670  0.00  0.00    +0.000 OA
ATOM     17  C   UNL     1       5.573   5.499  15.343  0.00  0.00    +0.000 C 
ENDBRANCH  11  16
ENDBRANCH   5   9
ENDBRANCH   1   6
BRANCH   2  18
ATOM     18  C   UNL     1      -1.242  11.956  18.357  0.00  0.00    +0.000 C 
BRANCH  18  19
ATOM     19  C   UNL     1      -2.728  11.699  18.150  0.00  0.00    +0.000 A 
ATOM     20  C   UNL     1      -3.283  11.239  16.943  0.00  0.00    +0.000 A 
ATOM     21  C   UNL     1      -4.664  11.336  16.722  0.00  0.00    +0.000 A 
ATOM     22  C   UNL     1      -5.483  11.902  17.700  0.00  0.00    +0.000 A 
ATOM     23  C   UNL     1      -4.953  12.202  18.950  0.00  0.00    +0.000 A 
ATOM     24  C   UNL     1      -3.593  12.078  19.187  0.00  0.00    +0.000 A 
ATOM     25  O   UNL     1      -5.717  12.724  19.957  0.00  0.00    +0.000 OA
ATOM     26  C   UNL     1      -6.571  13.695  19.360  0.00  0.00    +0.000 C 
ATOM     27  C   UNL     1      -7.450  13.063  18.284  0.00  0.00    +0.000 C 
ATOM     28  O   UNL     1      -6.770  12.196  17.353  0.00  0.00    +0.000 OA
ENDBRANCH  18  19
BRANCH  18  29
ATOM     29  O   UNL     1      -0.980  12.979  19.323  0.00  0.00    +0.000 OA
ATOM     30  C   UNL     1      -0.280  14.071  18.718  0.00  0.00    +0.000 C 
ENDBRANCH  18  29
ENDBRANCH   2  18
TORSDOF 7
ENDMDL
