MODEL 1
REMARK VINA RESULT:      -8.3      0.000      0.000
REMARK  Name = 
REMARK  5 active torsions:
REMARK  status: ('A' for Active; 'I' for Inactive)
REMARK    1  A    between atoms: C_1  and  C_2
REMARK    2  A    between atoms: C_5  and  C_6
REMARK    3  A    between atoms: C_9  and  C_10
REMARK    4  A    between atoms: N_18  and  C_19
REMARK    5  A    between atoms: N_18  and  C_20
REMARK                            x       y       z     vdW  Elec       q    Type
REMARK                         _______ _______ _______ _____ _____    ______ ____
ROOT
ATOM      1  C   UNL     1       1.806   7.550  20.144  0.00  0.00    +0.000 C 
ATOM      2  O   UNL     1       1.219   6.740  20.847  0.00  0.00    +0.000 OA
ATOM      3  N   UNL     1       1.693   8.924  20.233  0.00  0.00    +0.000 N 
ATOM      4  C   UNL     1       0.853   9.529  21.183  0.00  0.00    +0.000 A 
ATOM      5  C   UNL     1       0.845   9.107  22.490  0.00  0.00    +0.000 A 
ATOM      6  C   UNL     1      -0.035   9.758  23.307  0.00  0.00    +0.000 A 
ATOM      7  N   UNL     1      -0.870  10.715  22.870  0.00  0.00    +0.000 NA
ATOM      8  C   UNL     1      -0.810  11.072  21.576  0.00  0.00    +0.000 A 
ATOM      9  N   UNL     1      -1.679  12.046  21.123  0.00  0.00    +0.000 N 
ATOM     10  C   UNL     1      -1.772  12.319  19.701  0.00  0.00    +0.000 C 
ATOM     11  C   UNL     1      -2.845  12.373  21.928  0.00  0.00    +0.000 C 
ATOM     12  N   UNL     1       0.090  10.537  20.729  0.00  0.00    +0.000 NA
ATOM     13  H   UNL     1       1.809   9.466  19.387  0.00  0.00    +0.000 HD
ENDROOT
BRANCH   1  17
ATOM     14  C   UNL     1       4.560   6.135  17.158  0.00  0.00    +0.000 A 
ATOM     15  C   UNL     1       4.223   5.344  18.266  0.00  0.00    +0.000 A 
ATOM     16  C   UNL     1       3.290   5.792  19.211  0.00  0.00    +0.000 A 
ATOM     17  C   UNL     1       2.668   7.032  19.047  0.00  0.00    +0.000 A 
ATOM     18  C   UNL     1       2.957   7.815  17.926  0.00  0.00    +0.000 A 
ATOM     19  C   UNL     1       3.903   7.365  16.991  0.00  0.00    +0.000 A 
BRANCH  14  24
ATOM     20  C   UNL     1       6.399   3.827  13.356  0.00  0.00    +0.000 C 
ATOM     21  C   UNL     1       6.417   4.689  14.549  0.00  0.00    +0.000 A 
ATOM     22  N   UNL     1       7.405   5.379  15.074  0.00  0.00    +0.000 NA
ATOM     23  N   UNL     1       6.877   6.036  16.171  0.00  0.00    +0.000 NA
ATOM     24  C   UNL     1       5.605   5.693  16.242  0.00  0.00    +0.000 A 
ATOM     25  O   UNL     1       5.240   4.826  15.236  0.00  0.00    +0.000 OA
ENDBRANCH  14  24
ENDBRANCH   1  17
TORSDOF 2
ENDMDL
MODEL 2
REMARK VINA RESULT:      -8.0      2.226      9.469
REMARK  Name = 
REMARK  5 active torsions:
REMARK  status: ('A' for Active; 'I' for Inactive)
REMARK    1  A    between atoms: C_1  and  C_2
REMARK    2  A    between atoms: C_5  and  C_6
REMARK    3  A    between atoms: C_9  and  C_10
REMARK    4  A    between atoms: N_18  and  C_19
REMARK    5  A    between atoms: N_18  and  C_20
REMARK                            x       y       z     vdW  Elec       q    Type
REMARK                         _______ _______ _______ _____ _____    ______ ____
ROOT
ATOM      1  C   UNL     1       1.795   7.308  20.083  0.00  0.00    +0.000 C 
ATOM      2  O   UNL     1       1.642   6.250  20.677  0.00  0.00    +0.000 OA
ATOM      3  N   UNL     1       2.489   7.474  18.899  0.00  0.00    +0.000 N 
ATOM      4  C   UNL     1       3.106   6.388  18.255  0.00  0.00    +0.000 A 
ATOM      5  C   UNL     1       2.446   5.195  18.092  0.00  0.00    +0.000 A 
ATOM      6  C   UNL     1       3.165   4.212  17.474  0.00  0.00    +0.000 A 
ATOM      7  N   UNL     1       4.442   4.370  17.087  0.00  0.00    +0.000 NA
ATOM      8  C   UNL     1       5.024   5.565  17.286  0.00  0.00    +0.000 A 
ATOM      9  N   UNL     1       6.342   5.724  16.901  0.00  0.00    +0.000 N 
ATOM     10  C   UNL     1       7.057   6.932  17.270  0.00  0.00    +0.000 C 
ATOM     11  C   UNL     1       7.148   4.538  16.655  0.00  0.00    +0.000 C 
ATOM     12  N   UNL     1       4.354   6.608  17.809  0.00  0.00    +0.000 NA
ATOM     13  H   UNL     1       2.950   8.360  18.740  0.00  0.00    +0.000 HD
ENDROOT
BRANCH   1  17
ATOM     14  C   UNL     1      -0.063  10.730  21.910  0.00  0.00    +0.000 A 
ATOM     15  C   UNL     1       0.417   9.665  22.686  0.00  0.00    +0.000 A 
ATOM     16  C   UNL     1       1.063   8.574  22.089  0.00  0.00    +0.000 A 
ATOM     17  C   UNL     1       1.253   8.546  20.705  0.00  0.00    +0.000 A 
ATOM     18  C   UNL     1       0.821   9.618  19.920  0.00  0.00    +0.000 A 
ATOM     19  C   UNL     1       0.163  10.701  20.525  0.00  0.00    +0.000 A 
BRANCH  14  24
ATOM     20  C   UNL     1      -3.889  12.821  23.949  0.00  0.00    +0.000 C 
ATOM     21  C   UNL     1      -2.503  12.726  23.463  0.00  0.00    +0.000 A 
ATOM     22  N   UNL     1      -1.520  13.593  23.550  0.00  0.00    +0.000 NA
ATOM     23  N   UNL     1      -0.422  12.994  22.956  0.00  0.00    +0.000 NA
ATOM     24  C   UNL     1      -0.818  11.806  22.542  0.00  0.00    +0.000 A 
ATOM     25  O   UNL     1      -2.143  11.567  22.828  0.00  0.00    +0.000 OA
ENDBRANCH  14  24
ENDBRANCH   1  17
TORSDOF 2
ENDMDL
MODEL 3
REMARK VINA RESULT:      -8.0      1.280      1.899
REMARK  Name = 
REMARK  5 active torsions:
REMARK  status: ('A' for Active; 'I' for Inactive)
REMARK    1  A    between atoms: C_1  and  C_2
REMARK    2  A    between atoms: C_5  and  C_6
REMARK    3  A    between atoms: C_9  and  C_10
REMARK    4  A    between atoms: N_18  and  C_19
REMARK    5  A    between atoms: N_18  and  C_20
REMARK                            x       y       z     vdW  Elec       q    Type
REMARK                         _______ _______ _______ _____ _____    ______ ____
ROOT
ATOM      1  C   UNL     1       2.502   6.726  19.063  0.00  0.00    +0.000 C 
ATOM      2  O   UNL     1       1.802   5.920  19.658  0.00  0.00    +0.000 OA
ATOM      3  N   UNL     1       2.413   8.101  19.166  0.00  0.00    +0.000 N 
ATOM      4  C   UNL     1       1.461   8.712  20.000  0.00  0.00    +0.000 A 
ATOM      5  C   UNL     1       1.256   8.266  21.283  0.00  0.00    +0.000 A 
ATOM      6  C   UNL     1       0.285   8.927  21.980  0.00  0.00    +0.000 A 
ATOM      7  N   UNL     1      -0.455   9.915  21.450  0.00  0.00    +0.000 NA
ATOM      8  C   UNL     1      -0.202  10.293  20.186  0.00  0.00    +0.000 A 
ATOM      9  N   UNL     1      -0.973  11.298  19.635  0.00  0.00    +0.000 N 
ATOM     10  C   UNL     1      -0.855  11.600  18.221  0.00  0.00    +0.000 C 
ATOM     11  C   UNL     1      -2.234  11.644  20.273  0.00  0.00    +0.000 C 
ATOM     12  N   UNL     1       0.796   9.749  19.464  0.00  0.00    +0.000 NA
ATOM     13  H   UNL     1       2.662   8.655  18.357  0.00  0.00    +0.000 HD
ENDROOT
BRANCH   1  17
ATOM     14  C   UNL     1       5.179   5.316  16.005  0.00  0.00    +0.000 A 
ATOM     15  C   UNL     1       5.146   6.669  16.372  0.00  0.00    +0.000 A 
ATOM     16  C   UNL     1       4.305   7.115  17.401  0.00  0.00    +0.000 A 
ATOM     17  C   UNL     1       3.499   6.204  18.089  0.00  0.00    +0.000 A 
ATOM     18  C   UNL     1       3.550   4.845  17.769  0.00  0.00    +0.000 A 
ATOM     19  C   UNL     1       4.385   4.409  16.727  0.00  0.00    +0.000 A 
BRANCH  14  24
ATOM     20  C   UNL     1       6.143   2.966  11.917  0.00  0.00    +0.000 C 
ATOM     21  C   UNL     1       6.408   3.869  13.048  0.00  0.00    +0.000 A 
ATOM     22  N   UNL     1       7.455   4.624  13.295  0.00  0.00    +0.000 NA
ATOM     23  N   UNL     1       7.180   5.293  14.475  0.00  0.00    +0.000 NA
ATOM     24  C   UNL     1       5.986   4.892  14.868  0.00  0.00    +0.000 A 
ATOM     25  O   UNL     1       5.433   3.973  14.004  0.00  0.00    +0.000 OA
ENDBRANCH  14  24
ENDBRANCH   1  17
TORSDOF 2
ENDMDL
MODEL 4
REMARK VINA RESULT:      -8.0      2.971      9.705
REMARK  Name = 
REMARK  5 active torsions:
REMARK  status: ('A' for Active; 'I' for Inactive)
REMARK    1  A    between atoms: C_1  and  C_2
REMARK    2  A    between atoms: C_5  and  C_6
REMARK    3  A    between atoms: C_9  and  C_10
REMARK    4  A    between atoms: N_18  and  C_19
REMARK    5  A    between atoms: N_18  and  C_20
REMARK                            x       y       z     vdW  Elec       q    Type
REMARK                         _______ _______ _______ _____ _____    ______ ____
ROOT
ATOM      1  C   UNL     1       1.296   8.710  19.755  0.00  0.00    +0.000 C 
ATOM      2  O   UNL     1       1.260   8.875  18.544  0.00  0.00    +0.000 OA
ATOM      3  N   UNL     1       1.874   7.636  20.405  0.00  0.00    +0.000 N 
ATOM      4  C   UNL     1       2.493   6.596  19.690  0.00  0.00    +0.000 A 
ATOM      5  C   UNL     1       3.355   6.866  18.656  0.00  0.00    +0.000 A 
ATOM      6  C   UNL     1       3.869   5.768  18.026  0.00  0.00    +0.000 A 
ATOM      7  N   UNL     1       3.533   4.510  18.354  0.00  0.00    +0.000 NA
ATOM      8  C   UNL     1       2.677   4.324  19.374  0.00  0.00    +0.000 A 
ATOM      9  N   UNL     1       2.319   3.030  19.702  0.00  0.00    +0.000 N 
ATOM     10  C   UNL     1       1.259   2.802  20.666  0.00  0.00    +0.000 C 
ATOM     11  C   UNL     1       2.563   1.969  18.736  0.00  0.00    +0.000 C 
ATOM     12  N   UNL     1       2.196   5.351  20.098  0.00  0.00    +0.000 NA
ATOM     13  H   UNL     1       1.474   7.344  21.287  0.00  0.00    +0.000 HD
ENDROOT
BRANCH   1  17
ATOM     14  C   UNL     1      -0.980  11.416  22.205  0.00  0.00    +0.000 A 
ATOM     15  C   UNL     1      -0.507  10.198  22.716  0.00  0.00    +0.000 A 
ATOM     16  C   UNL     1       0.273   9.342  21.927  0.00  0.00    +0.000 A 
ATOM     17  C   UNL     1       0.605   9.705  20.620  0.00  0.00    +0.000 A 
ATOM     18  C   UNL     1       0.181  10.934  20.107  0.00  0.00    +0.000 A 
ATOM     19  C   UNL     1      -0.612  11.780  20.900  0.00  0.00    +0.000 A 
BRANCH  14  24
ATOM     20  C   UNL     1      -4.883  12.419  24.838  0.00  0.00    +0.000 C 
ATOM     21  C   UNL     1      -3.587  12.683  24.192  0.00  0.00    +0.000 A 
ATOM     22  N   UNL     1      -2.824  13.752  24.242  0.00  0.00    +0.000 NA
ATOM     23  N   UNL     1      -1.706  13.465  23.479  0.00  0.00    +0.000 NA
ATOM     24  C   UNL     1      -1.871  12.243  23.010  0.00  0.00    +0.000 A 
ATOM     25  O   UNL     1      -3.058  11.681  23.422  0.00  0.00    +0.000 OA
ENDBRANCH  14  24
ENDBRANCH   1  17
TORSDOF 2
ENDMDL
MODEL 5
REMARK VINA RESULT:      -7.9      1.632      2.226
REMARK  Name = 
REMARK  5 active torsions:
REMARK  status: ('A' for Active; 'I' for Inactive)
REMARK    1  A    between atoms: C_1  and  C_2
REMARK    2  A    between atoms: C_5  and  C_6
REMARK    3  A    between atoms: C_9  and  C_10
REMARK    4  A    between atoms: N_18  and  C_19
REMARK    5  A    between atoms: N_18  and  C_20
REMARK                            x       y       z     vdW  Elec       q    Type
REMARK                         _______ _______ _______ _____ _____    ______ ____
ROOT
ATOM      1  C   UNL     1       2.269   7.721  18.868  0.00  0.00    +0.000 C 
ATOM      2  O   UNL     1       1.868   7.189  19.893  0.00  0.00    +0.000 OA
ATOM      3  N   UNL     1       1.824   8.927  18.359  0.00  0.00    +0.000 N 
ATOM      4  C   UNL     1       0.825   9.671  19.009  0.00  0.00    +0.000 A 
ATOM      5  C   UNL     1       0.867   9.875  20.367  0.00  0.00    +0.000 A 
ATOM      6  C   UNL     1      -0.177  10.592  20.880  0.00  0.00    +0.000 A 
ATOM      7  N   UNL     1      -1.200  11.035  20.131  0.00  0.00    +0.000 NA
ATOM      8  C   UNL     1      -1.175  10.791  18.810  0.00  0.00    +0.000 A 
ATOM      9  N   UNL     1      -2.235  11.234  18.041  0.00  0.00    +0.000 N 
ATOM     10  C   UNL     1      -2.334  10.827  16.652  0.00  0.00    +0.000 C 
ATOM     11  C   UNL     1      -3.478  11.598  18.705  0.00  0.00    +0.000 C 
ATOM     12  N   UNL     1      -0.140  10.168  18.218  0.00  0.00    +0.000 NA
ATOM     13  H   UNL     1       1.840   9.053  17.356  0.00  0.00    +0.000 HD
ENDROOT
BRANCH   1  17
ATOM     14  C   UNL     1       4.995   5.697  16.227  0.00  0.00    +0.000 A 
ATOM     15  C   UNL     1       5.058   7.087  16.409  0.00  0.00    +0.000 A 
ATOM     16  C   UNL     1       4.198   7.734  17.305  0.00  0.00    +0.000 A 
ATOM     17  C   UNL     1       3.274   6.994  18.047  0.00  0.00    +0.000 A 
ATOM     18  C   UNL     1       3.226   5.604  17.914  0.00  0.00    +0.000 A 
ATOM     19  C   UNL     1       4.082   4.964  17.003  0.00  0.00    +0.000 A 
BRANCH  14  24
ATOM     20  C   UNL     1       5.939   3.105  12.282  0.00  0.00    +0.000 C 
ATOM     21  C   UNL     1       6.250   3.929  13.462  0.00  0.00    +0.000 A 
ATOM     22  N   UNL     1       7.406   4.391  13.884  0.00  0.00    +0.000 NA
ATOM     23  N   UNL     1       7.134   5.130  15.022  0.00  0.00    +0.000 NA
ATOM     24  C   UNL     1       5.831   5.058  15.218  0.00  0.00    +0.000 A 
ATOM     25  O   UNL     1       5.199   4.299  14.259  0.00  0.00    +0.000 OA
ENDBRANCH  14  24
ENDBRANCH   1  17
TORSDOF 2
ENDMDL
MODEL 6
REMARK VINA RESULT:      -7.9      2.282      9.485
REMARK  Name = 
REMARK  5 active torsions:
REMARK  status: ('A' for Active; 'I' for Inactive)
REMARK    1  A    between atoms: C_1  and  C_2
REMARK    2  A    between atoms: C_5  and  C_6
REMARK    3  A    between atoms: C_9  and  C_10
REMARK    4  A    between atoms: N_18  and  C_19
REMARK    5  A    between atoms: N_18  and  C_20
REMARK                            x       y       z     vdW  Elec       q    Type
REMARK                         _______ _______ _______ _____ _____    ______ ____
ROOT
ATOM      1  C   UNL     1       1.692   7.375  20.205  0.00  0.00    +0.000 C 
ATOM      2  O   UNL     1       1.573   6.312  20.797  0.00  0.00    +0.000 OA
ATOM      3  N   UNL     1       2.367   7.562  19.014  0.00  0.00    +0.000 N 
ATOM      4  C   UNL     1       3.003   6.494  18.358  0.00  0.00    +0.000 A 
ATOM      5  C   UNL     1       2.371   5.286  18.199  0.00  0.00    +0.000 A 
ATOM      6  C   UNL     1       3.107   4.323  17.569  0.00  0.00    +0.000 A 
ATOM      7  N   UNL     1       4.374   4.514  17.166  0.00  0.00    +0.000 NA
ATOM      8  C   UNL     1       4.929   5.722  17.362  0.00  0.00    +0.000 A 
ATOM      9  N   UNL     1       6.238   5.915  16.961  0.00  0.00    +0.000 N 
ATOM     10  C   UNL     1       6.926   7.139  17.326  0.00  0.00    +0.000 C 
ATOM     11  C   UNL     1       7.070   4.750  16.701  0.00  0.00    +0.000 C 
ATOM     12  N   UNL     1       4.239   6.747  17.897  0.00  0.00    +0.000 NA
ATOM     13  H   UNL     1       2.805   8.460  18.852  0.00  0.00    +0.000 HD
ENDROOT
BRANCH   1  17
ATOM     14  C   UNL     1      -0.232  10.752  22.048  0.00  0.00    +0.000 A 
ATOM     15  C   UNL     1       0.216   9.665  22.814  0.00  0.00    +0.000 A 
ATOM     16  C   UNL     1       0.883   8.589  22.214  0.00  0.00    +0.000 A 
ATOM     17  C   UNL     1       1.128   8.598  20.838  0.00  0.00    +0.000 A 
ATOM     18  C   UNL     1       0.729   9.691  20.065  0.00  0.00    +0.000 A 
ATOM     19  C   UNL     1       0.048  10.759  20.672  0.00  0.00    +0.000 A 
BRANCH  14  24
ATOM     20  C   UNL     1      -1.022  15.100  23.955  0.00  0.00    +0.000 C 
ATOM     21  C   UNL     1      -1.366  13.742  23.504  0.00  0.00    +0.000 A 
ATOM     22  N   UNL     1      -2.532  13.135  23.476  0.00  0.00    +0.000 NA
ATOM     23  N   UNL     1      -2.302  11.883  22.935  0.00  0.00    +0.000 NA
ATOM     24  C   UNL     1      -1.010  11.811  22.679  0.00  0.00    +0.000 A 
ATOM     25  O   UNL     1      -0.344  12.967  23.024  0.00  0.00    +0.000 OA
ENDBRANCH  14  24
ENDBRANCH   1  17
TORSDOF 2
ENDMDL
MODEL 7
REMARK VINA RESULT:      -7.8      3.068      9.800
REMARK  Name = 
REMARK  5 active torsions:
REMARK  status: ('A' for Active; 'I' for Inactive)
REMARK    1  A    between atoms: C_1  and  C_2
REMARK    2  A    between atoms: C_5  and  C_6
REMARK    3  A    between atoms: C_9  and  C_10
REMARK    4  A    between atoms: N_18  and  C_19
REMARK    5  A    between atoms: N_18  and  C_20
REMARK                            x       y       z     vdW  Elec       q    Type
REMARK                         _______ _______ _______ _____ _____    ______ ____
ROOT
ATOM      1  C   UNL     1       1.258   8.767  19.933  0.00  0.00    +0.000 C 
ATOM      2  O   UNL     1       1.252   8.971  18.727  0.00  0.00    +0.000 OA
ATOM      3  N   UNL     1       1.829   7.677  20.562  0.00  0.00    +0.000 N 
ATOM      4  C   UNL     1       2.477   6.667  19.831  0.00  0.00    +0.000 A 
ATOM      5  C   UNL     1       3.364   6.978  18.830  0.00  0.00    +0.000 A 
ATOM      6  C   UNL     1       3.905   5.906  18.179  0.00  0.00    +0.000 A 
ATOM      7  N   UNL     1       3.573   4.634  18.457  0.00  0.00    +0.000 NA
ATOM      8  C   UNL     1       2.692   4.408  19.447  0.00  0.00    +0.000 A 
ATOM      9  N   UNL     1       2.338   3.101  19.722  0.00  0.00    +0.000 N 
ATOM     10  C   UNL     1       1.255   2.832  20.650  0.00  0.00    +0.000 C 
ATOM     11  C   UNL     1       2.618   2.075  18.730  0.00  0.00    +0.000 C 
ATOM     12  N   UNL     1       2.181   5.407  20.190  0.00  0.00    +0.000 NA
ATOM     13  H   UNL     1       1.409   7.353  21.423  0.00  0.00    +0.000 HD
ENDROOT
BRANCH   1  17
ATOM     14  C   UNL     1      -1.111  11.375  22.400  0.00  0.00    +0.000 A 
ATOM     15  C   UNL     1      -0.661  10.135  22.878  0.00  0.00    +0.000 A 
ATOM     16  C   UNL     1       0.148   9.310  22.086  0.00  0.00    +0.000 A 
ATOM     17  C   UNL     1       0.535   9.727  20.810  0.00  0.00    +0.000 A 
ATOM     18  C   UNL     1       0.135  10.978  20.333  0.00  0.00    +0.000 A 
ATOM     19  C   UNL     1      -0.688  11.793  21.128  0.00  0.00    +0.000 A 
BRANCH  14  24
ATOM     20  C   UNL     1      -2.677  15.284  24.731  0.00  0.00    +0.000 C 
ATOM     21  C   UNL     1      -2.735  13.906  24.217  0.00  0.00    +0.000 A 
ATOM     22  N   UNL     1      -3.708  13.025  24.281  0.00  0.00    +0.000 NA
ATOM     23  N   UNL     1      -3.254  11.899  23.617  0.00  0.00    +0.000 NA
ATOM     24  C   UNL     1      -2.031  12.171  23.203  0.00  0.00    +0.000 A 
ATOM     25  O   UNL     1      -1.630  13.440  23.556  0.00  0.00    +0.000 OA
ENDBRANCH  14  24
ENDBRANCH   1  17
TORSDOF 2
ENDMDL
MODEL 8
REMARK VINA RESULT:      -7.8      2.903      9.623
REMARK  Name = 
REMARK  5 active torsions:
REMARK  status: ('A' for Active; 'I' for Inactive)
REMARK    1  A    between atoms: C_1  and  C_2
REMARK    2  A    between atoms: C_5  and  C_6
REMARK    3  A    between atoms: C_9  and  C_10
REMARK    4  A    between atoms: N_18  and  C_19
REMARK    5  A    between atoms: N_18  and  C_20
REMARK                            x       y       z     vdW  Elec       q    Type
REMARK                         _______ _______ _______ _____ _____    ______ ____
ROOT
ATOM      1  C   UNL     1       1.826   8.068  19.708  0.00  0.00    +0.000 C 
ATOM      2  O   UNL     1       2.127   8.379  18.564  0.00  0.00    +0.000 OA
ATOM      3  N   UNL     1       2.219   6.914  20.358  0.00  0.00    +0.000 N 
ATOM      4  C   UNL     1       3.031   5.958  19.725  0.00  0.00    +0.000 A 
ATOM      5  C   UNL     1       4.144   6.336  19.013  0.00  0.00    +0.000 A 
ATOM      6  C   UNL     1       4.833   5.314  18.425  0.00  0.00    +0.000 A 
ATOM      7  N   UNL     1       4.441   4.031  18.491  0.00  0.00    +0.000 NA
ATOM      8  C   UNL     1       3.338   3.737  19.201  0.00  0.00    +0.000 A 
ATOM      9  N   UNL     1       2.925   2.420  19.257  0.00  0.00    +0.000 N 
ATOM     10  C   UNL     1       1.643   2.094  19.852  0.00  0.00    +0.000 C 
ATOM     11  C   UNL     1       3.448   1.480  18.278  0.00  0.00    +0.000 C 
ATOM     12  N   UNL     1       2.655   4.678  19.881  0.00  0.00    +0.000 NA
ATOM     13  H   UNL     1       1.594   6.524  21.052  0.00  0.00    +0.000 HD
ENDROOT
BRANCH   1  17
ATOM     14  C   UNL     1      -0.595  10.880  21.884  0.00  0.00    +0.000 A 
ATOM     15  C   UNL     1      -0.442  10.978  20.492  0.00  0.00    +0.000 A 
ATOM     16  C   UNL     1       0.311  10.033  19.784  0.00  0.00    +0.000 A 
ATOM     17  C   UNL     1       0.905   8.963  20.458  0.00  0.00    +0.000 A 
ATOM     18  C   UNL     1       0.727   8.822  21.837  0.00  0.00    +0.000 A 
ATOM     19  C   UNL     1      -0.017   9.782  22.542  0.00  0.00    +0.000 A 
BRANCH  14  24
ATOM     20  C   UNL     1      -4.114  12.789  24.555  0.00  0.00    +0.000 C 
ATOM     21  C   UNL     1      -2.844  12.769  23.811  0.00  0.00    +0.000 A 
ATOM     22  N   UNL     1      -1.936  13.710  23.672  0.00  0.00    +0.000 NA
ATOM     23  N   UNL     1      -0.929  13.162  22.898  0.00  0.00    +0.000 NA
ATOM     24  C   UNL     1      -1.298  11.928  22.612  0.00  0.00    +0.000 A 
ATOM     25  O   UNL     1      -2.521  11.609  23.160  0.00  0.00    +0.000 OA
ENDBRANCH  14  24
ENDBRANCH   1  17
TORSDOF 2
ENDMDL
MODEL 9
REMARK VINA RESULT:      -7.8      2.985      9.618
REMARK  Name = 
REMARK  5 active torsions:
REMARK  status: ('A' for Active; 'I' for Inactive)
REMARK    1  A    between atoms: C_1  and  C_2
REMARK    2  A    between atoms: C_5  and  C_6
REMARK    3  A    between atoms: C_9  and  C_10
REMARK    4  A    between atoms: N_18  and  C_19
REMARK    5  A    between atoms: N_18  and  C_20
REMARK                            x       y       z     vdW  Elec       q    Type
REMARK                         _______ _______ _______ _____ _____    ______ ____
ROOT
ATOM      1  C   UNL     1       1.793   8.089  19.735  0.00  0.00    +0.000 C 
ATOM      2  O   UNL     1       2.047   8.417  18.585  0.00  0.00    +0.000 OA
ATOM      3  N   UNL     1       2.220   6.930  20.355  0.00  0.00    +0.000 N 
ATOM      4  C   UNL     1       3.017   5.990  19.679  0.00  0.00    +0.000 A 
ATOM      5  C   UNL     1       4.098   6.388  18.931  0.00  0.00    +0.000 A 
ATOM      6  C   UNL     1       4.773   5.381  18.303  0.00  0.00    +0.000 A 
ATOM      7  N   UNL     1       4.396   4.093  18.368  0.00  0.00    +0.000 NA
ATOM      8  C   UNL     1       3.323   3.780  19.115  0.00  0.00    +0.000 A 
ATOM      9  N   UNL     1       2.925   2.458  19.169  0.00  0.00    +0.000 N 
ATOM     10  C   UNL     1       1.669   2.113  19.808  0.00  0.00    +0.000 C 
ATOM     11  C   UNL     1       3.419   1.535  18.159  0.00  0.00    +0.000 C 
ATOM     12  N   UNL     1       2.658   4.705  19.832  0.00  0.00    +0.000 NA
ATOM     13  H   UNL     1       1.626   6.526  21.066  0.00  0.00    +0.000 HD
ENDROOT
BRANCH   1  17
ATOM     14  C   UNL     1      -0.574  10.855  22.026  0.00  0.00    +0.000 A 
ATOM     15  C   UNL     1      -0.508  10.942  20.628  0.00  0.00    +0.000 A 
ATOM     16  C   UNL     1       0.228  10.010  19.883  0.00  0.00    +0.000 A 
ATOM     17  C   UNL     1       0.892   8.966  20.531  0.00  0.00    +0.000 A 
ATOM     18  C   UNL     1       0.802   8.835  21.919  0.00  0.00    +0.000 A 
ATOM     19  C   UNL     1       0.074   9.782  22.659  0.00  0.00    +0.000 A 
BRANCH  14  24
ATOM     20  C   UNL     1      -1.077  15.102  24.235  0.00  0.00    +0.000 C 
ATOM     21  C   UNL     1      -1.494  13.778  23.746  0.00  0.00    +0.000 A 
ATOM     22  N   UNL     1      -2.671  13.194  23.798  0.00  0.00    +0.000 NA
ATOM     23  N   UNL     1      -2.523  11.970  23.169  0.00  0.00    +0.000 NA
ATOM     24  C   UNL     1      -1.263  11.891  22.786  0.00  0.00    +0.000 A 
ATOM     25  O   UNL     1      -0.541  13.013  23.127  0.00  0.00    +0.000 OA
ENDBRANCH  14  24
ENDBRANCH   1  17
TORSDOF 2
ENDMDL
