MODEL 1
REMARK VINA RESULT:      -6.5      0.000      0.000
REMARK  Name = 
REMARK  9 active torsions:
REMARK  status: ('A' for Active; 'I' for Inactive)
REMARK    1  A    between atoms: C_1  and  C_2
REMARK    2  A    between atoms: C_2  and  C_3
REMARK    3  A    between atoms: C_3  and  C_4
REMARK    4  A    between atoms: N_12  and  C_13
REMARK    5  A    between atoms: C_13  and  C_14
REMARK    6  A    between atoms: C_23  and  C_24
REMARK    7  A    between atoms: C_24  and  O_26
REMARK    8  A    between atoms: O_26  and  C_27
REMARK    9  A    between atoms: C_28  and  N_29
REMARK                            x       y       z     vdW  Elec       q    Type
REMARK                         _______ _______ _______ _____ _____    ______ ____
ROOT
ATOM      1  C   UNL     1      -3.258  11.098  18.168  0.00  0.00    +0.000 A 
ATOM      2  N   UNL     1      -4.529  11.446  17.893  0.00  0.00    +0.000 NA
ATOM      3  N   UNL     1      -4.790  12.433  18.735  0.00  0.00    +0.000 N 
ATOM      4  C   UNL     1      -3.790  12.601  19.650  0.00  0.00    +0.000 A 
ATOM      5  C   UNL     1      -2.784  11.706  19.392  0.00  0.00    +0.000 A 
ATOM      6  C   UNL     1      -1.426  11.967  20.109  0.00  0.00    +0.000 C 
ATOM      7  C   UNL     1      -0.462  12.344  18.923  0.00  0.00    +0.000 C 
ATOM      8  O   UNL     1      -0.683  13.018  17.932  0.00  0.00    +0.000 OA
ATOM      9  N   UNL     1       0.780  11.698  19.124  0.00  0.00    +0.000 N 
ATOM     10  C   UNL     1       0.514  10.582  19.951  0.00  0.00    +0.000 A 
ATOM     11  C   UNL     1       1.343   9.468  20.048  0.00  0.00    +0.000 A 
ATOM     12  C   UNL     1       1.049   8.522  21.023  0.00  0.00    +0.000 A 
ATOM     13  C   UNL     1       0.017   8.786  21.929  0.00  0.00    +0.000 A 
ATOM     14  C   UNL     1      -0.867   9.883  21.749  0.00  0.00    +0.000 A 
ATOM     15  C   UNL     1      -0.705  10.723  20.649  0.00  0.00    +0.000 A 
ATOM     16  C   UNL     1      -1.555  13.199  21.096  0.00  0.00    +0.000 C 
ATOM     17  C   UNL     1      -2.640  14.024  21.034  0.00  0.00    +0.000 C 
ATOM     18  O   UNL     1      -3.799  13.693  20.380  0.00  0.00    +0.000 OA
ATOM     19  H   UNL     1      -5.582  13.043  18.577  0.00  0.00    +0.000 HD
ENDROOT
BRANCH  17  20
ATOM     20  N   UNL     1      -2.781  15.269  21.609  0.00  0.00    +0.000 N 
ATOM     21  H   UNL     1      -3.419  15.326  22.400  0.00  0.00    +0.000 HD
ATOM     22  H   UNL     1      -2.895  16.012  20.925  0.00  0.00    +0.000 HD
ENDBRANCH  17  20
BRANCH  16  23
ATOM     23  C   UNL     1      -0.491  13.485  22.104  0.00  0.00    +0.000 C 
ATOM     24  O   UNL     1      -0.384  12.936  23.177  0.00  0.00    +0.000 OA
BRANCH  23  25
ATOM     25  O   UNL     1       0.349  14.484  21.700  0.00  0.00    +0.000 OA
ATOM     26  C   UNL     1       0.555  15.605  22.566  0.00  0.00    +0.000 C 
ENDBRANCH  23  25
ENDBRANCH  16  23
BRANCH   1  27
ATOM     27  C   UNL     1      -2.617  10.316  17.051  0.00  0.00    +0.000 C 
BRANCH  27  29
ATOM     28  C   UNL     1      -3.183   9.993  14.607  0.00  0.00    +0.000 C 
ATOM     29  C   UNL     1      -2.724  10.961  15.688  0.00  0.00    +0.000 C 
ENDBRANCH  27  29
ENDBRANCH   1  27
BRANCH   9  30
ATOM     30  C   UNL     1       1.741  12.680  19.673  0.00  0.00    +0.000 C 
BRANCH  30  31
ATOM     31  C   UNL     1       2.644  13.355  18.659  0.00  0.00    +0.000 C 
ATOM     32  N   UNL     1       2.571  12.896  17.387  0.00  0.00    +0.000 N 
ATOM     33  O   UNL     1       3.370  14.307  18.960  0.00  0.00    +0.000 OA
ATOM     34  H   UNL     1       1.838  12.246  17.128  0.00  0.00    +0.000 HD
ATOM     35  H   UNL     1       3.057  13.408  16.666  0.00  0.00    +0.000 HD
ENDBRANCH  30  31
ENDBRANCH   9  30
TORSDOF 7
ENDMDL
MODEL 2
REMARK VINA RESULT:      -6.4      2.638      4.780
REMARK  Name = 
REMARK  9 active torsions:
REMARK  status: ('A' for Active; 'I' for Inactive)
REMARK    1  A    between atoms: C_1  and  C_2
REMARK    2  A    between atoms: C_2  and  C_3
REMARK    3  A    between atoms: C_3  and  C_4
REMARK    4  A    between atoms: N_12  and  C_13
REMARK    5  A    between atoms: C_13  and  C_14
REMARK    6  A    between atoms: C_23  and  C_24
REMARK    7  A    between atoms: C_24  and  O_26
REMARK    8  A    between atoms: O_26  and  C_27
REMARK    9  A    between atoms: C_28  and  N_29
REMARK                            x       y       z     vdW  Elec       q    Type
REMARK                         _______ _______ _______ _____ _____    ______ ____
ROOT
ATOM      1  C   UNL     1       0.071  15.488  19.783  0.00  0.00    +0.000 A 
ATOM      2  N   UNL     1       0.091  16.834  19.734  0.00  0.00    +0.000 NA
ATOM      3  N   UNL     1      -0.933  17.206  20.485  0.00  0.00    +0.000 N 
ATOM      4  C   UNL     1      -1.702  16.143  20.863  0.00  0.00    +0.000 A 
ATOM      5  C   UNL     1      -1.151  14.988  20.372  0.00  0.00    +0.000 A 
ATOM      6  C   UNL     1      -1.689  13.655  20.974  0.00  0.00    +0.000 C 
ATOM      7  C   UNL     1      -0.451  13.096  21.769  0.00  0.00    +0.000 C 
ATOM      8  O   UNL     1       0.371  13.694  22.441  0.00  0.00    +0.000 OA
ATOM      9  N   UNL     1      -0.353  11.704  21.538  0.00  0.00    +0.000 N 
ATOM     10  C   UNL     1      -1.015  11.461  20.311  0.00  0.00    +0.000 A 
ATOM     11  C   UNL     1      -0.801  10.338  19.518  0.00  0.00    +0.000 A 
ATOM     12  C   UNL     1      -1.639  10.143  18.427  0.00  0.00    +0.000 A 
ATOM     13  C   UNL     1      -2.720  11.010  18.244  0.00  0.00    +0.000 A 
ATOM     14  C   UNL     1      -2.859  12.197  19.012  0.00  0.00    +0.000 A 
ATOM     15  C   UNL     1      -1.901  12.507  19.975  0.00  0.00    +0.000 A 
ATOM     16  C   UNL     1      -2.874  13.948  21.984  0.00  0.00    +0.000 C 
ATOM     17  C   UNL     1      -3.113  15.220  22.418  0.00  0.00    +0.000 C 
ATOM     18  O   UNL     1      -2.595  16.332  21.807  0.00  0.00    +0.000 OA
ATOM     19  H   UNL     1      -0.998  18.158  20.823  0.00  0.00    +0.000 HD
ENDROOT
BRANCH  17  20
ATOM     20  N   UNL     1      -3.901  15.608  23.480  0.00  0.00    +0.000 N 
ATOM     21  H   UNL     1      -4.262  14.859  24.067  0.00  0.00    +0.000 HD
ATOM     22  H   UNL     1      -4.591  16.311  23.227  0.00  0.00    +0.000 HD
ENDBRANCH  17  20
BRANCH  16  23
ATOM     23  C   UNL     1      -3.745  12.842  22.482  0.00  0.00    +0.000 C 
ATOM     24  O   UNL     1      -4.642  12.327  21.856  0.00  0.00    +0.000 OA
BRANCH  23  25
ATOM     25  O   UNL     1      -3.443  12.487  23.767  0.00  0.00    +0.000 OA
ATOM     26  C   UNL     1      -4.508  12.349  24.713  0.00  0.00    +0.000 C 
ENDBRANCH  23  25
ENDBRANCH  16  23
BRANCH   1  27
ATOM     27  C   UNL     1       1.386  14.875  19.377  0.00  0.00    +0.000 C 
BRANCH  27  29
ATOM     28  C   UNL     1       2.175  12.543  18.799  0.00  0.00    +0.000 C 
ATOM     29  C   UNL     1       1.270  13.707  18.425  0.00  0.00    +0.000 C 
ENDBRANCH  27  29
ENDBRANCH   1  27
BRANCH   9  30
ATOM     30  C   UNL     1      -0.906  10.989  22.709  0.00  0.00    +0.000 C 
BRANCH  30  31
ATOM     31  C   UNL     1      -0.200   9.702  23.088  0.00  0.00    +0.000 C 
ATOM     32  N   UNL     1      -0.714   8.558  22.575  0.00  0.00    +0.000 N 
ATOM     33  O   UNL     1       0.819   9.694  23.784  0.00  0.00    +0.000 OA
ATOM     34  H   UNL     1      -1.432   8.605  21.860  0.00  0.00    +0.000 HD
ATOM     35  H   UNL     1      -0.193   7.703  22.698  0.00  0.00    +0.000 HD
ENDBRANCH  30  31
ENDBRANCH   9  30
TORSDOF 7
ENDMDL
MODEL 3
REMARK VINA RESULT:      -6.3      0.787      1.211
REMARK  Name = 
REMARK  9 active torsions:
REMARK  status: ('A' for Active; 'I' for Inactive)
REMARK    1  A    between atoms: C_1  and  C_2
REMARK    2  A    between atoms: C_2  and  C_3
REMARK    3  A    between atoms: C_3  and  C_4
REMARK    4  A    between atoms: N_12  and  C_13
REMARK    5  A    between atoms: C_13  and  C_14
REMARK    6  A    between atoms: C_23  and  C_24
REMARK    7  A    between atoms: C_24  and  O_26
REMARK    8  A    between atoms: O_26  and  C_27
REMARK    9  A    between atoms: C_28  and  N_29
REMARK                            x       y       z     vdW  Elec       q    Type
REMARK                         _______ _______ _______ _____ _____    ______ ____
ROOT
ATOM      1  C   UNL     1      -2.991  11.065  17.705  0.00  0.00    +0.000 A 
ATOM      2  N   UNL     1      -4.274  11.379  17.444  0.00  0.00    +0.000 NA
ATOM      3  N   UNL     1      -4.620  12.195  18.427  0.00  0.00    +0.000 N 
ATOM      4  C   UNL     1      -3.657  12.267  19.393  0.00  0.00    +0.000 A 
ATOM      5  C   UNL     1      -2.589  11.488  19.028  0.00  0.00    +0.000 A 
ATOM      6  C   UNL     1      -1.270  11.705  19.828  0.00  0.00    +0.000 C 
ATOM      7  C   UNL     1      -0.301  12.330  18.756  0.00  0.00    +0.000 C 
ATOM      8  O   UNL     1      -0.538  13.144  17.882  0.00  0.00    +0.000 OA
ATOM      9  N   UNL     1       0.974  11.733  18.893  0.00  0.00    +0.000 N 
ATOM     10  C   UNL     1       0.758  10.482  19.516  0.00  0.00    +0.000 A 
ATOM     11  C   UNL     1       1.654   9.417  19.459  0.00  0.00    +0.000 A 
ATOM     12  C   UNL     1       1.395   8.307  20.254  0.00  0.00    +0.000 A 
ATOM     13  C   UNL     1       0.325   8.356  21.152  0.00  0.00    +0.000 A 
ATOM     14  C   UNL     1      -0.623   9.414  21.122  0.00  0.00    +0.000 A 
ATOM     15  C   UNL     1      -0.485  10.432  20.182  0.00  0.00    +0.000 A 
ATOM     16  C   UNL     1      -1.503  12.747  20.998  0.00  0.00    +0.000 C 
ATOM     17  C   UNL     1      -2.637  13.505  21.033  0.00  0.00    +0.000 C 
ATOM     18  O   UNL     1      -3.754  13.220  20.292  0.00  0.00    +0.000 OA
ATOM     19  H   UNL     1      -5.445  12.775  18.342  0.00  0.00    +0.000 HD
ENDROOT
BRANCH  17  20
ATOM     20  N   UNL     1      -2.872  14.626  21.799  0.00  0.00    +0.000 N 
ATOM     21  H   UNL     1      -2.687  15.521  21.351  0.00  0.00    +0.000 HD
ATOM     22  H   UNL     1      -2.503  14.547  22.744  0.00  0.00    +0.000 HD
ENDBRANCH  17  20
BRANCH  16  23
ATOM     23  C   UNL     1      -0.486  12.922  22.078  0.00  0.00    +0.000 C 
ATOM     24  O   UNL     1       0.379  13.767  22.088  0.00  0.00    +0.000 OA
BRANCH  23  25
ATOM     25  O   UNL     1      -0.611  11.982  23.063  0.00  0.00    +0.000 OA
ATOM     26  C   UNL     1      -1.922  11.590  23.480  0.00  0.00    +0.000 C 
ENDBRANCH  23  25
ENDBRANCH  16  23
BRANCH   1  27
ATOM     27  C   UNL     1      -2.273  10.518  16.499  0.00  0.00    +0.000 C 
BRANCH  27  29
ATOM     28  C   UNL     1      -3.058  10.104  14.131  0.00  0.00    +0.000 C 
ATOM     29  C   UNL     1      -3.127   9.668  15.587  0.00  0.00    +0.000 C 
ENDBRANCH  27  29
ENDBRANCH   1  27
BRANCH   9  30
ATOM     30  C   UNL     1       1.856  12.664  19.631  0.00  0.00    +0.000 C 
BRANCH  30  31
ATOM     31  C   UNL     1       2.788  13.502  18.778  0.00  0.00    +0.000 C 
ATOM     32  N   UNL     1       2.667  13.363  17.437  0.00  0.00    +0.000 N 
ATOM     33  O   UNL     1       3.582  14.307  19.273  0.00  0.00    +0.000 OA
ATOM     34  H   UNL     1       1.887  12.840  17.053  0.00  0.00    +0.000 HD
ATOM     35  H   UNL     1       3.176  14.000  16.842  0.00  0.00    +0.000 HD
ENDBRANCH  30  31
ENDBRANCH   9  30
TORSDOF 7
ENDMDL
MODEL 4
REMARK VINA RESULT:      -6.3      0.986      1.171
REMARK  Name = 
REMARK  9 active torsions:
REMARK  status: ('A' for Active; 'I' for Inactive)
REMARK    1  A    between atoms: C_1  and  C_2
REMARK    2  A    between atoms: C_2  and  C_3
REMARK    3  A    between atoms: C_3  and  C_4
REMARK    4  A    between atoms: N_12  and  C_13
REMARK    5  A    between atoms: C_13  and  C_14
REMARK    6  A    between atoms: C_23  and  C_24
REMARK    7  A    between atoms: C_24  and  O_26
REMARK    8  A    between atoms: O_26  and  C_27
REMARK    9  A    between atoms: C_28  and  N_29
REMARK                            x       y       z     vdW  Elec       q    Type
REMARK                         _______ _______ _______ _____ _____    ______ ____
ROOT
ATOM      1  C   UNL     1      -3.397  11.497  18.889  0.00  0.00    +0.000 A 
ATOM      2  N   UNL     1      -4.640  11.873  18.530  0.00  0.00    +0.000 NA
ATOM      3  N   UNL     1      -4.830  13.023  19.157  0.00  0.00    +0.000 N 
ATOM      4  C   UNL     1      -3.823  13.297  20.037  0.00  0.00    +0.000 A 
ATOM      5  C   UNL     1      -2.884  12.300  19.977  0.00  0.00    +0.000 A 
ATOM      6  C   UNL     1      -1.512  12.601  20.651  0.00  0.00    +0.000 C 
ATOM      7  C   UNL     1      -0.520  12.668  19.430  0.00  0.00    +0.000 C 
ATOM      8  O   UNL     1      -0.690  13.146  18.322  0.00  0.00    +0.000 OA
ATOM      9  N   UNL     1       0.671  11.988  19.774  0.00  0.00    +0.000 N 
ATOM     10  C   UNL     1       0.323  11.079  20.801  0.00  0.00    +0.000 A 
ATOM     11  C   UNL     1       1.069   9.950  21.129  0.00  0.00    +0.000 A 
ATOM     12  C   UNL     1       0.705   9.239  22.266  0.00  0.00    +0.000 A 
ATOM     13  C   UNL     1      -0.307   9.749  23.085  0.00  0.00    +0.000 A 
ATOM     14  C   UNL     1      -1.109  10.848  22.678  0.00  0.00    +0.000 A 
ATOM     15  C   UNL     1      -0.883  11.440  21.437  0.00  0.00    +0.000 A 
ATOM     16  C   UNL     1      -1.553  14.010  21.373  0.00  0.00    +0.000 C 
ATOM     17  C   UNL     1      -2.575  14.880  21.132  0.00  0.00    +0.000 C 
ATOM     18  O   UNL     1      -3.754  14.510  20.538  0.00  0.00    +0.000 OA
ATOM     19  H   UNL     1      -5.576  13.644  18.869  0.00  0.00    +0.000 HD
ENDROOT
BRANCH  17  20
ATOM     20  N   UNL     1      -2.627  16.221  21.449  0.00  0.00    +0.000 N 
ATOM     21  H   UNL     1      -3.331  16.770  20.959  0.00  0.00    +0.000 HD
ATOM     22  H   UNL     1      -1.709  16.656  21.487  0.00  0.00    +0.000 HD
ENDBRANCH  17  20
BRANCH  16  23
ATOM     23  C   UNL     1      -0.473  14.414  22.323  0.00  0.00    +0.000 C 
ATOM     24  O   UNL     1       0.542  14.996  22.017  0.00  0.00    +0.000 OA
BRANCH  23  25
ATOM     25  O   UNL     1      -0.735  14.012  23.603  0.00  0.00    +0.000 OA
ATOM     26  C   UNL     1      -1.208  14.979  24.546  0.00  0.00    +0.000 C 
ENDBRANCH  23  25
ENDBRANCH  16  23
BRANCH   1  27
ATOM     27  C   UNL     1      -2.813  10.467  17.958  0.00  0.00    +0.000 C 
BRANCH  27  29
ATOM     28  C   UNL     1      -2.953   9.880  15.502  0.00  0.00    +0.000 C 
ATOM     29  C   UNL     1      -2.612  10.942  16.538  0.00  0.00    +0.000 C 
ENDBRANCH  27  29
ENDBRANCH   1  27
BRANCH   9  30
ATOM     30  C   UNL     1       1.700  12.988  20.135  0.00  0.00    +0.000 C 
BRANCH  30  31
ATOM     31  C   UNL     1       2.643  13.394  19.019  0.00  0.00    +0.000 C 
ATOM     32  N   UNL     1       2.502  12.739  17.842  0.00  0.00    +0.000 N 
ATOM     33  O   UNL     1       3.463  14.306  19.155  0.00  0.00    +0.000 OA
ATOM     34  H   UNL     1       1.705  12.129  17.698  0.00  0.00    +0.000 HD
ATOM     35  H   UNL     1       3.020  13.074  17.044  0.00  0.00    +0.000 HD
ENDBRANCH  30  31
ENDBRANCH   9  30
TORSDOF 7
ENDMDL
MODEL 5
REMARK VINA RESULT:      -6.2      2.787      5.076
REMARK  Name = 
REMARK  9 active torsions:
REMARK  status: ('A' for Active; 'I' for Inactive)
REMARK    1  A    between atoms: C_1  and  C_2
REMARK    2  A    between atoms: C_2  and  C_3
REMARK    3  A    between atoms: C_3  and  C_4
REMARK    4  A    between atoms: N_12  and  C_13
REMARK    5  A    between atoms: C_13  and  C_14
REMARK    6  A    between atoms: C_23  and  C_24
REMARK    7  A    between atoms: C_24  and  O_26
REMARK    8  A    between atoms: O_26  and  C_27
REMARK    9  A    between atoms: C_28  and  N_29
REMARK                            x       y       z     vdW  Elec       q    Type
REMARK                         _______ _______ _______ _____ _____    ______ ____
ROOT
ATOM      1  C   UNL     1      -0.590  15.922  20.636  0.00  0.00    +0.000 A 
ATOM      2  N   UNL     1      -0.666  17.257  20.796  0.00  0.00    +0.000 NA
ATOM      3  N   UNL     1      -1.674  17.431  21.636  0.00  0.00    +0.000 N 
ATOM      4  C   UNL     1      -2.348  16.267  21.873  0.00  0.00    +0.000 A 
ATOM      5  C   UNL     1      -1.744  15.245  21.186  0.00  0.00    +0.000 A 
ATOM      6  C   UNL     1      -2.158  13.800  21.593  0.00  0.00    +0.000 C 
ATOM      7  C   UNL     1      -0.846  13.221  22.242  0.00  0.00    +0.000 C 
ATOM      8  O   UNL     1      -0.035  13.770  22.967  0.00  0.00    +0.000 OA
ATOM      9  N   UNL     1      -0.664  11.892  21.792  0.00  0.00    +0.000 N 
ATOM     10  C   UNL     1      -1.368  11.791  20.569  0.00  0.00    +0.000 A 
ATOM     11  C   UNL     1      -1.116  10.821  19.603  0.00  0.00    +0.000 A 
ATOM     12  C   UNL     1      -1.993  10.733  18.528  0.00  0.00    +0.000 A 
ATOM     13  C   UNL     1      -3.139  11.533  18.525  0.00  0.00    +0.000 A 
ATOM     14  C   UNL     1      -3.321  12.574  19.474  0.00  0.00    +0.000 A 
ATOM     15  C   UNL     1      -2.340  12.805  20.436  0.00  0.00    +0.000 A 
ATOM     16  C   UNL     1      -3.308  13.844  22.681  0.00  0.00    +0.000 C 
ATOM     17  C   UNL     1      -3.612  15.012  23.318  0.00  0.00    +0.000 C 
ATOM     18  O   UNL     1      -3.204  16.241  22.869  0.00  0.00    +0.000 OA
ATOM     19  H   UNL     1      -1.788  18.312  22.121  0.00  0.00    +0.000 HD
ENDROOT
BRANCH  17  20
ATOM     20  N   UNL     1      -4.371  15.172  24.458  0.00  0.00    +0.000 N 
ATOM     21  H   UNL     1      -5.128  15.850  24.399  0.00  0.00    +0.000 HD
ATOM     22  H   UNL     1      -3.809  15.243  25.302  0.00  0.00    +0.000 HD
ENDBRANCH  17  20
BRANCH  16  23
ATOM     23  C   UNL     1      -4.074  12.611  23.034  0.00  0.00    +0.000 C 
ATOM     24  O   UNL     1      -3.849  11.901  23.986  0.00  0.00    +0.000 OA
BRANCH  23  25
ATOM     25  O   UNL     1      -5.058  12.337  22.126  0.00  0.00    +0.000 OA
ATOM     26  C   UNL     1      -6.389  12.789  22.393  0.00  0.00    +0.000 C 
ENDBRANCH  23  25
ENDBRANCH  16  23
BRANCH   1  27
ATOM     27  C   UNL     1       0.741  15.480  20.087  0.00  0.00    +0.000 C 
BRANCH  27  29
ATOM     28  C   UNL     1       1.643  13.353  19.058  0.00  0.00    +0.000 C 
ATOM     29  C   UNL     1       0.658  14.506  18.935  0.00  0.00    +0.000 C 
ENDBRANCH  27  29
ENDBRANCH   1  27
BRANCH   9  30
ATOM     30  C   UNL     1      -1.107  10.966  22.857  0.00  0.00    +0.000 C 
BRANCH  30  31
ATOM     31  C   UNL     1      -0.260   9.722  23.042  0.00  0.00    +0.000 C 
ATOM     32  N   UNL     1      -0.528   8.682  22.217  0.00  0.00    +0.000 N 
ATOM     33  O   UNL     1       0.660   9.672  23.863  0.00  0.00    +0.000 OA
ATOM     34  H   UNL     1      -1.158   8.811  21.433  0.00  0.00    +0.000 HD
ATOM     35  H   UNL     1       0.100   7.893  22.224  0.00  0.00    +0.000 HD
ENDBRANCH  30  31
ENDBRANCH   9  30
TORSDOF 7
ENDMDL
MODEL 6
REMARK VINA RESULT:      -6.2      1.177      1.236
REMARK  Name = 
REMARK  9 active torsions:
REMARK  status: ('A' for Active; 'I' for Inactive)
REMARK    1  A    between atoms: C_1  and  C_2
REMARK    2  A    between atoms: C_2  and  C_3
REMARK    3  A    between atoms: C_3  and  C_4
REMARK    4  A    between atoms: N_12  and  C_13
REMARK    5  A    between atoms: C_13  and  C_14
REMARK    6  A    between atoms: C_23  and  C_24
REMARK    7  A    between atoms: C_24  and  O_26
REMARK    8  A    between atoms: O_26  and  C_27
REMARK    9  A    between atoms: C_28  and  N_29
REMARK                            x       y       z     vdW  Elec       q    Type
REMARK                         _______ _______ _______ _____ _____    ______ ____
ROOT
ATOM      1  C   UNL     1      -3.310  11.569  18.980  0.00  0.00    +0.000 A 
ATOM      2  N   UNL     1      -4.543  11.926  18.572  0.00  0.00    +0.000 NA
ATOM      3  N   UNL     1      -4.801  13.040  19.237  0.00  0.00    +0.000 N 
ATOM      4  C   UNL     1      -3.849  13.304  20.180  0.00  0.00    +0.000 A 
ATOM      5  C   UNL     1      -2.878  12.337  20.127  0.00  0.00    +0.000 A 
ATOM      6  C   UNL     1      -1.552  12.646  20.885  0.00  0.00    +0.000 C 
ATOM      7  C   UNL     1      -0.502  12.796  19.722  0.00  0.00    +0.000 C 
ATOM      8  O   UNL     1      -0.628  13.318  18.628  0.00  0.00    +0.000 OA
ATOM      9  N   UNL     1       0.691  12.136  20.099  0.00  0.00    +0.000 N 
ATOM     10  C   UNL     1       0.318  11.172  21.066  0.00  0.00    +0.000 A 
ATOM     11  C   UNL     1       1.081  10.051  21.383  0.00  0.00    +0.000 A 
ATOM     12  C   UNL     1       0.680   9.280  22.468  0.00  0.00    +0.000 A 
ATOM     13  C   UNL     1      -0.387   9.723  23.254  0.00  0.00    +0.000 A 
ATOM     14  C   UNL     1      -1.201  10.817  22.852  0.00  0.00    +0.000 A 
ATOM     15  C   UNL     1      -0.930  11.470  21.652  0.00  0.00    +0.000 A 
ATOM     16  C   UNL     1      -1.674  14.020  21.664  0.00  0.00    +0.000 C 
ATOM     17  C   UNL     1      -2.709  14.871  21.407  0.00  0.00    +0.000 C 
ATOM     18  O   UNL     1      -3.843  14.494  20.736  0.00  0.00    +0.000 OA
ATOM     19  H   UNL     1      -5.549  13.652  18.937  0.00  0.00    +0.000 HD
ENDROOT
BRANCH  17  20
ATOM     20  N   UNL     1      -2.818  16.194  21.778  0.00  0.00    +0.000 N 
ATOM     21  H   UNL     1      -3.295  16.806  21.119  0.00  0.00    +0.000 HD
ATOM     22  H   UNL     1      -1.952  16.575  22.151  0.00  0.00    +0.000 HD
ENDBRANCH  17  20
BRANCH  16  23
ATOM     23  C   UNL     1      -0.658  14.411  22.686  0.00  0.00    +0.000 C 
ATOM     24  O   UNL     1      -0.618  13.997  23.822  0.00  0.00    +0.000 OA
BRANCH  23  25
ATOM     25  O   UNL     1       0.225  15.340  22.209  0.00  0.00    +0.000 OA
ATOM     26  C   UNL     1       0.619  16.418  23.062  0.00  0.00    +0.000 C 
ENDBRANCH  23  25
ENDBRANCH  16  23
BRANCH   1  27
ATOM     27  C   UNL     1      -2.647  10.599  18.037  0.00  0.00    +0.000 C 
BRANCH  27  29
ATOM     28  C   UNL     1      -2.849  10.021  15.584  0.00  0.00    +0.000 C 
ATOM     29  C   UNL     1      -2.516  11.090  16.614  0.00  0.00    +0.000 C 
ENDBRANCH  27  29
ENDBRANCH   1  27
BRANCH   9  30
ATOM     30  C   UNL     1       1.668  13.147  20.557  0.00  0.00    +0.000 C 
BRANCH  30  31
ATOM     31  C   UNL     1       2.250  14.036  19.475  0.00  0.00    +0.000 C 
ATOM     32  N   UNL     1       1.849  15.330  19.477  0.00  0.00    +0.000 N 
ATOM     33  O   UNL     1       3.084  13.622  18.665  0.00  0.00    +0.000 OA
ATOM     34  H   UNL     1       1.313  15.689  20.259  0.00  0.00    +0.000 HD
ATOM     35  H   UNL     1       2.315  15.976  18.858  0.00  0.00    +0.000 HD
ENDBRANCH  30  31
ENDBRANCH   9  30
TORSDOF 7
ENDMDL
MODEL 7
REMARK VINA RESULT:      -6.1      2.377      4.883
REMARK  Name = 
REMARK  9 active torsions:
REMARK  status: ('A' for Active; 'I' for Inactive)
REMARK    1  A    between atoms: C_1  and  C_2
REMARK    2  A    between atoms: C_2  and  C_3
REMARK    3  A    between atoms: C_3  and  C_4
REMARK    4  A    between atoms: N_12  and  C_13
REMARK    5  A    between atoms: C_13  and  C_14
REMARK    6  A    between atoms: C_23  and  C_24
REMARK    7  A    between atoms: C_24  and  O_26
REMARK    8  A    between atoms: O_26  and  C_27
REMARK    9  A    between atoms: C_28  and  N_29
REMARK                            x       y       z     vdW  Elec       q    Type
REMARK                         _______ _______ _______ _____ _____    ______ ____
ROOT
ATOM      1  C   UNL     1       1.334  14.871  18.742  0.00  0.00    +0.000 A 
ATOM      2  N   UNL     1       1.555  16.196  18.645  0.00  0.00    +0.000 NA
ATOM      3  N   UNL     1       0.608  16.743  19.391  0.00  0.00    +0.000 N 
ATOM      4  C   UNL     1      -0.306  15.821  19.813  0.00  0.00    +0.000 A 
ATOM      5  C   UNL     1       0.059  14.580  19.358  0.00  0.00    +0.000 A 
ATOM      6  C   UNL     1      -0.665  13.365  20.011  0.00  0.00    +0.000 C 
ATOM      7  C   UNL     1       0.486  12.652  20.815  0.00  0.00    +0.000 C 
ATOM      8  O   UNL     1       1.397  13.143  21.459  0.00  0.00    +0.000 OA
ATOM      9  N   UNL     1       0.371  11.255  20.632  0.00  0.00    +0.000 N 
ATOM     10  C   UNL     1      -0.336  11.074  19.420  0.00  0.00    +0.000 A 
ATOM     11  C   UNL     1      -0.303   9.904  18.666  0.00  0.00    +0.000 A 
ATOM     12  C   UNL     1      -1.175   9.801  17.588  0.00  0.00    +0.000 A 
ATOM     13  C   UNL     1      -2.117  10.814  17.384  0.00  0.00    +0.000 A 
ATOM     14  C   UNL     1      -2.066  12.033  18.111  0.00  0.00    +0.000 A 
ATOM     15  C   UNL     1      -1.060  12.228  19.055  0.00  0.00    +0.000 A 
ATOM     16  C   UNL     1      -1.779  13.866  21.019  0.00  0.00    +0.000 C 
ATOM     17  C   UNL     1      -1.819  15.173  21.410  0.00  0.00    +0.000 C 
ATOM     18  O   UNL     1      -1.149  16.174  20.757  0.00  0.00    +0.000 OA
ATOM     19  H   UNL     1       0.691  17.705  19.695  0.00  0.00    +0.000 HD
ENDROOT
BRANCH  17  20
ATOM     20  N   UNL     1      -2.526  15.711  22.465  0.00  0.00    +0.000 N 
ATOM     21  H   UNL     1      -2.135  15.555  23.391  0.00  0.00    +0.000 HD
ATOM     22  H   UNL     1      -3.527  15.543  22.399  0.00  0.00    +0.000 HD
ENDBRANCH  17  20
BRANCH  16  23
ATOM     23  C   UNL     1      -2.799  12.921  21.563  0.00  0.00    +0.000 C 
ATOM     24  O   UNL     1      -3.758  12.505  20.954  0.00  0.00    +0.000 OA
BRANCH  23  25
ATOM     25  O   UNL     1      -2.556  12.593  22.868  0.00  0.00    +0.000 OA
ATOM     26  C   UNL     1      -3.662  12.476  23.767  0.00  0.00    +0.000 C 
ENDBRANCH  23  25
ENDBRANCH  16  23
BRANCH   1  27
ATOM     27  C   UNL     1       2.536  14.054  18.346  0.00  0.00    +0.000 C 
BRANCH  27  29
ATOM     28  C   UNL     1       4.892  14.862  17.907  0.00  0.00    +0.000 C 
ATOM     29  C   UNL     1       3.841  14.518  18.952  0.00  0.00    +0.000 C 
ENDBRANCH  27  29
ENDBRANCH   1  27
BRANCH   9  30
ATOM     30  C   UNL     1      -0.268  10.671  21.832  0.00  0.00    +0.000 C 
BRANCH  30  31
ATOM     31  C   UNL     1       0.570   9.667  22.600  0.00  0.00    +0.000 C 
ATOM     32  N   UNL     1       1.444   8.930  21.875  0.00  0.00    +0.000 N 
ATOM     33  O   UNL     1       0.500   9.560  23.828  0.00  0.00    +0.000 OA
ATOM     34  H   UNL     1       1.616   9.165  20.904  0.00  0.00    +0.000 HD
ATOM     35  H   UNL     1       2.107   8.352  22.369  0.00  0.00    +0.000 HD
ENDBRANCH  30  31
ENDBRANCH   9  30
TORSDOF 7
ENDMDL
MODEL 8
REMARK VINA RESULT:      -6.0      2.416      4.872
REMARK  Name = 
REMARK  9 active torsions:
REMARK  status: ('A' for Active; 'I' for Inactive)
REMARK    1  A    between atoms: C_1  and  C_2
REMARK    2  A    between atoms: C_2  and  C_3
REMARK    3  A    between atoms: C_3  and  C_4
REMARK    4  A    between atoms: N_12  and  C_13
REMARK    5  A    between atoms: C_13  and  C_14
REMARK    6  A    between atoms: C_23  and  C_24
REMARK    7  A    between atoms: C_24  and  O_26
REMARK    8  A    between atoms: O_26  and  C_27
REMARK    9  A    between atoms: C_28  and  N_29
REMARK                            x       y       z     vdW  Elec       q    Type
REMARK                         _______ _______ _______ _____ _____    ______ ____
ROOT
ATOM      1  C   UNL     1       1.193  14.816  19.299  0.00  0.00    +0.000 A 
ATOM      2  N   UNL     1       1.518  16.106  19.511  0.00  0.00    +0.000 NA
ATOM      3  N   UNL     1       0.905  16.418  20.641  0.00  0.00    +0.000 N 
ATOM      4  C   UNL     1       0.063  15.426  21.057  0.00  0.00    +0.000 A 
ATOM      5  C   UNL     1       0.137  14.373  20.182  0.00  0.00    +0.000 A 
ATOM      6  C   UNL     1      -0.486  13.029  20.664  0.00  0.00    +0.000 C 
ATOM      7  C   UNL     1       0.768  12.091  20.827  0.00  0.00    +0.000 C 
ATOM      8  O   UNL     1       1.878  12.352  21.257  0.00  0.00    +0.000 OA
ATOM      9  N   UNL     1       0.451  10.815  20.307  0.00  0.00    +0.000 N 
ATOM     10  C   UNL     1      -0.601  11.016  19.384  0.00  0.00    +0.000 A 
ATOM     11  C   UNL     1      -0.924  10.126  18.363  0.00  0.00    +0.000 A 
ATOM     12  C   UNL     1      -2.085  10.364  17.636  0.00  0.00    +0.000 A 
ATOM     13  C   UNL     1      -2.928  11.405  18.035  0.00  0.00    +0.000 A 
ATOM     14  C   UNL     1      -2.528  12.350  19.018  0.00  0.00    +0.000 A 
ATOM     15  C   UNL     1      -1.271  12.238  19.607  0.00  0.00    +0.000 A 
ATOM     16  C   UNL     1      -1.185  13.222  22.072  0.00  0.00    +0.000 C 
ATOM     17  C   UNL     1      -0.963  14.352  22.804  0.00  0.00    +0.000 C 
ATOM     18  O   UNL     1      -0.414  15.493  22.279  0.00  0.00    +0.000 OA
ATOM     19  H   UNL     1       1.179  17.243  21.160  0.00  0.00    +0.000 HD
ENDROOT
BRANCH  17  20
ATOM     20  N   UNL     1      -1.258  14.560  24.135  0.00  0.00    +0.000 N 
ATOM     21  H   UNL     1      -1.161  13.751  24.747  0.00  0.00    +0.000 HD
ATOM     22  H   UNL     1      -2.115  15.089  24.274  0.00  0.00    +0.000 HD
ENDBRANCH  17  20
BRANCH  16  23
ATOM     23  C   UNL     1      -2.092  12.172  22.626  0.00  0.00    +0.000 C 
ATOM     24  O   UNL     1      -1.741  11.247  23.321  0.00  0.00    +0.000 OA
BRANCH  23  25
ATOM     25  O   UNL     1      -3.387  12.345  22.224  0.00  0.00    +0.000 OA
ATOM     26  C   UNL     1      -4.335  12.866  23.160  0.00  0.00    +0.000 C 
ENDBRANCH  23  25
ENDBRANCH  16  23
BRANCH   1  27
ATOM     27  C   UNL     1       2.125  14.137  18.329  0.00  0.00    +0.000 C 
BRANCH  27  29
ATOM     28  C   UNL     1       4.595  14.661  18.194  0.00  0.00    +0.000 C 
ATOM     29  C   UNL     1       3.190  15.035  17.744  0.00  0.00    +0.000 C 
ENDBRANCH  27  29
ENDBRANCH   1  27
BRANCH   9  30
ATOM     30  C   UNL     1       0.142   9.907  21.434  0.00  0.00    +0.000 C 
BRANCH  30  31
ATOM     31  C   UNL     1       1.311   9.108  21.975  0.00  0.00    +0.000 C 
ATOM     32  N   UNL     1       1.668   8.008  21.270  0.00  0.00    +0.000 N 
ATOM     33  O   UNL     1       1.940   9.464  22.975  0.00  0.00    +0.000 OA
ATOM     34  H   UNL     1       1.260   7.841  20.357  0.00  0.00    +0.000 HD
ATOM     35  H   UNL     1       2.519   7.531  21.526  0.00  0.00    +0.000 HD
ENDBRANCH  30  31
ENDBRANCH   9  30
TORSDOF 7
ENDMDL
MODEL 9
REMARK VINA RESULT:      -6.0      1.566      1.901
REMARK  Name = 
REMARK  9 active torsions:
REMARK  status: ('A' for Active; 'I' for Inactive)
REMARK    1  A    between atoms: C_1  and  C_2
REMARK    2  A    between atoms: C_2  and  C_3
REMARK    3  A    between atoms: C_3  and  C_4
REMARK    4  A    between atoms: N_12  and  C_13
REMARK    5  A    between atoms: C_13  and  C_14
REMARK    6  A    between atoms: C_23  and  C_24
REMARK    7  A    between atoms: C_24  and  O_26
REMARK    8  A    between atoms: O_26  and  C_27
REMARK    9  A    between atoms: C_28  and  N_29
REMARK                            x       y       z     vdW  Elec       q    Type
REMARK                         _______ _______ _______ _____ _____    ______ ____
ROOT
ATOM      1  C   UNL     1      -3.360  11.927  19.107  0.00  0.00    +0.000 A 
ATOM      2  N   UNL     1      -4.604  12.296  18.745  0.00  0.00    +0.000 NA
ATOM      3  N   UNL     1      -4.867  13.351  19.500  0.00  0.00    +0.000 N 
ATOM      4  C   UNL     1      -3.905  13.553  20.448  0.00  0.00    +0.000 A 
ATOM      5  C   UNL     1      -2.922  12.608  20.305  0.00  0.00    +0.000 A 
ATOM      6  C   UNL     1      -1.589  12.876  21.067  0.00  0.00    +0.000 C 
ATOM      7  C   UNL     1      -0.558  13.132  19.905  0.00  0.00    +0.000 C 
ATOM      8  O   UNL     1      -0.708  13.737  18.858  0.00  0.00    +0.000 OA
ATOM      9  N   UNL     1       0.648  12.461  20.212  0.00  0.00    +0.000 N 
ATOM     10  C   UNL     1       0.303  11.419  21.105  0.00  0.00    +0.000 A 
ATOM     11  C   UNL     1       1.085  10.288  21.322  0.00  0.00    +0.000 A 
ATOM     12  C   UNL     1       0.711   9.428  22.348  0.00  0.00    +0.000 A 
ATOM     13  C   UNL     1      -0.350   9.792  23.181  0.00  0.00    +0.000 A 
ATOM     14  C   UNL     1      -1.184  10.902  22.878  0.00  0.00    +0.000 A 
ATOM     15  C   UNL     1      -0.940  11.651  21.730  0.00  0.00    +0.000 A 
ATOM     16  C   UNL     1      -1.718  14.182  21.954  0.00  0.00    +0.000 C 
ATOM     17  C   UNL     1      -2.768  15.035  21.779  0.00  0.00    +0.000 C 
ATOM     18  O   UNL     1      -3.907  14.696  21.096  0.00  0.00    +0.000 OA
ATOM     19  H   UNL     1      -5.628  13.974  19.259  0.00  0.00    +0.000 HD
ENDROOT
BRANCH  17  20
ATOM     20  N   UNL     1      -2.889  16.323  22.255  0.00  0.00    +0.000 N 
ATOM     21  H   UNL     1      -2.018  16.816  22.439  0.00  0.00    +0.000 HD
ATOM     22  H   UNL     1      -3.583  16.410  22.994  0.00  0.00    +0.000 HD
ENDBRANCH  17  20
BRANCH  16  23
ATOM     23  C   UNL     1      -0.692  14.506  22.990  0.00  0.00    +0.000 C 
ATOM     24  O   UNL     1       0.427  14.902  22.760  0.00  0.00    +0.000 OA
BRANCH  23  25
ATOM     25  O   UNL     1      -1.144  14.264  24.257  0.00  0.00    +0.000 OA
ATOM     26  C   UNL     1      -1.185  15.345  25.193  0.00  0.00    +0.000 C 
ENDBRANCH  23  25
ENDBRANCH  16  23
BRANCH   1  27
ATOM     27  C   UNL     1      -2.698  11.044  18.081  0.00  0.00    +0.000 C 
BRANCH  27  29
ATOM     28  C   UNL     1      -0.456   9.887  17.914  0.00  0.00    +0.000 C 
ATOM     29  C   UNL     1      -1.781   9.989  18.655  0.00  0.00    +0.000 C 
ENDBRANCH  27  29
ENDBRANCH   1  27
BRANCH   9  30
ATOM     30  C   UNL     1       1.619  13.448  20.735  0.00  0.00    +0.000 C 
BRANCH  30  31
ATOM     31  C   UNL     1       2.777  13.783  19.815  0.00  0.00    +0.000 C 
ATOM     32  N   UNL     1       3.746  14.577  20.330  0.00  0.00    +0.000 N 
ATOM     33  O   UNL     1       2.863  13.319  18.675  0.00  0.00    +0.000 OA
ATOM     34  H   UNL     1       3.747  14.792  21.321  0.00  0.00    +0.000 HD
ATOM     35  H   UNL     1       4.589  14.710  19.794  0.00  0.00    +0.000 HD
ENDBRANCH  30  31
ENDBRANCH   9  30
TORSDOF 7
ENDMDL
