MODEL 1
REMARK VINA RESULT:      -8.5      0.000      0.000
REMARK  Name = 
REMARK  7 active torsions:
REMARK  status: ('A' for Active; 'I' for Inactive)
REMARK    1  A    between atoms: C_1  and  C_2
REMARK    2  A    between atoms: C_2  and  C_3
REMARK    3  A    between atoms: C_2  and  N_19
REMARK    4  A    between atoms: N_5  and  C_6
REMARK    5  A    between atoms: N_9  and  C_10
REMARK    6  A    between atoms: C_10  and  C_11
REMARK    7  A    between atoms: C_34  and  C_35
REMARK                            x       y       z     vdW  Elec       q    Type
REMARK                         _______ _______ _______ _____ _____    ______ ____
ROOT
ATOM      1  N   UNL     1       0.680   9.644  20.345  0.00  0.00    +0.000 N 
ATOM      2  C   UNL     1      -0.333  10.281  21.020  0.00  0.00    +0.000 C 
ATOM      3  O   UNL     1      -0.610  10.109  22.199  0.00  0.00    +0.000 OA
ATOM      4  N   UNL     1      -0.936  11.206  20.171  0.00  0.00    +0.000 N 
ATOM      5  C   UNL     1      -1.708  12.359  20.678  0.00  0.00    +0.000 C 
ATOM      6  C   UNL     1      -1.398  13.755  20.041  0.00  0.00    +0.000 C 
ATOM      7  C   UNL     1      -0.116  13.758  19.276  0.00  0.00    +0.000 A 
ATOM      8  C   UNL     1       0.376  12.574  18.773  0.00  0.00    +0.000 A 
ATOM      9  N   UNL     1       1.583  12.808  18.184  0.00  0.00    +0.000 N 
ATOM     10  C   UNL     1       1.881  14.142  18.267  0.00  0.00    +0.000 A 
ATOM     11  C   UNL     1       3.026  14.805  17.821  0.00  0.00    +0.000 A 
ATOM     12  C   UNL     1       3.072  16.187  17.984  0.00  0.00    +0.000 A 
ATOM     13  C   UNL     1       2.007  16.870  18.567  0.00  0.00    +0.000 A 
ATOM     14  C   UNL     1       0.875  16.183  19.040  0.00  0.00    +0.000 A 
ATOM     15  C   UNL     1       0.810  14.781  18.903  0.00  0.00    +0.000 A 
ATOM     16  C   UNL     1      -0.257  11.238  18.888  0.00  0.00    +0.000 C 
ATOM     17  C   UNL     1      -1.156  10.915  17.704  0.00  0.00    +0.000 C 
ATOM     18  C   UNL     1       0.815  10.165  19.091  0.00  0.00    +0.000 C 
ATOM     19  O   UNL     1       1.667   9.891  18.255  0.00  0.00    +0.000 OA
ATOM     20  H   UNL     1       2.190  12.101  17.776  0.00  0.00    +0.000 HD
ENDROOT
BRANCH   1  22
ATOM     21  C   UNL     1       1.814   9.080  22.519  0.00  0.00    +0.000 C 
ATOM     22  C   UNL     1       1.663   8.802  21.024  0.00  0.00    +0.000 C 
BRANCH  22  23
ATOM     23  C   UNL     1       1.241   7.333  20.807  0.00  0.00    +0.000 C 
ATOM     24  O   UNL     1       0.111   6.924  21.065  0.00  0.00    +0.000 OA
ATOM     25  N   UNL     1       2.199   6.532  20.213  0.00  0.00    +0.000 N 
ATOM     26  H   UNL     1       3.111   6.929  20.003  0.00  0.00    +0.000 HD
BRANCH  25  27
ATOM     27  C   UNL     1       1.947   5.119  19.921  0.00  0.00    +0.000 C 
ATOM     28  C   UNL     1       3.081   4.215  20.406  0.00  0.00    +0.000 C 
ATOM     29  C   UNL     1       4.320   4.302  19.514  0.00  0.00    +0.000 C 
ATOM     30  N   UNL     1       4.007   4.026  18.101  0.00  0.00    +0.000 NA
ATOM     31  C   UNL     1       2.966   4.941  17.603  0.00  0.00    +0.000 C 
ATOM     32  C   UNL     1       1.686   4.883  18.434  0.00  0.00    +0.000 C 
BRANCH  30  33
ATOM     33  C   UNL     1       5.208   4.159  17.248  0.00  0.00    +0.000 C 
BRANCH  33  34
ATOM     34  C   UNL     1       6.136   5.294  17.620  0.00  0.00    +0.000 A 
ATOM     35  C   UNL     1       7.161   5.105  18.561  0.00  0.00    +0.000 A 
ATOM     36  C   UNL     1       8.045   6.144  18.863  0.00  0.00    +0.000 A 
ATOM     37  C   UNL     1       7.915   7.381  18.233  0.00  0.00    +0.000 A 
ATOM     38  C   UNL     1       6.898   7.584  17.304  0.00  0.00    +0.000 A 
ATOM     39  C   UNL     1       6.013   6.546  17.001  0.00  0.00    +0.000 A 
ENDBRANCH  33  34
ENDBRANCH  30  33
ENDBRANCH  25  27
ENDBRANCH  22  23
ENDBRANCH   1  22
TORSDOF 5
ENDMDL
MODEL 2
REMARK VINA RESULT:      -8.5      3.022      6.212
REMARK  Name = 
REMARK  7 active torsions:
REMARK  status: ('A' for Active; 'I' for Inactive)
REMARK    1  A    between atoms: C_1  and  C_2
REMARK    2  A    between atoms: C_2  and  C_3
REMARK    3  A    between atoms: C_2  and  N_19
REMARK    4  A    between atoms: N_5  and  C_6
REMARK    5  A    between atoms: N_9  and  C_10
REMARK    6  A    between atoms: C_10  and  C_11
REMARK    7  A    between atoms: C_34  and  C_35
REMARK                            x       y       z     vdW  Elec       q    Type
REMARK                         _______ _______ _______ _____ _____    ______ ____
ROOT
ATOM      1  N   UNL     1       1.131  15.057  19.795  0.00  0.00    +0.000 N 
ATOM      2  C   UNL     1       0.446  16.229  19.588  0.00  0.00    +0.000 C 
ATOM      3  O   UNL     1       0.225  16.732  18.495  0.00  0.00    +0.000 OA
ATOM      4  N   UNL     1      -0.020  16.707  20.810  0.00  0.00    +0.000 N 
ATOM      5  C   UNL     1      -1.156  17.646  20.910  0.00  0.00    +0.000 C 
ATOM      6  C   UNL     1      -2.263  17.311  21.965  0.00  0.00    +0.000 C 
ATOM      7  C   UNL     1      -2.177  15.901  22.450  0.00  0.00    +0.000 A 
ATOM      8  C   UNL     1      -0.974  15.233  22.381  0.00  0.00    +0.000 A 
ATOM      9  N   UNL     1      -1.153  13.950  22.805  0.00  0.00    +0.000 N 
ATOM     10  C   UNL     1      -2.456  13.770  23.182  0.00  0.00    +0.000 A 
ATOM     11  C   UNL     1      -3.073  12.607  23.647  0.00  0.00    +0.000 A 
ATOM     12  C   UNL     1      -4.414  12.693  24.011  0.00  0.00    +0.000 A 
ATOM     13  C   UNL     1      -5.101  13.901  23.915  0.00  0.00    +0.000 A 
ATOM     14  C   UNL     1      -4.474  15.055  23.413  0.00  0.00    +0.000 A 
ATOM     15  C   UNL     1      -3.120  14.992  23.021  0.00  0.00    +0.000 A 
ATOM     16  C   UNL     1       0.309  15.781  21.879  0.00  0.00    +0.000 C 
ATOM     17  C   UNL     1       1.156  16.390  22.986  0.00  0.00    +0.000 C 
ATOM     18  C   UNL     1       1.076  14.702  21.111  0.00  0.00    +0.000 C 
ATOM     19  O   UNL     1       1.506  13.678  21.628  0.00  0.00    +0.000 OA
ATOM     20  H   UNL     1      -0.440  13.224  22.810  0.00  0.00    +0.000 HD
ENDROOT
BRANCH   1  22
ATOM     21  C   UNL     1       2.886  13.505  18.877  0.00  0.00    +0.000 C 
ATOM     22  C   UNL     1       1.527  14.179  18.695  0.00  0.00    +0.000 C 
BRANCH  22  23
ATOM     23  C   UNL     1       0.429  13.105  18.543  0.00  0.00    +0.000 C 
ATOM     24  O   UNL     1      -0.611  13.306  17.917  0.00  0.00    +0.000 OA
ATOM     25  N   UNL     1       0.740  11.870  19.080  0.00  0.00    +0.000 N 
ATOM     26  H   UNL     1       1.624  11.755  19.570  0.00  0.00    +0.000 HD
BRANCH  25  27
ATOM     27  C   UNL     1      -0.188  10.740  19.000  0.00  0.00    +0.000 C 
ATOM     28  C   UNL     1      -0.272   9.964  20.316  0.00  0.00    +0.000 C 
ATOM     29  C   UNL     1       0.959   9.090  20.559  0.00  0.00    +0.000 C 
ATOM     30  N   UNL     1       1.221   8.175  19.435  0.00  0.00    +0.000 NA
ATOM     31  C   UNL     1       1.376   8.919  18.173  0.00  0.00    +0.000 C 
ATOM     32  C   UNL     1       0.165   9.794  17.854  0.00  0.00    +0.000 C 
BRANCH  30  33
ATOM     33  C   UNL     1       2.441   7.371  19.668  0.00  0.00    +0.000 C 
BRANCH  33  34
ATOM     34  C   UNL     1       2.241   5.872  19.617  0.00  0.00    +0.000 A 
ATOM     35  C   UNL     1       2.001   5.140  20.792  0.00  0.00    +0.000 A 
ATOM     36  C   UNL     1       1.768   3.764  20.730  0.00  0.00    +0.000 A 
ATOM     37  C   UNL     1       1.774   3.104  19.503  0.00  0.00    +0.000 A 
ATOM     38  C   UNL     1       2.020   3.818  18.333  0.00  0.00    +0.000 A 
ATOM     39  C   UNL     1       2.253   5.195  18.391  0.00  0.00    +0.000 A 
ENDBRANCH  33  34
ENDBRANCH  30  33
ENDBRANCH  25  27
ENDBRANCH  22  23
ENDBRANCH   1  22
TORSDOF 5
ENDMDL
MODEL 3
REMARK VINA RESULT:      -8.3      2.889      5.862
REMARK  Name = 
REMARK  7 active torsions:
REMARK  status: ('A' for Active; 'I' for Inactive)
REMARK    1  A    between atoms: C_1  and  C_2
REMARK    2  A    between atoms: C_2  and  C_3
REMARK    3  A    between atoms: C_2  and  N_19
REMARK    4  A    between atoms: N_5  and  C_6
REMARK    5  A    between atoms: N_9  and  C_10
REMARK    6  A    between atoms: C_10  and  C_11
REMARK    7  A    between atoms: C_34  and  C_35
REMARK                            x       y       z     vdW  Elec       q    Type
REMARK                         _______ _______ _______ _____ _____    ______ ____
ROOT
ATOM      1  N   UNL     1       1.527  14.830  19.592  0.00  0.00    +0.000 N 
ATOM      2  C   UNL     1       0.931  16.066  19.519  0.00  0.00    +0.000 C 
ATOM      3  O   UNL     1       0.675  16.664  18.483  0.00  0.00    +0.000 OA
ATOM      4  N   UNL     1       0.597  16.488  20.804  0.00  0.00    +0.000 N 
ATOM      5  C   UNL     1      -0.445  17.504  21.055  0.00  0.00    +0.000 C 
ATOM      6  C   UNL     1      -1.497  17.181  22.168  0.00  0.00    +0.000 C 
ATOM      7  C   UNL     1      -1.496  15.737  22.549  0.00  0.00    +0.000 A 
ATOM      8  C   UNL     1      -0.362  14.983  22.341  0.00  0.00    +0.000 A 
ATOM      9  N   UNL     1      -0.618  13.690  22.690  0.00  0.00    +0.000 N 
ATOM     10  C   UNL     1      -1.901  13.587  23.155  0.00  0.00    +0.000 A 
ATOM     11  C   UNL     1      -2.579  12.446  23.588  0.00  0.00    +0.000 A 
ATOM     12  C   UNL     1      -3.878  12.611  24.061  0.00  0.00    +0.000 A 
ATOM     13  C   UNL     1      -4.465  13.874  24.100  0.00  0.00    +0.000 A 
ATOM     14  C   UNL     1      -3.781  15.008  23.630  0.00  0.00    +0.000 A 
ATOM     15  C   UNL     1      -2.469  14.867  23.129  0.00  0.00    +0.000 A 
ATOM     16  C   UNL     1       0.923  15.462  21.778  0.00  0.00    +0.000 C 
ATOM     17  C   UNL     1       1.897  15.919  22.854  0.00  0.00    +0.000 C 
ATOM     18  C   UNL     1       1.538  14.385  20.881  0.00  0.00    +0.000 C 
ATOM     19  O   UNL     1       1.916  13.294  21.293  0.00  0.00    +0.000 OA
ATOM     20  H   UNL     1       0.029  12.911  22.590  0.00  0.00    +0.000 HD
ENDROOT
BRANCH   1  22
ATOM     21  C   UNL     1       3.146  13.353  18.356  0.00  0.00    +0.000 C 
ATOM     22  C   UNL     1       1.766  14.007  18.408  0.00  0.00    +0.000 C 
BRANCH  22  23
ATOM     23  C   UNL     1       0.672  12.920  18.373  0.00  0.00    +0.000 C 
ATOM     24  O   UNL     1      -0.477  13.148  17.999  0.00  0.00    +0.000 OA
ATOM     25  N   UNL     1       1.102  11.648  18.702  0.00  0.00    +0.000 N 
ATOM     26  H   UNL     1       2.069  11.512  18.984  0.00  0.00    +0.000 HD
BRANCH  25  27
ATOM     27  C   UNL     1       0.189  10.501  18.696  0.00  0.00    +0.000 C 
ATOM     28  C   UNL     1       0.185   9.756  20.032  0.00  0.00    +0.000 C 
ATOM     29  C   UNL     1       1.442   8.907  20.231  0.00  0.00    +0.000 C 
ATOM     30  N   UNL     1       1.660   7.970  19.116  0.00  0.00    +0.000 NA
ATOM     31  C   UNL     1       1.738   8.685  17.832  0.00  0.00    +0.000 C 
ATOM     32  C   UNL     1       0.498   9.534  17.555  0.00  0.00    +0.000 C 
BRANCH  30  33
ATOM     33  C   UNL     1       2.904   7.190  19.305  0.00  0.00    +0.000 C 
BRANCH  33  34
ATOM     34  C   UNL     1       2.947   5.865  18.577  0.00  0.00    +0.000 A 
ATOM     35  C   UNL     1       1.850   4.989  18.615  0.00  0.00    +0.000 A 
ATOM     36  C   UNL     1       1.879   3.790  17.898  0.00  0.00    +0.000 A 
ATOM     37  C   UNL     1       2.999   3.450  17.141  0.00  0.00    +0.000 A 
ATOM     38  C   UNL     1       4.096   4.307  17.103  0.00  0.00    +0.000 A 
ATOM     39  C   UNL     1       4.070   5.507  17.819  0.00  0.00    +0.000 A 
ENDBRANCH  33  34
ENDBRANCH  30  33
ENDBRANCH  25  27
ENDBRANCH  22  23
ENDBRANCH   1  22
TORSDOF 5
ENDMDL
MODEL 4
REMARK VINA RESULT:      -8.3      4.659      7.603
REMARK  Name = 
REMARK  7 active torsions:
REMARK  status: ('A' for Active; 'I' for Inactive)
REMARK    1  A    between atoms: C_1  and  C_2
REMARK    2  A    between atoms: C_2  and  C_3
REMARK    3  A    between atoms: C_2  and  N_19
REMARK    4  A    between atoms: N_5  and  C_6
REMARK    5  A    between atoms: N_9  and  C_10
REMARK    6  A    between atoms: C_10  and  C_11
REMARK    7  A    between atoms: C_34  and  C_35
REMARK                            x       y       z     vdW  Elec       q    Type
REMARK                         _______ _______ _______ _____ _____    ______ ____
ROOT
ATOM      1  N   UNL     1       1.837  13.366  19.739  0.00  0.00    +0.000 N 
ATOM      2  C   UNL     1       0.944  13.934  20.614  0.00  0.00    +0.000 C 
ATOM      3  O   UNL     1       0.970  15.099  20.989  0.00  0.00    +0.000 OA
ATOM      4  N   UNL     1      -0.032  12.997  20.943  0.00  0.00    +0.000 N 
ATOM      5  C   UNL     1      -1.361  13.388  21.458  0.00  0.00    +0.000 C 
ATOM      6  C   UNL     1      -2.605  12.701  20.803  0.00  0.00    +0.000 C 
ATOM      7  C   UNL     1      -2.269  12.027  19.513  0.00  0.00    +0.000 A 
ATOM      8  C   UNL     1      -0.974  11.623  19.277  0.00  0.00    +0.000 A 
ATOM      9  N   UNL     1      -0.891  11.108  18.019  0.00  0.00    +0.000 N 
ATOM     10  C   UNL     1      -2.125  11.140  17.429  0.00  0.00    +0.000 A 
ATOM     11  C   UNL     1      -2.483  10.740  16.140  0.00  0.00    +0.000 A 
ATOM     12  C   UNL     1      -3.827  10.831  15.788  0.00  0.00    +0.000 A 
ATOM     13  C   UNL     1      -4.769  11.302  16.700  0.00  0.00    +0.000 A 
ATOM     14  C   UNL     1      -4.388  11.732  17.983  0.00  0.00    +0.000 A 
ATOM     15  C   UNL     1      -3.030  11.666  18.359  0.00  0.00    +0.000 A 
ATOM     16  C   UNL     1       0.175  11.765  20.205  0.00  0.00    +0.000 C 
ATOM     17  C   UNL     1       0.367  10.541  21.087  0.00  0.00    +0.000 C 
ATOM     18  C   UNL     1       1.445  12.099  19.419  0.00  0.00    +0.000 C 
ATOM     19  O   UNL     1       1.960  11.339  18.607  0.00  0.00    +0.000 OA
ATOM     20  H   UNL     1      -0.039  10.780  17.568  0.00  0.00    +0.000 HD
ENDROOT
BRANCH   1  22
ATOM     21  C   UNL     1       2.266  15.377  18.288  0.00  0.00    +0.000 C 
ATOM     22  C   UNL     1       2.830  14.156  19.013  0.00  0.00    +0.000 C 
BRANCH  22  23
ATOM     23  C   UNL     1       3.899  14.602  20.033  0.00  0.00    +0.000 C 
ATOM     24  O   UNL     1       3.969  14.134  21.167  0.00  0.00    +0.000 OA
ATOM     25  N   UNL     1       4.832  15.500  19.546  0.00  0.00    +0.000 N 
ATOM     26  H   UNL     1       4.738  15.839  18.593  0.00  0.00    +0.000 HD
BRANCH  25  27
ATOM     27  C   UNL     1       5.923  16.005  20.383  0.00  0.00    +0.000 C 
ATOM     28  C   UNL     1       6.680  17.155  19.717  0.00  0.00    +0.000 C 
ATOM     29  C   UNL     1       7.602  16.676  18.595  0.00  0.00    +0.000 C 
ATOM     30  N   UNL     1       8.540  15.637  19.054  0.00  0.00    +0.000 NA
ATOM     31  C   UNL     1       7.817  14.491  19.631  0.00  0.00    +0.000 C 
ATOM     32  C   UNL     1       6.895  14.896  20.781  0.00  0.00    +0.000 C 
BRANCH  30  33
ATOM     33  C   UNL     1       9.392  15.155  17.945  0.00  0.00    +0.000 C 
BRANCH  33  34
ATOM     34  C   UNL     1      10.245  13.949  18.270  0.00  0.00    +0.000 A 
ATOM     35  C   UNL     1      10.029  12.721  17.623  0.00  0.00    +0.000 A 
ATOM     36  C   UNL     1      10.854  11.626  17.893  0.00  0.00    +0.000 A 
ATOM     37  C   UNL     1      11.897  11.741  18.810  0.00  0.00    +0.000 A 
ATOM     38  C   UNL     1      12.116  12.950  19.464  0.00  0.00    +0.000 A 
ATOM     39  C   UNL     1      11.292  14.047  19.196  0.00  0.00    +0.000 A 
ENDBRANCH  33  34
ENDBRANCH  30  33
ENDBRANCH  25  27
ENDBRANCH  22  23
ENDBRANCH   1  22
TORSDOF 5
ENDMDL
MODEL 5
REMARK VINA RESULT:      -8.3      4.607      6.904
REMARK  Name = 
REMARK  7 active torsions:
REMARK  status: ('A' for Active; 'I' for Inactive)
REMARK    1  A    between atoms: C_1  and  C_2
REMARK    2  A    between atoms: C_2  and  C_3
REMARK    3  A    between atoms: C_2  and  N_19
REMARK    4  A    between atoms: N_5  and  C_6
REMARK    5  A    between atoms: N_9  and  C_10
REMARK    6  A    between atoms: C_10  and  C_11
REMARK    7  A    between atoms: C_34  and  C_35
REMARK                            x       y       z     vdW  Elec       q    Type
REMARK                         _______ _______ _______ _____ _____    ______ ____
ROOT
ATOM      1  N   UNL     1       1.530  13.433  20.822  0.00  0.00    +0.000 N 
ATOM      2  C   UNL     1       0.529  14.321  21.132  0.00  0.00    +0.000 C 
ATOM      3  O   UNL     1       0.634  15.540  21.098  0.00  0.00    +0.000 OA
ATOM      4  N   UNL     1      -0.637  13.615  21.414  0.00  0.00    +0.000 N 
ATOM      5  C   UNL     1      -1.977  14.231  21.320  0.00  0.00    +0.000 C 
ATOM      6  C   UNL     1      -3.079  13.420  20.560  0.00  0.00    +0.000 C 
ATOM      7  C   UNL     1      -2.504  12.314  19.737  0.00  0.00    +0.000 A 
ATOM      8  C   UNL     1      -1.277  11.786  20.074  0.00  0.00    +0.000 A 
ATOM      9  N   UNL     1      -0.926  10.853  19.146  0.00  0.00    +0.000 N 
ATOM     10  C   UNL     1      -1.922  10.735  18.215  0.00  0.00    +0.000 A 
ATOM     11  C   UNL     1      -1.960   9.920  17.081  0.00  0.00    +0.000 A 
ATOM     12  C   UNL     1      -3.117   9.949  16.308  0.00  0.00    +0.000 A 
ATOM     13  C   UNL     1      -4.191  10.762  16.665  0.00  0.00    +0.000 A 
ATOM     14  C   UNL     1      -4.123  11.601  17.791  0.00  0.00    +0.000 A 
ATOM     15  C   UNL     1      -2.956  11.604  18.583  0.00  0.00    +0.000 A 
ATOM     16  C   UNL     1      -0.430  12.191  21.222  0.00  0.00    +0.000 C 
ATOM     17  C   UNL     1      -0.693  11.354  22.464  0.00  0.00    +0.000 C 
ATOM     18  C   UNL     1       1.047  12.157  20.822  0.00  0.00    +0.000 C 
ATOM     19  O   UNL     1       1.641  11.132  20.509  0.00  0.00    +0.000 OA
ATOM     20  H   UNL     1      -0.045  10.342  19.123  0.00  0.00    +0.000 HD
ENDROOT
BRANCH   1  22
ATOM     21  C   UNL     1       2.685  14.992  19.220  0.00  0.00    +0.000 C 
ATOM     22  C   UNL     1       2.801  13.859  20.239  0.00  0.00    +0.000 C 
BRANCH  22  23
ATOM     23  C   UNL     1       3.718  14.296  21.401  0.00  0.00    +0.000 C 
ATOM     24  O   UNL     1       3.286  14.563  22.521  0.00  0.00    +0.000 OA
ATOM     25  N   UNL     1       5.071  14.274  21.118  0.00  0.00    +0.000 N 
ATOM     26  H   UNL     1       5.373  14.026  20.180  0.00  0.00    +0.000 HD
BRANCH  25  27
ATOM     27  C   UNL     1       6.073  14.642  22.121  0.00  0.00    +0.000 C 
ATOM     28  C   UNL     1       7.441  14.927  21.498  0.00  0.00    +0.000 C 
ATOM     29  C   UNL     1       8.164  13.649  21.068  0.00  0.00    +0.000 C 
ATOM     30  N   UNL     1       8.291  12.685  22.174  0.00  0.00    +0.000 NA
ATOM     31  C   UNL     1       6.971  12.348  22.735  0.00  0.00    +0.000 C 
ATOM     32  C   UNL     1       6.203  13.580  23.211  0.00  0.00    +0.000 C 
BRANCH  30  33
ATOM     33  C   UNL     1       8.953  11.439  21.728  0.00  0.00    +0.000 C 
BRANCH  33  34
ATOM     34  C   UNL     1       9.831  11.581  20.505  0.00  0.00    +0.000 A 
ATOM     35  C   UNL     1      11.134  12.094  20.612  0.00  0.00    +0.000 A 
ATOM     36  C   UNL     1      11.956  12.176  19.486  0.00  0.00    +0.000 A 
ATOM     37  C   UNL     1      11.488  11.753  18.242  0.00  0.00    +0.000 A 
ATOM     38  C   UNL     1      10.195  11.251  18.122  0.00  0.00    +0.000 A 
ATOM     39  C   UNL     1       9.371  11.168  19.247  0.00  0.00    +0.000 A 
ENDBRANCH  33  34
ENDBRANCH  30  33
ENDBRANCH  25  27
ENDBRANCH  22  23
ENDBRANCH   1  22
TORSDOF 5
ENDMDL
MODEL 6
REMARK VINA RESULT:      -8.2      1.266      1.805
REMARK  Name = 
REMARK  7 active torsions:
REMARK  status: ('A' for Active; 'I' for Inactive)
REMARK    1  A    between atoms: C_1  and  C_2
REMARK    2  A    between atoms: C_2  and  C_3
REMARK    3  A    between atoms: C_2  and  N_19
REMARK    4  A    between atoms: N_5  and  C_6
REMARK    5  A    between atoms: N_9  and  C_10
REMARK    6  A    between atoms: C_10  and  C_11
REMARK    7  A    between atoms: C_34  and  C_35
REMARK                            x       y       z     vdW  Elec       q    Type
REMARK                         _______ _______ _______ _____ _____    ______ ____
ROOT
ATOM      1  N   UNL     1       0.583   9.907  20.600  0.00  0.00    +0.000 N 
ATOM      2  C   UNL     1      -0.414  10.607  21.235  0.00  0.00    +0.000 C 
ATOM      3  O   UNL     1      -0.702  10.504  22.420  0.00  0.00    +0.000 OA
ATOM      4  N   UNL     1      -0.988  11.502  20.336  0.00  0.00    +0.000 N 
ATOM      5  C   UNL     1      -1.729  12.700  20.778  0.00  0.00    +0.000 C 
ATOM      6  C   UNL     1      -1.379  14.052  20.071  0.00  0.00    +0.000 C 
ATOM      7  C   UNL     1      -0.093  13.981  19.314  0.00  0.00    +0.000 A 
ATOM      8  C   UNL     1       0.368  12.759  18.876  0.00  0.00    +0.000 A 
ATOM      9  N   UNL     1       1.583  12.929  18.284  0.00  0.00    +0.000 N 
ATOM     10  C   UNL     1       1.918  14.256  18.298  0.00  0.00    +0.000 A 
ATOM     11  C   UNL     1       3.083  14.863  17.825  0.00  0.00    +0.000 A 
ATOM     12  C   UNL     1       3.167  16.250  17.916  0.00  0.00    +0.000 A 
ATOM     13  C   UNL     1       2.119  16.991  18.457  0.00  0.00    +0.000 A 
ATOM     14  C   UNL     1       0.966  16.362  18.959  0.00  0.00    +0.000 A 
ATOM     15  C   UNL     1       0.862  14.956  18.894  0.00  0.00    +0.000 A 
ATOM     16  C   UNL     1      -0.303  11.448  19.057  0.00  0.00    +0.000 C 
ATOM     17  C   UNL     1      -1.205  11.089  17.886  0.00  0.00    +0.000 C 
ATOM     18  C   UNL     1       0.738  10.358  19.322  0.00  0.00    +0.000 C 
ATOM     19  O   UNL     1       1.586  10.017  18.506  0.00  0.00    +0.000 OA
ATOM     20  H   UNL     1       2.172  12.184  17.916  0.00  0.00    +0.000 HD
ENDROOT
BRANCH   1  22
ATOM     21  C   UNL     1       1.448   9.184  22.850  0.00  0.00    +0.000 C 
ATOM     22  C   UNL     1       1.539   9.075  21.328  0.00  0.00    +0.000 C 
BRANCH  22  23
ATOM     23  C   UNL     1       1.302   7.613  20.895  0.00  0.00    +0.000 C 
ATOM     24  O   UNL     1       0.287   6.988  21.200  0.00  0.00    +0.000 OA
ATOM     25  N   UNL     1       2.270   7.086  20.060  0.00  0.00    +0.000 N 
ATOM     26  H   UNL     1       3.079   7.655  19.824  0.00  0.00    +0.000 HD
BRANCH  25  27
ATOM     27  C   UNL     1       2.180   5.718  19.545  0.00  0.00    +0.000 C 
ATOM     28  C   UNL     1       3.247   4.800  20.145  0.00  0.00    +0.000 C 
ATOM     29  C   UNL     1       4.636   5.058  19.558  0.00  0.00    +0.000 C 
ATOM     30  N   UNL     1       4.642   4.967  18.088  0.00  0.00    +0.000 NA
ATOM     31  C   UNL     1       3.668   5.900  17.497  0.00  0.00    +0.000 C 
ATOM     32  C   UNL     1       2.250   5.678  18.020  0.00  0.00    +0.000 C 
BRANCH  30  33
ATOM     33  C   UNL     1       5.983   5.264  17.537  0.00  0.00    +0.000 C 
BRANCH  33  34
ATOM     34  C   UNL     1       6.174   4.896  16.082  0.00  0.00    +0.000 A 
ATOM     35  C   UNL     1       7.261   5.402  15.350  0.00  0.00    +0.000 A 
ATOM     36  C   UNL     1       7.458   5.019  14.022  0.00  0.00    +0.000 A 
ATOM     37  C   UNL     1       6.574   4.132  13.408  0.00  0.00    +0.000 A 
ATOM     38  C   UNL     1       5.488   3.631  14.120  0.00  0.00    +0.000 A 
ATOM     39  C   UNL     1       5.289   4.013  15.450  0.00  0.00    +0.000 A 
ENDBRANCH  33  34
ENDBRANCH  30  33
ENDBRANCH  25  27
ENDBRANCH  22  23
ENDBRANCH   1  22
TORSDOF 5
ENDMDL
MODEL 7
REMARK VINA RESULT:      -8.2      3.108      6.272
REMARK  Name = 
REMARK  7 active torsions:
REMARK  status: ('A' for Active; 'I' for Inactive)
REMARK    1  A    between atoms: C_1  and  C_2
REMARK    2  A    between atoms: C_2  and  C_3
REMARK    3  A    between atoms: C_2  and  N_19
REMARK    4  A    between atoms: N_5  and  C_6
REMARK    5  A    between atoms: N_9  and  C_10
REMARK    6  A    between atoms: C_10  and  C_11
REMARK    7  A    between atoms: C_34  and  C_35
REMARK                            x       y       z     vdW  Elec       q    Type
REMARK                         _______ _______ _______ _____ _____    ______ ____
ROOT
ATOM      1  N   UNL     1       1.854  15.164  19.616  0.00  0.00    +0.000 N 
ATOM      2  C   UNL     1       1.446  16.469  19.486  0.00  0.00    +0.000 C 
ATOM      3  O   UNL     1       1.252  17.043  18.423  0.00  0.00    +0.000 OA
ATOM      4  N   UNL     1       1.217  17.004  20.751  0.00  0.00    +0.000 N 
ATOM      5  C   UNL     1       0.346  18.178  20.966  0.00  0.00    +0.000 C 
ATOM      6  C   UNL     1      -0.710  18.076  22.118  0.00  0.00    +0.000 C 
ATOM      7  C   UNL     1      -0.912  16.670  22.580  0.00  0.00    +0.000 A 
ATOM      8  C   UNL     1       0.090  15.744  22.391  0.00  0.00    +0.000 A 
ATOM      9  N   UNL     1      -0.345  14.525  22.818  0.00  0.00    +0.000 N 
ATOM     10  C   UNL     1      -1.615  14.641  23.315  0.00  0.00    +0.000 A 
ATOM     11  C   UNL     1      -2.443  13.639  23.827  0.00  0.00    +0.000 A 
ATOM     12  C   UNL     1      -3.688  14.023  24.317  0.00  0.00    +0.000 A 
ATOM     13  C   UNL     1      -4.079  15.360  24.297  0.00  0.00    +0.000 A 
ATOM     14  C   UNL     1      -3.247  16.352  23.748  0.00  0.00    +0.000 A 
ATOM     15  C   UNL     1      -1.987  15.988  23.229  0.00  0.00    +0.000 A 
ATOM     16  C   UNL     1       1.415  15.995  21.775  0.00  0.00    +0.000 C 
ATOM     17  C   UNL     1       2.477  16.356  22.802  0.00  0.00    +0.000 C 
ATOM     18  C   UNL     1       1.836  14.791  20.928  0.00  0.00    +0.000 C 
ATOM     19  O   UNL     1       2.059  13.679  21.393  0.00  0.00    +0.000 OA
ATOM     20  H   UNL     1       0.175  13.653  22.749  0.00  0.00    +0.000 HD
ENDROOT
BRANCH   1  22
ATOM     21  C   UNL     1       3.232  13.452  18.389  0.00  0.00    +0.000 C 
ATOM     22  C   UNL     1       1.933  14.253  18.476  0.00  0.00    +0.000 C 
BRANCH  22  23
ATOM     23  C   UNL     1       0.732  13.289  18.571  0.00  0.00    +0.000 C 
ATOM     24  O   UNL     1      -0.411  13.622  18.263  0.00  0.00    +0.000 OA
ATOM     25  N   UNL     1       1.049  11.994  18.937  0.00  0.00    +0.000 N 
ATOM     26  H   UNL     1       2.015  11.768  19.161  0.00  0.00    +0.000 HD
BRANCH  25  27
ATOM     27  C   UNL     1       0.024  10.953  19.053  0.00  0.00    +0.000 C 
ATOM     28  C   UNL     1       0.051  10.261  20.416  0.00  0.00    +0.000 C 
ATOM     29  C   UNL     1       1.224   9.289  20.554  0.00  0.00    +0.000 C 
ATOM     30  N   UNL     1       1.251   8.294  19.468  0.00  0.00    +0.000 NA
ATOM     31  C   UNL     1       1.298   8.951  18.151  0.00  0.00    +0.000 C 
ATOM     32  C   UNL     1       0.136   9.918  17.935  0.00  0.00    +0.000 C 
BRANCH  30  33
ATOM     33  C   UNL     1       2.417   7.392  19.594  0.00  0.00    +0.000 C 
BRANCH  33  34
ATOM     34  C   UNL     1       2.097   5.915  19.521  0.00  0.00    +0.000 A 
ATOM     35  C   UNL     1       2.219   5.213  18.311  0.00  0.00    +0.000 A 
ATOM     36  C   UNL     1       1.969   3.840  18.263  0.00  0.00    +0.000 A 
ATOM     37  C   UNL     1       1.592   3.153  19.416  0.00  0.00    +0.000 A 
ATOM     38  C   UNL     1       1.459   3.840  20.620  0.00  0.00    +0.000 A 
ATOM     39  C   UNL     1       1.708   5.214  20.671  0.00  0.00    +0.000 A 
ENDBRANCH  33  34
ENDBRANCH  30  33
ENDBRANCH  25  27
ENDBRANCH  22  23
ENDBRANCH   1  22
TORSDOF 5
ENDMDL
MODEL 8
REMARK VINA RESULT:      -8.0      5.053      9.171
REMARK  Name = 
REMARK  7 active torsions:
REMARK  status: ('A' for Active; 'I' for Inactive)
REMARK    1  A    between atoms: C_1  and  C_2
REMARK    2  A    between atoms: C_2  and  C_3
REMARK    3  A    between atoms: C_2  and  N_19
REMARK    4  A    between atoms: N_5  and  C_6
REMARK    5  A    between atoms: N_9  and  C_10
REMARK    6  A    between atoms: C_10  and  C_11
REMARK    7  A    between atoms: C_34  and  C_35
REMARK                            x       y       z     vdW  Elec       q    Type
REMARK                         _______ _______ _______ _____ _____    ______ ____
ROOT
ATOM      1  N   UNL     1       4.492  15.279  20.161  0.00  0.00    +0.000 N 
ATOM      2  C   UNL     1       4.602  14.644  21.375  0.00  0.00    +0.000 C 
ATOM      3  O   UNL     1       3.707  14.016  21.924  0.00  0.00    +0.000 OA
ATOM      4  N   UNL     1       5.911  14.764  21.836  0.00  0.00    +0.000 N 
ATOM      5  C   UNL     1       6.487  13.835  22.829  0.00  0.00    +0.000 C 
ATOM      6  C   UNL     1       7.907  13.255  22.518  0.00  0.00    +0.000 C 
ATOM      7  C   UNL     1       8.300  13.450  21.090  0.00  0.00    +0.000 A 
ATOM      8  C   UNL     1       7.726  14.469  20.363  0.00  0.00    +0.000 A 
ATOM      9  N   UNL     1       8.175  14.407  19.078  0.00  0.00    +0.000 N 
ATOM     10  C   UNL     1       9.064  13.374  18.954  0.00  0.00    +0.000 A 
ATOM     11  C   UNL     1       9.737  12.939  17.811  0.00  0.00    +0.000 A 
ATOM     12  C   UNL     1      10.633  11.883  17.954  0.00  0.00    +0.000 A 
ATOM     13  C   UNL     1      10.843  11.294  19.200  0.00  0.00    +0.000 A 
ATOM     14  C   UNL     1      10.133  11.722  20.335  0.00  0.00    +0.000 A 
ATOM     15  C   UNL     1       9.207  12.780  20.214  0.00  0.00    +0.000 A 
ATOM     16  C   UNL     1       6.734  15.454  20.859  0.00  0.00    +0.000 C 
ATOM     17  C   UNL     1       7.386  16.724  21.386  0.00  0.00    +0.000 C 
ATOM     18  C   UNL     1       5.706  15.760  19.767  0.00  0.00    +0.000 C 
ATOM     19  O   UNL     1       5.987  16.304  18.705  0.00  0.00    +0.000 OA
ATOM     20  H   UNL     1       7.874  15.009  18.315  0.00  0.00    +0.000 HD
ENDROOT
BRANCH   1  22
ATOM     21  C   UNL     1       2.885  13.675  19.077  0.00  0.00    +0.000 C 
ATOM     22  C   UNL     1       3.321  15.123  19.301  0.00  0.00    +0.000 C 
BRANCH  22  23
ATOM     23  C   UNL     1       2.167  15.921  19.943  0.00  0.00    +0.000 C 
ATOM     24  O   UNL     1       2.044  17.137  19.802  0.00  0.00    +0.000 OA
ATOM     25  N   UNL     1       1.227  15.157  20.610  0.00  0.00    +0.000 N 
ATOM     26  H   UNL     1       1.369  14.152  20.678  0.00  0.00    +0.000 HD
BRANCH  25  27
ATOM     27  C   UNL     1       0.060  15.762  21.256  0.00  0.00    +0.000 C 
ATOM     28  C   UNL     1      -0.102  15.307  22.706  0.00  0.00    +0.000 C 
ATOM     29  C   UNL     1      -0.635  13.877  22.814  0.00  0.00    +0.000 C 
ATOM     30  N   UNL     1      -1.894  13.698  22.072  0.00  0.00    +0.000 NA
ATOM     31  C   UNL     1      -1.729  14.065  20.655  0.00  0.00    +0.000 C 
ATOM     32  C   UNL     1      -1.225  15.496  20.474  0.00  0.00    +0.000 C 
BRANCH  30  33
ATOM     33  C   UNL     1      -2.370  12.298  22.150  0.00  0.00    +0.000 C 
BRANCH  33  34
ATOM     34  C   UNL     1      -1.282  11.248  22.101  0.00  0.00    +0.000 A 
ATOM     35  C   UNL     1      -0.524  11.054  20.934  0.00  0.00    +0.000 A 
ATOM     36  C   UNL     1       0.511  10.116  20.913  0.00  0.00    +0.000 A 
ATOM     37  C   UNL     1       0.799   9.361  22.049  0.00  0.00    +0.000 A 
ATOM     38  C   UNL     1       0.049   9.539  23.209  0.00  0.00    +0.000 A 
ATOM     39  C   UNL     1      -0.987  10.476  23.233  0.00  0.00    +0.000 A 
ENDBRANCH  33  34
ENDBRANCH  30  33
ENDBRANCH  25  27
ENDBRANCH  22  23
ENDBRANCH   1  22
TORSDOF 5
ENDMDL
MODEL 9
REMARK VINA RESULT:      -8.0      3.945      7.693
REMARK  Name = 
REMARK  7 active torsions:
REMARK  status: ('A' for Active; 'I' for Inactive)
REMARK    1  A    between atoms: C_1  and  C_2
REMARK    2  A    between atoms: C_2  and  C_3
REMARK    3  A    between atoms: C_2  and  N_19
REMARK    4  A    between atoms: N_5  and  C_6
REMARK    5  A    between atoms: N_9  and  C_10
REMARK    6  A    between atoms: C_10  and  C_11
REMARK    7  A    between atoms: C_34  and  C_35
REMARK                            x       y       z     vdW  Elec       q    Type
REMARK                         _______ _______ _______ _____ _____    ______ ____
ROOT
ATOM      1  N   UNL     1      -2.496  15.774  22.595  0.00  0.00    +0.000 N 
ATOM      2  C   UNL     1      -3.718  16.369  22.794  0.00  0.00    +0.000 C 
ATOM      3  O   UNL     1      -3.923  17.575  22.787  0.00  0.00    +0.000 OA
ATOM      4  N   UNL     1      -4.691  15.382  22.927  0.00  0.00    +0.000 N 
ATOM      5  C   UNL     1      -6.124  15.646  22.681  0.00  0.00    +0.000 C 
ATOM      6  C   UNL     1      -6.891  14.617  21.786  0.00  0.00    +0.000 C 
ATOM      7  C   UNL     1      -5.966  13.725  21.024  0.00  0.00    +0.000 A 
ATOM      8  C   UNL     1      -4.691  13.509  21.497  0.00  0.00    +0.000 A 
ATOM      9  N   UNL     1      -4.012  12.733  20.607  0.00  0.00    +0.000 N 
ATOM     10  C   UNL     1      -4.834  12.408  19.562  0.00  0.00    +0.000 A 
ATOM     11  C   UNL     1      -4.537  11.658  18.422  0.00  0.00    +0.000 A 
ATOM     12  C   UNL     1      -5.569  11.428  17.517  0.00  0.00    +0.000 A 
ATOM     13  C   UNL     1      -6.847  11.930  17.754  0.00  0.00    +0.000 A 
ATOM     14  C   UNL     1      -7.122  12.712  18.890  0.00  0.00    +0.000 A 
ATOM     15  C   UNL     1      -6.090  12.974  19.815  0.00  0.00    +0.000 A 
ATOM     16  C   UNL     1      -4.109  14.065  22.743  0.00  0.00    +0.000 C 
ATOM     17  C   UNL     1      -4.288  13.137  23.935  0.00  0.00    +0.000 C 
ATOM     18  C   UNL     1      -2.636  14.419  22.521  0.00  0.00    +0.000 C 
ATOM     19  O   UNL     1      -1.770  13.590  22.270  0.00  0.00    +0.000 OA
ATOM     20  H   UNL     1      -3.034  12.461  20.683  0.00  0.00    +0.000 HD
ENDROOT
BRANCH   1  22
ATOM     21  C   UNL     1      -0.118  16.414  23.111  0.00  0.00    +0.000 C 
ATOM     22  C   UNL     1      -1.319  16.530  22.173  0.00  0.00    +0.000 C 
BRANCH  22  23
ATOM     23  C   UNL     1      -0.930  16.031  20.765  0.00  0.00    +0.000 C 
ATOM     24  O   UNL     1      -1.526  16.385  19.749  0.00  0.00    +0.000 OA
ATOM     25  N   UNL     1       0.196  15.230  20.719  0.00  0.00    +0.000 N 
ATOM     26  H   UNL     1       0.662  14.985  21.588  0.00  0.00    +0.000 HD
BRANCH  25  27
ATOM     27  C   UNL     1       0.707  14.693  19.455  0.00  0.00    +0.000 C 
ATOM     28  C   UNL     1      -0.339  13.859  18.714  0.00  0.00    +0.000 C 
ATOM     29  C   UNL     1      -0.550  12.485  19.351  0.00  0.00    +0.000 C 
ATOM     30  N   UNL     1       0.711  11.735  19.482  0.00  0.00    +0.000 NA
ATOM     31  C   UNL     1       1.702  12.500  20.258  0.00  0.00    +0.000 C 
ATOM     32  C   UNL     1       1.982  13.877  19.659  0.00  0.00    +0.000 C 
BRANCH  30  33
ATOM     33  C   UNL     1       0.494  10.428  20.142  0.00  0.00    +0.000 C 
BRANCH  33  34
ATOM     34  C   UNL     1       1.236   9.265  19.521  0.00  0.00    +0.000 A 
ATOM     35  C   UNL     1       1.634   9.304  18.175  0.00  0.00    +0.000 A 
ATOM     36  C   UNL     1       2.362   8.248  17.624  0.00  0.00    +0.000 A 
ATOM     37  C   UNL     1       2.698   7.142  18.404  0.00  0.00    +0.000 A 
ATOM     38  C   UNL     1       2.301   7.088  19.738  0.00  0.00    +0.000 A 
ATOM     39  C   UNL     1       1.572   8.144  20.292  0.00  0.00    +0.000 A 
ENDBRANCH  33  34
ENDBRANCH  30  33
ENDBRANCH  25  27
ENDBRANCH  22  23
ENDBRANCH   1  22
TORSDOF 5
ENDMDL
