MODEL 1
REMARK VINA RESULT:      -9.5      0.000      0.000
REMARK  Name = 
REMARK  7 active torsions:
REMARK  status: ('A' for Active; 'I' for Inactive)
REMARK    1  A    between atoms: C_1  and  C_2
REMARK    2  A    between atoms: C_6  and  C_7
REMARK    3  A    between atoms: N_9  and  C_10
REMARK    4  A    between atoms: C_14  and  N_15
REMARK    5  A    between atoms: N_18  and  C_19
REMARK    6  A    between atoms: C_23  and  C_24
REMARK    7  A    between atoms: C_24  and  O_26
REMARK                            x       y       z     vdW  Elec       q    Type
REMARK                         _______ _______ _______ _____ _____    ______ ____
ROOT
ATOM      1  C   UNL     1       2.424   5.198  20.482  0.00  0.00    +0.000 A 
ATOM      2  C   UNL     1       1.913   3.957  20.875  0.00  0.00    +0.000 A 
ATOM      3  C   UNL     1       2.518   2.775  20.469  0.00  0.00    +0.000 A 
ATOM      4  C   UNL     1       3.646   2.812  19.655  0.00  0.00    +0.000 A 
ATOM      5  C   UNL     1       4.177   4.033  19.219  0.00  0.00    +0.000 A 
ATOM      6  C   UNL     1       3.557   5.228  19.642  0.00  0.00    +0.000 A 
ENDROOT
BRANCH   5   7
ATOM      7  N   UNL     1       5.343   4.083  18.401  0.00  0.00    +0.000 N 
ATOM      8  C   UNL     1       5.324   4.227  17.023  0.00  0.00    +0.000 C 
ATOM      9  O   UNL     1       4.311   4.448  16.352  0.00  0.00    +0.000 OA
ATOM     10  N   UNL     1       6.580   4.102  16.443  0.00  0.00    +0.000 N 
ATOM     11  H   UNL     1       6.226   4.247  18.861  0.00  0.00    +0.000 HD
ATOM     12  H   UNL     1       7.188   3.432  16.889  0.00  0.00    +0.000 HD
BRANCH  10  13
ATOM     13  C   UNL     1       6.717   4.244  15.032  0.00  0.00    +0.000 A 
ATOM     14  C   UNL     1       7.591   5.198  14.511  0.00  0.00    +0.000 A 
ATOM     15  C   UNL     1       7.758   5.308  13.125  0.00  0.00    +0.000 A 
ATOM     16  C   UNL     1       7.031   4.491  12.258  0.00  0.00    +0.000 A 
ATOM     17  C   UNL     1       6.140   3.537  12.779  0.00  0.00    +0.000 A 
ATOM     18  C   UNL     1       5.985   3.423  14.163  0.00  0.00    +0.000 A 
BRANCH  17  19
ATOM     19  C   UNL     1       5.339   2.719  11.829  0.00  0.00    +0.000 C 
ATOM     20  O   UNL     1       4.264   3.091  11.401  0.00  0.00    +0.000 OA
BRANCH  19  21
ATOM     21  O   UNL     1       5.911   1.553  11.478  0.00  0.00    +0.000 OA
ATOM     22  H   UNL     1       5.910   0.855  12.159  0.00  0.00    +0.000 HD
ENDBRANCH  19  21
ENDBRANCH  17  19
ENDBRANCH  10  13
ENDBRANCH   5   7
BRANCH   1  25
ATOM     23  C   UNL     1       1.811   7.589  20.156  0.00  0.00    +0.000 C 
ATOM     24  O   UNL     1       2.278   7.725  19.031  0.00  0.00    +0.000 OA
ATOM     25  N   UNL     1       1.831   6.421  20.913  0.00  0.00    +0.000 N 
ATOM     26  H   UNL     1       1.255   6.384  21.743  0.00  0.00    +0.000 HD
BRANCH  23  32
ATOM     27  C   UNL     1      -0.847  11.874  19.679  0.00  0.00    +0.000 C 
ATOM     28  C   UNL     1      -0.221  10.803  20.523  0.00  0.00    +0.000 A 
ATOM     29  C   UNL     1      -0.347  10.844  21.921  0.00  0.00    +0.000 A 
ATOM     30  C   UNL     1       0.218   9.845  22.709  0.00  0.00    +0.000 A 
ATOM     31  C   UNL     1       0.920   8.805  22.107  0.00  0.00    +0.000 A 
ATOM     32  C   UNL     1       1.071   8.757  20.713  0.00  0.00    +0.000 A 
ATOM     33  C   UNL     1       0.488   9.749  19.918  0.00  0.00    +0.000 A 
ENDBRANCH  23  32
ENDBRANCH   1  25
TORSDOF 6
ENDMDL
MODEL 2
REMARK VINA RESULT:      -9.4      0.501      1.344
REMARK  Name = 
REMARK  7 active torsions:
REMARK  status: ('A' for Active; 'I' for Inactive)
REMARK    1  A    between atoms: C_1  and  C_2
REMARK    2  A    between atoms: C_6  and  C_7
REMARK    3  A    between atoms: N_9  and  C_10
REMARK    4  A    between atoms: C_14  and  N_15
REMARK    5  A    between atoms: N_18  and  C_19
REMARK    6  A    between atoms: C_23  and  C_24
REMARK    7  A    between atoms: C_24  and  O_26
REMARK                            x       y       z     vdW  Elec       q    Type
REMARK                         _______ _______ _______ _____ _____    ______ ____
ROOT
ATOM      1  C   UNL     1       2.439   5.162  20.576  0.00  0.00    +0.000 A 
ATOM      2  C   UNL     1       1.961   3.986  21.162  0.00  0.00    +0.000 A 
ATOM      3  C   UNL     1       2.574   2.765  20.916  0.00  0.00    +0.000 A 
ATOM      4  C   UNL     1       3.677   2.696  20.071  0.00  0.00    +0.000 A 
ATOM      5  C   UNL     1       4.175   3.846  19.444  0.00  0.00    +0.000 A 
ATOM      6  C   UNL     1       3.546   5.083  19.705  0.00  0.00    +0.000 A 
ENDROOT
BRANCH   5   7
ATOM      7  N   UNL     1       5.315   3.789  18.591  0.00  0.00    +0.000 N 
ATOM      8  C   UNL     1       5.295   4.094  17.239  0.00  0.00    +0.000 C 
ATOM      9  O   UNL     1       4.324   4.563  16.638  0.00  0.00    +0.000 OA
ATOM     10  N   UNL     1       6.498   3.823  16.600  0.00  0.00    +0.000 N 
ATOM     11  H   UNL     1       6.222   3.744  19.032  0.00  0.00    +0.000 HD
ATOM     12  H   UNL     1       6.988   3.011  16.945  0.00  0.00    +0.000 HD
BRANCH  10  13
ATOM     13  C   UNL     1       6.631   4.102  15.210  0.00  0.00    +0.000 A 
ATOM     14  C   UNL     1       7.467   5.136  14.785  0.00  0.00    +0.000 A 
ATOM     15  C   UNL     1       7.631   5.382  13.417  0.00  0.00    +0.000 A 
ATOM     16  C   UNL     1       6.939   4.622  12.473  0.00  0.00    +0.000 A 
ATOM     17  C   UNL     1       6.087   3.588  12.897  0.00  0.00    +0.000 A 
ATOM     18  C   UNL     1       5.935   3.338  14.264  0.00  0.00    +0.000 A 
BRANCH  17  19
ATOM     19  C   UNL     1       5.320   2.832  11.871  0.00  0.00    +0.000 C 
ATOM     20  O   UNL     1       5.668   1.735  11.481  0.00  0.00    +0.000 OA
BRANCH  19  21
ATOM     21  O   UNL     1       4.212   3.455  11.431  0.00  0.00    +0.000 OA
ATOM     22  H   UNL     1       3.966   3.283  10.503  0.00  0.00    +0.000 HD
ENDBRANCH  19  21
ENDBRANCH  17  19
ENDBRANCH  10  13
ENDBRANCH   5   7
BRANCH   1  25
ATOM     23  C   UNL     1       1.883   7.511  19.969  0.00  0.00    +0.000 C 
ATOM     24  O   UNL     1       2.422   7.528  18.868  0.00  0.00    +0.000 OA
ATOM     25  N   UNL     1       1.838   6.428  20.841  0.00  0.00    +0.000 N 
ATOM     26  H   UNL     1       1.210   6.481  21.631  0.00  0.00    +0.000 HD
BRANCH  23  32
ATOM     27  C   UNL     1      -0.879  10.262  23.204  0.00  0.00    +0.000 C 
ATOM     28  C   UNL     1      -0.183  10.091  21.884  0.00  0.00    +0.000 A 
ATOM     29  C   UNL     1      -0.189  11.134  20.944  0.00  0.00    +0.000 A 
ATOM     30  C   UNL     1       0.467  10.988  19.726  0.00  0.00    +0.000 A 
ATOM     31  C   UNL     1       1.124   9.796  19.434  0.00  0.00    +0.000 A 
ATOM     32  C   UNL     1       1.126   8.737  20.355  0.00  0.00    +0.000 A 
ATOM     33  C   UNL     1       0.484   8.889  21.588  0.00  0.00    +0.000 A 
ENDBRANCH  23  32
ENDBRANCH   1  25
TORSDOF 6
ENDMDL
MODEL 3
REMARK VINA RESULT:      -8.8      3.509      6.758
REMARK  Name = 
REMARK  7 active torsions:
REMARK  status: ('A' for Active; 'I' for Inactive)
REMARK    1  A    between atoms: C_1  and  C_2
REMARK    2  A    between atoms: C_6  and  C_7
REMARK    3  A    between atoms: N_9  and  C_10
REMARK    4  A    between atoms: C_14  and  N_15
REMARK    5  A    between atoms: N_18  and  C_19
REMARK    6  A    between atoms: C_23  and  C_24
REMARK    7  A    between atoms: C_24  and  O_26
REMARK                            x       y       z     vdW  Elec       q    Type
REMARK                         _______ _______ _______ _____ _____    ______ ____
ROOT
ATOM      1  C   UNL     1       0.513  11.623  21.035  0.00  0.00    +0.000 A 
ATOM      2  C   UNL     1      -0.504  11.791  21.980  0.00  0.00    +0.000 A 
ATOM      3  C   UNL     1      -0.873  10.751  22.824  0.00  0.00    +0.000 A 
ATOM      4  C   UNL     1      -0.236   9.519  22.734  0.00  0.00    +0.000 A 
ATOM      5  C   UNL     1       0.773   9.300  21.786  0.00  0.00    +0.000 A 
ATOM      6  C   UNL     1       1.144  10.364  20.937  0.00  0.00    +0.000 A 
ENDROOT
BRANCH   5   7
ATOM      7  N   UNL     1       1.446   8.047  21.697  0.00  0.00    +0.000 N 
ATOM      8  C   UNL     1       1.884   7.476  20.512  0.00  0.00    +0.000 C 
ATOM      9  O   UNL     1       1.852   8.033  19.410  0.00  0.00    +0.000 OA
ATOM     10  N   UNL     1       2.379   6.190  20.675  0.00  0.00    +0.000 N 
ATOM     11  H   UNL     1       1.822   7.661  22.551  0.00  0.00    +0.000 HD
ATOM     12  H   UNL     1       1.907   5.639  21.376  0.00  0.00    +0.000 HD
BRANCH  10  13
ATOM     13  C   UNL     1       2.882   5.484  19.544  0.00  0.00    +0.000 A 
ATOM     14  C   UNL     1       1.997   4.855  18.667  0.00  0.00    +0.000 A 
ATOM     15  C   UNL     1       2.489   4.199  17.532  0.00  0.00    +0.000 A 
ATOM     16  C   UNL     1       3.862   4.141  17.288  0.00  0.00    +0.000 A 
ATOM     17  C   UNL     1       4.756   4.762  18.176  0.00  0.00    +0.000 A 
ATOM     18  C   UNL     1       4.261   5.426  19.301  0.00  0.00    +0.000 A 
BRANCH  17  19
ATOM     19  C   UNL     1       6.216   4.636  17.919  0.00  0.00    +0.000 C 
ATOM     20  O   UNL     1       6.661   4.390  16.815  0.00  0.00    +0.000 OA
BRANCH  19  21
ATOM     21  O   UNL     1       6.991   4.832  19.001  0.00  0.00    +0.000 OA
ATOM     22  H   UNL     1       7.764   4.242  19.086  0.00  0.00    +0.000 HD
ENDBRANCH  19  21
ENDBRANCH  17  19
ENDBRANCH  10  13
ENDBRANCH   5   7
BRANCH   1  25
ATOM     23  C   UNL     1       2.020  13.510  20.430  0.00  0.00    +0.000 C 
ATOM     24  O   UNL     1       2.779  13.427  21.388  0.00  0.00    +0.000 OA
ATOM     25  N   UNL     1       0.924  12.688  20.181  0.00  0.00    +0.000 N 
ATOM     26  H   UNL     1       0.490  12.739  19.271  0.00  0.00    +0.000 HD
BRANCH  23  32
ATOM     27  C   UNL     1       1.204  17.811  17.881  0.00  0.00    +0.000 C 
ATOM     28  C   UNL     1       2.023  16.584  18.162  0.00  0.00    +0.000 A 
ATOM     29  C   UNL     1       3.213  16.354  17.454  0.00  0.00    +0.000 A 
ATOM     30  C   UNL     1       3.984  15.227  17.720  0.00  0.00    +0.000 A 
ATOM     31  C   UNL     1       3.566  14.316  18.686  0.00  0.00    +0.000 A 
ATOM     32  C   UNL     1       2.370  14.521  19.391  0.00  0.00    +0.000 A 
ATOM     33  C   UNL     1       1.604  15.663  19.139  0.00  0.00    +0.000 A 
ENDBRANCH  23  32
ENDBRANCH   1  25
TORSDOF 6
ENDMDL
MODEL 4
REMARK VINA RESULT:      -8.6      3.859      7.100
REMARK  Name = 
REMARK  7 active torsions:
REMARK  status: ('A' for Active; 'I' for Inactive)
REMARK    1  A    between atoms: C_1  and  C_2
REMARK    2  A    between atoms: C_6  and  C_7
REMARK    3  A    between atoms: N_9  and  C_10
REMARK    4  A    between atoms: C_14  and  N_15
REMARK    5  A    between atoms: N_18  and  C_19
REMARK    6  A    between atoms: C_23  and  C_24
REMARK    7  A    between atoms: C_24  and  O_26
REMARK                            x       y       z     vdW  Elec       q    Type
REMARK                         _______ _______ _______ _____ _____    ______ ____
ROOT
ATOM      1  C   UNL     1      -1.078  12.059  18.824  0.00  0.00    +0.000 A 
ATOM      2  C   UNL     1      -0.232  13.073  18.364  0.00  0.00    +0.000 A 
ATOM      3  C   UNL     1       1.140  12.874  18.277  0.00  0.00    +0.000 A 
ATOM      4  C   UNL     1       1.693  11.656  18.656  0.00  0.00    +0.000 A 
ATOM      5  C   UNL     1       0.885  10.620  19.145  0.00  0.00    +0.000 A 
ATOM      6  C   UNL     1      -0.508  10.832  19.224  0.00  0.00    +0.000 A 
ENDROOT
BRANCH   5   7
ATOM      7  N   UNL     1       1.440   9.362  19.518  0.00  0.00    +0.000 N 
ATOM      8  C   UNL     1       1.990   8.455  18.626  0.00  0.00    +0.000 C 
ATOM      9  O   UNL     1       2.175   8.674  17.425  0.00  0.00    +0.000 OA
ATOM     10  N   UNL     1       2.330   7.245  19.217  0.00  0.00    +0.000 N 
ATOM     11  H   UNL     1       1.647   9.218  20.495  0.00  0.00    +0.000 HD
ATOM     12  H   UNL     1       1.709   6.942  19.951  0.00  0.00    +0.000 HD
BRANCH  10  13
ATOM     13  C   UNL     1       2.924   6.221  18.424  0.00  0.00    +0.000 A 
ATOM     14  C   UNL     1       2.201   5.066  18.125  0.00  0.00    +0.000 A 
ATOM     15  C   UNL     1       2.769   4.079  17.310  0.00  0.00    +0.000 A 
ATOM     16  C   UNL     1       4.068   4.228  16.819  0.00  0.00    +0.000 A 
ATOM     17  C   UNL     1       4.803   5.384  17.128  0.00  0.00    +0.000 A 
ATOM     18  C   UNL     1       4.228   6.372  17.932  0.00  0.00    +0.000 A 
BRANCH  17  19
ATOM     19  C   UNL     1       6.203   5.490  16.637  0.00  0.00    +0.000 C 
ATOM     20  O   UNL     1       6.882   4.510  16.399  0.00  0.00    +0.000 OA
BRANCH  19  21
ATOM     21  O   UNL     1       6.640   6.751  16.465  0.00  0.00    +0.000 OA
ATOM     22  H   UNL     1       7.404   7.016  17.011  0.00  0.00    +0.000 HD
ENDBRANCH  19  21
ENDBRANCH  17  19
ENDBRANCH  10  13
ENDBRANCH   5   7
BRANCH   1  25
ATOM     23  C   UNL     1      -3.392  11.687  17.985  0.00  0.00    +0.000 C 
ATOM     24  O   UNL     1      -3.108  10.975  17.029  0.00  0.00    +0.000 OA
ATOM     25  N   UNL     1      -2.491  12.238  18.892  0.00  0.00    +0.000 N 
ATOM     26  H   UNL     1      -2.860  12.651  19.737  0.00  0.00    +0.000 HD
BRANCH  23  32
ATOM     27  C   UNL     1      -7.445  11.787  21.023  0.00  0.00    +0.000 C 
ATOM     28  C   UNL     1      -6.806  11.970  19.677  0.00  0.00    +0.000 A 
ATOM     29  C   UNL     1      -7.577  12.395  18.583  0.00  0.00    +0.000 A 
ATOM     30  C   UNL     1      -6.988  12.582  17.336  0.00  0.00    +0.000 A 
ATOM     31  C   UNL     1      -5.628  12.335  17.171  0.00  0.00    +0.000 A 
ATOM     32  C   UNL     1      -4.845  11.894  18.249  0.00  0.00    +0.000 A 
ATOM     33  C   UNL     1      -5.431  11.725  19.508  0.00  0.00    +0.000 A 
ENDBRANCH  23  32
ENDBRANCH   1  25
TORSDOF 6
ENDMDL
MODEL 5
REMARK VINA RESULT:      -8.5      3.981      7.268
REMARK  Name = 
REMARK  7 active torsions:
REMARK  status: ('A' for Active; 'I' for Inactive)
REMARK    1  A    between atoms: C_1  and  C_2
REMARK    2  A    between atoms: C_6  and  C_7
REMARK    3  A    between atoms: N_9  and  C_10
REMARK    4  A    between atoms: C_14  and  N_15
REMARK    5  A    between atoms: N_18  and  C_19
REMARK    6  A    between atoms: C_23  and  C_24
REMARK    7  A    between atoms: C_24  and  O_26
REMARK                            x       y       z     vdW  Elec       q    Type
REMARK                         _______ _______ _______ _____ _____    ______ ____
ROOT
ATOM      1  C   UNL     1       0.090  12.106  21.222  0.00  0.00    +0.000 A 
ATOM      2  C   UNL     1      -0.897  12.218  22.206  0.00  0.00    +0.000 A 
ATOM      3  C   UNL     1      -1.160  11.168  23.076  0.00  0.00    +0.000 A 
ATOM      4  C   UNL     1      -0.444   9.980  22.973  0.00  0.00    +0.000 A 
ATOM      5  C   UNL     1       0.537   9.816  21.986  0.00  0.00    +0.000 A 
ATOM      6  C   UNL     1       0.800  10.891  21.111  0.00  0.00    +0.000 A 
ENDROOT
BRANCH   5   7
ATOM      7  N   UNL     1       1.289   8.610  21.883  0.00  0.00    +0.000 N 
ATOM      8  C   UNL     1       1.467   7.898  20.708  0.00  0.00    +0.000 C 
ATOM      9  O   UNL     1       1.101   8.279  19.592  0.00  0.00    +0.000 OA
ATOM     10  N   UNL     1       2.116   6.685  20.897  0.00  0.00    +0.000 N 
ATOM     11  H   UNL     1       1.907   8.382  22.649  0.00  0.00    +0.000 HD
ATOM     12  H   UNL     1       1.896   6.216  21.762  0.00  0.00    +0.000 HD
BRANCH  10  13
ATOM     13  C   UNL     1       2.384   5.851  19.773  0.00  0.00    +0.000 A 
ATOM     14  C   UNL     1       3.225   6.304  18.756  0.00  0.00    +0.000 A 
ATOM     15  C   UNL     1       3.522   5.468  17.673  0.00  0.00    +0.000 A 
ATOM     16  C   UNL     1       2.957   4.194  17.586  0.00  0.00    +0.000 A 
ATOM     17  C   UNL     1       2.100   3.740  18.602  0.00  0.00    +0.000 A 
ATOM     18  C   UNL     1       1.815   4.573  19.687  0.00  0.00    +0.000 A 
BRANCH  17  19
ATOM     19  C   UNL     1       1.469   2.400  18.455  0.00  0.00    +0.000 C 
ATOM     20  O   UNL     1       0.264   2.245  18.480  0.00  0.00    +0.000 OA
BRANCH  19  21
ATOM     21  O   UNL     1       2.341   1.391  18.278  0.00  0.00    +0.000 OA
ATOM     22  H   UNL     1       3.005   1.519  17.575  0.00  0.00    +0.000 HD
ENDBRANCH  19  21
ENDBRANCH  17  19
ENDBRANCH  10  13
ENDBRANCH   5   7
BRANCH   1  25
ATOM     23  C   UNL     1       1.216  14.257  20.672  0.00  0.00    +0.000 C 
ATOM     24  O   UNL     1       1.797  14.416  21.739  0.00  0.00    +0.000 OA
ATOM     25  N   UNL     1       0.392  13.185  20.340  0.00  0.00    +0.000 N 
ATOM     26  H   UNL     1       0.123  13.075  19.373  0.00  0.00    +0.000 HD
BRANCH  23  32
ATOM     27  C   UNL     1      -0.064  18.137  17.676  0.00  0.00    +0.000 C 
ATOM     28  C   UNL     1       0.934  17.127  18.166  0.00  0.00    +0.000 A 
ATOM     29  C   UNL     1       2.237  17.113  17.643  0.00  0.00    +0.000 A 
ATOM     30  C   UNL     1       3.171  16.190  18.104  0.00  0.00    +0.000 A 
ATOM     31  C   UNL     1       2.807  15.270  19.082  0.00  0.00    +0.000 A 
ATOM     32  C   UNL     1       1.504  15.258  19.604  0.00  0.00    +0.000 A 
ATOM     33  C   UNL     1       0.570  16.197  19.157  0.00  0.00    +0.000 A 
ENDBRANCH  23  32
ENDBRANCH   1  25
TORSDOF 6
ENDMDL
MODEL 6
REMARK VINA RESULT:      -8.4      3.921      7.107
REMARK  Name = 
REMARK  7 active torsions:
REMARK  status: ('A' for Active; 'I' for Inactive)
REMARK    1  A    between atoms: C_1  and  C_2
REMARK    2  A    between atoms: C_6  and  C_7
REMARK    3  A    between atoms: N_9  and  C_10
REMARK    4  A    between atoms: C_14  and  N_15
REMARK    5  A    between atoms: N_18  and  C_19
REMARK    6  A    between atoms: C_23  and  C_24
REMARK    7  A    between atoms: C_24  and  O_26
REMARK                            x       y       z     vdW  Elec       q    Type
REMARK                         _______ _______ _______ _____ _____    ______ ____
ROOT
ATOM      1  C   UNL     1      -1.121  12.182  18.780  0.00  0.00    +0.000 A 
ATOM      2  C   UNL     1      -0.272  13.219  18.381  0.00  0.00    +0.000 A 
ATOM      3  C   UNL     1       1.104  13.034  18.325  0.00  0.00    +0.000 A 
ATOM      4  C   UNL     1       1.658  11.807  18.675  0.00  0.00    +0.000 A 
ATOM      5  C   UNL     1       0.846  10.748  19.104  0.00  0.00    +0.000 A 
ATOM      6  C   UNL     1      -0.551  10.946  19.152  0.00  0.00    +0.000 A 
ENDROOT
BRANCH   5   7
ATOM      7  N   UNL     1       1.402   9.482  19.447  0.00  0.00    +0.000 N 
ATOM      8  C   UNL     1       2.055   8.647  18.554  0.00  0.00    +0.000 C 
ATOM      9  O   UNL     1       2.339   8.947  17.390  0.00  0.00    +0.000 OA
ATOM     10  N   UNL     1       2.376   7.410  19.097  0.00  0.00    +0.000 N 
ATOM     11  H   UNL     1       1.525   9.281  20.428  0.00  0.00    +0.000 HD
ATOM     12  H   UNL     1       1.702   7.047  19.752  0.00  0.00    +0.000 HD
BRANCH  10  13
ATOM     13  C   UNL     1       3.067   6.454  18.299  0.00  0.00    +0.000 A 
ATOM     14  C   UNL     1       4.058   6.874  17.411  0.00  0.00    +0.000 A 
ATOM     15  C   UNL     1       4.767   5.929  16.659  0.00  0.00    +0.000 A 
ATOM     16  C   UNL     1       4.467   4.570  16.766  0.00  0.00    +0.000 A 
ATOM     17  C   UNL     1       3.461   4.144  17.649  0.00  0.00    +0.000 A 
ATOM     18  C   UNL     1       2.764   5.090  18.407  0.00  0.00    +0.000 A 
BRANCH  17  19
ATOM     19  C   UNL     1       3.125   2.696  17.701  0.00  0.00    +0.000 C 
ATOM     20  O   UNL     1       2.055   2.265  17.319  0.00  0.00    +0.000 OA
BRANCH  19  21
ATOM     21  O   UNL     1       4.106   1.914  18.186  0.00  0.00    +0.000 OA
ATOM     22  H   UNL     1       3.820   1.164  18.742  0.00  0.00    +0.000 HD
ENDBRANCH  19  21
ENDBRANCH  17  19
ENDBRANCH  10  13
ENDBRANCH   5   7
BRANCH   1  25
ATOM     23  C   UNL     1      -3.426  11.630  18.021  0.00  0.00    +0.000 C 
ATOM     24  O   UNL     1      -3.127  10.764  17.206  0.00  0.00    +0.000 OA
ATOM     25  N   UNL     1      -2.536  12.347  18.816  0.00  0.00    +0.000 N 
ATOM     26  H   UNL     1      -2.915  12.896  19.574  0.00  0.00    +0.000 HD
BRANCH  23  32
ATOM     27  C   UNL     1      -7.578  11.694  20.922  0.00  0.00    +0.000 C 
ATOM     28  C   UNL     1      -6.890  11.917  19.607  0.00  0.00    +0.000 A 
ATOM     29  C   UNL     1      -7.614  12.399  18.505  0.00  0.00    +0.000 A 
ATOM     30  C   UNL     1      -6.979  12.622  17.287  0.00  0.00    +0.000 A 
ATOM     31  C   UNL     1      -5.620  12.355  17.158  0.00  0.00    +0.000 A 
ATOM     32  C   UNL     1      -4.883  11.855  18.243  0.00  0.00    +0.000 A 
ATOM     33  C   UNL     1      -5.515  11.649  19.474  0.00  0.00    +0.000 A 
ENDBRANCH  23  32
ENDBRANCH   1  25
TORSDOF 6
ENDMDL
MODEL 7
REMARK VINA RESULT:      -8.4      2.198      9.902
REMARK  Name = 
REMARK  7 active torsions:
REMARK  status: ('A' for Active; 'I' for Inactive)
REMARK    1  A    between atoms: C_1  and  C_2
REMARK    2  A    between atoms: C_6  and  C_7
REMARK    3  A    between atoms: N_9  and  C_10
REMARK    4  A    between atoms: C_14  and  N_15
REMARK    5  A    between atoms: N_18  and  C_19
REMARK    6  A    between atoms: C_23  and  C_24
REMARK    7  A    between atoms: C_24  and  O_26
REMARK                            x       y       z     vdW  Elec       q    Type
REMARK                         _______ _______ _______ _____ _____    ______ ____
ROOT
ATOM      1  C   UNL     1       2.882   4.196  17.971  0.00  0.00    +0.000 A 
ATOM      2  C   UNL     1       2.077   3.096  18.283  0.00  0.00    +0.000 A 
ATOM      3  C   UNL     1       1.334   3.064  19.456  0.00  0.00    +0.000 A 
ATOM      4  C   UNL     1       1.388   4.132  20.345  0.00  0.00    +0.000 A 
ATOM      5  C   UNL     1       2.200   5.244  20.083  0.00  0.00    +0.000 A 
ATOM      6  C   UNL     1       2.947   5.268  18.886  0.00  0.00    +0.000 A 
ENDROOT
BRANCH   5   7
ATOM      7  N   UNL     1       2.249   6.351  20.979  0.00  0.00    +0.000 N 
ATOM      8  C   UNL     1       1.309   7.370  21.014  0.00  0.00    +0.000 C 
ATOM      9  O   UNL     1       0.260   7.381  20.363  0.00  0.00    +0.000 OA
ATOM     10  N   UNL     1       1.656   8.404  21.873  0.00  0.00    +0.000 N 
ATOM     11  H   UNL     1       2.868   6.279  21.773  0.00  0.00    +0.000 HD
ATOM     12  H   UNL     1       2.644   8.604  21.919  0.00  0.00    +0.000 HD
BRANCH  10  13
ATOM     13  C   UNL     1       0.775   9.513  22.025  0.00  0.00    +0.000 A 
ATOM     14  C   UNL     1      -0.197   9.497  23.026  0.00  0.00    +0.000 A 
ATOM     15  C   UNL     1      -1.034  10.605  23.203  0.00  0.00    +0.000 A 
ATOM     16  C   UNL     1      -0.925  11.715  22.364  0.00  0.00    +0.000 A 
ATOM     17  C   UNL     1       0.044  11.730  21.347  0.00  0.00    +0.000 A 
ATOM     18  C   UNL     1       0.885  10.627  21.181  0.00  0.00    +0.000 A 
BRANCH  17  19
ATOM     19  C   UNL     1       0.100  12.903  20.434  0.00  0.00    +0.000 C 
ATOM     20  O   UNL     1       0.700  13.920  20.721  0.00  0.00    +0.000 OA
BRANCH  19  21
ATOM     21  O   UNL     1      -0.553  12.734  19.270  0.00  0.00    +0.000 OA
ATOM     22  H   UNL     1      -0.016  12.832  18.461  0.00  0.00    +0.000 HD
ENDBRANCH  19  21
ENDBRANCH  17  19
ENDBRANCH  10  13
ENDBRANCH   5   7
BRANCH   1  25
ATOM     23  C   UNL     1       5.019   4.281  16.697  0.00  0.00    +0.000 C 
ATOM     24  O   UNL     1       5.782   4.241  17.655  0.00  0.00    +0.000 OA
ATOM     25  N   UNL     1       3.628   4.256  16.757  0.00  0.00    +0.000 N 
ATOM     26  H   UNL     1       3.118   4.109  15.898  0.00  0.00    +0.000 HD
BRANCH  23  32
ATOM     27  C   UNL     1       5.089   3.021  11.791  0.00  0.00    +0.000 C 
ATOM     28  C   UNL     1       5.709   3.683  12.987  0.00  0.00    +0.000 A 
ATOM     29  C   UNL     1       6.934   4.357  12.863  0.00  0.00    +0.000 A 
ATOM     30  C   UNL     1       7.506   4.987  13.965  0.00  0.00    +0.000 A 
ATOM     31  C   UNL     1       6.865   4.937  15.199  0.00  0.00    +0.000 A 
ATOM     32  C   UNL     1       5.648   4.253  15.345  0.00  0.00    +0.000 A 
ATOM     33  C   UNL     1       5.061   3.637  14.235  0.00  0.00    +0.000 A 
ENDBRANCH  23  32
ENDBRANCH   1  25
TORSDOF 6
ENDMDL
MODEL 8
REMARK VINA RESULT:      -8.4      2.314      9.367
REMARK  Name = 
REMARK  7 active torsions:
REMARK  status: ('A' for Active; 'I' for Inactive)
REMARK    1  A    between atoms: C_1  and  C_2
REMARK    2  A    between atoms: C_6  and  C_7
REMARK    3  A    between atoms: N_9  and  C_10
REMARK    4  A    between atoms: C_14  and  N_15
REMARK    5  A    between atoms: N_18  and  C_19
REMARK    6  A    between atoms: C_23  and  C_24
REMARK    7  A    between atoms: C_24  and  O_26
REMARK                            x       y       z     vdW  Elec       q    Type
REMARK                         _______ _______ _______ _____ _____    ______ ____
ROOT
ATOM      1  C   UNL     1       3.692   4.819  17.932  0.00  0.00    +0.000 A 
ATOM      2  C   UNL     1       3.509   3.666  18.701  0.00  0.00    +0.000 A 
ATOM      3  C   UNL     1       2.888   3.727  19.942  0.00  0.00    +0.000 A 
ATOM      4  C   UNL     1       2.445   4.947  20.442  0.00  0.00    +0.000 A 
ATOM      5  C   UNL     1       2.629   6.131  19.714  0.00  0.00    +0.000 A 
ATOM      6  C   UNL     1       3.256   6.056  18.452  0.00  0.00    +0.000 A 
ENDROOT
BRANCH   5   7
ATOM      7  N   UNL     1       2.162   7.383  20.208  0.00  0.00    +0.000 N 
ATOM      8  C   UNL     1       1.617   8.381  19.417  0.00  0.00    +0.000 C 
ATOM      9  O   UNL     1       1.360   8.264  18.214  0.00  0.00    +0.000 OA
ATOM     10  N   UNL     1       1.372   9.558  20.112  0.00  0.00    +0.000 N 
ATOM     11  H   UNL     1       2.013   7.462  21.204  0.00  0.00    +0.000 HD
ATOM     12  H   UNL     1       2.045   9.773  20.832  0.00  0.00    +0.000 HD
BRANCH  10  13
ATOM     13  C   UNL     1       0.795  10.667  19.430  0.00  0.00    +0.000 A 
ATOM     14  C   UNL     1       1.486  11.877  19.360  0.00  0.00    +0.000 A 
ATOM     15  C   UNL     1       0.938  12.953  18.652  0.00  0.00    +0.000 A 
ATOM     16  C   UNL     1      -0.312  12.836  18.042  0.00  0.00    +0.000 A 
ATOM     17  C   UNL     1      -1.017  11.624  18.121  0.00  0.00    +0.000 A 
ATOM     18  C   UNL     1      -0.461  10.548  18.819  0.00  0.00    +0.000 A 
BRANCH  17  19
ATOM     19  C   UNL     1      -2.371  11.546  17.509  0.00  0.00    +0.000 C 
ATOM     20  O   UNL     1      -3.383  11.504  18.179  0.00  0.00    +0.000 OA
BRANCH  19  21
ATOM     21  O   UNL     1      -2.374  11.545  16.164  0.00  0.00    +0.000 OA
ATOM     22  H   UNL     1      -1.783  10.897  15.736  0.00  0.00    +0.000 HD
ENDBRANCH  19  21
ENDBRANCH  17  19
ENDBRANCH  10  13
ENDBRANCH   5   7
BRANCH   1  25
ATOM     23  C   UNL     1       5.660   4.553  16.431  0.00  0.00    +0.000 C 
ATOM     24  O   UNL     1       6.504   4.363  17.300  0.00  0.00    +0.000 OA
ATOM     25  N   UNL     1       4.302   4.770  16.644  0.00  0.00    +0.000 N 
ATOM     26  H   UNL     1       3.684   4.729  15.846  0.00  0.00    +0.000 HD
BRANCH  23  32
ATOM     27  C   UNL     1       5.266   2.811  11.690  0.00  0.00    +0.000 C 
ATOM     28  C   UNL     1       5.959   3.639  12.734  0.00  0.00    +0.000 A 
ATOM     29  C   UNL     1       7.093   4.395  12.395  0.00  0.00    +0.000 A 
ATOM     30  C   UNL     1       7.731   5.176  13.353  0.00  0.00    +0.000 A 
ATOM     31  C   UNL     1       7.247   5.201  14.658  0.00  0.00    +0.000 A 
ATOM     32  C   UNL     1       6.125   4.438  15.019  0.00  0.00    +0.000 A 
ATOM     33  C   UNL     1       5.471   3.667  14.053  0.00  0.00    +0.000 A 
ENDBRANCH  23  32
ENDBRANCH   1  25
TORSDOF 6
ENDMDL
MODEL 9
REMARK VINA RESULT:      -8.4      3.428      6.373
REMARK  Name = 
REMARK  7 active torsions:
REMARK  status: ('A' for Active; 'I' for Inactive)
REMARK    1  A    between atoms: C_1  and  C_2
REMARK    2  A    between atoms: C_6  and  C_7
REMARK    3  A    between atoms: N_9  and  C_10
REMARK    4  A    between atoms: C_14  and  N_15
REMARK    5  A    between atoms: N_18  and  C_19
REMARK    6  A    between atoms: C_23  and  C_24
REMARK    7  A    between atoms: C_24  and  O_26
REMARK                            x       y       z     vdW  Elec       q    Type
REMARK                         _______ _______ _______ _____ _____    ______ ____
ROOT
ATOM      1  C   UNL     1      -0.624  11.086  20.673  0.00  0.00    +0.000 A 
ATOM      2  C   UNL     1      -0.801  11.476  19.342  0.00  0.00    +0.000 A 
ATOM      3  C   UNL     1      -0.186  10.783  18.307  0.00  0.00    +0.000 A 
ATOM      4  C   UNL     1       0.625   9.688  18.586  0.00  0.00    +0.000 A 
ATOM      5  C   UNL     1       0.849   9.277  19.907  0.00  0.00    +0.000 A 
ATOM      6  C   UNL     1       0.215   9.985  20.950  0.00  0.00    +0.000 A 
ENDROOT
BRANCH   5   7
ATOM      7  N   UNL     1       1.663   8.146  20.202  0.00  0.00    +0.000 N 
ATOM      8  C   UNL     1       2.318   7.384  19.247  0.00  0.00    +0.000 C 
ATOM      9  O   UNL     1       2.375   7.660  18.045  0.00  0.00    +0.000 OA
ATOM     10  N   UNL     1       2.928   6.253  19.774  0.00  0.00    +0.000 N 
ATOM     11  H   UNL     1       1.960   8.025  21.159  0.00  0.00    +0.000 HD
ATOM     12  H   UNL     1       2.429   5.818  20.535  0.00  0.00    +0.000 HD
BRANCH  10  13
ATOM     13  C   UNL     1       3.655   5.384  18.911  0.00  0.00    +0.000 A 
ATOM     14  C   UNL     1       2.978   4.416  18.168  0.00  0.00    +0.000 A 
ATOM     15  C   UNL     1       3.688   3.590  17.288  0.00  0.00    +0.000 A 
ATOM     16  C   UNL     1       5.074   3.706  17.172  0.00  0.00    +0.000 A 
ATOM     17  C   UNL     1       5.761   4.670  17.928  0.00  0.00    +0.000 A 
ATOM     18  C   UNL     1       5.047   5.500  18.797  0.00  0.00    +0.000 A 
BRANCH  17  19
ATOM     19  C   UNL     1       7.243   4.732  17.825  0.00  0.00    +0.000 C 
ATOM     20  O   UNL     1       7.834   4.457  16.799  0.00  0.00    +0.000 OA
BRANCH  19  21
ATOM     21  O   UNL     1       7.864   5.131  18.950  0.00  0.00    +0.000 OA
ATOM     22  H   UNL     1       8.837   5.063  18.948  0.00  0.00    +0.000 HD
ENDBRANCH  19  21
ENDBRANCH  17  19
ENDBRANCH  10  13
ENDBRANCH   5   7
BRANCH   1  25
ATOM     23  C   UNL     1      -0.761  12.906  22.366  0.00  0.00    +0.000 C 
ATOM     24  O   UNL     1       0.285  13.476  22.077  0.00  0.00    +0.000 OA
ATOM     25  N   UNL     1      -1.271  11.769  21.745  0.00  0.00    +0.000 N 
ATOM     26  H   UNL     1      -2.224  11.504  21.948  0.00  0.00    +0.000 HD
BRANCH  23  32
ATOM     27  C   UNL     1      -1.576  16.344  25.996  0.00  0.00    +0.000 C 
ATOM     28  C   UNL     1      -2.038  15.199  25.142  0.00  0.00    +0.000 A 
ATOM     29  C   UNL     1      -3.343  14.701  25.277  0.00  0.00    +0.000 A 
ATOM     30  C   UNL     1      -3.783  13.649  24.479  0.00  0.00    +0.000 A 
ATOM     31  C   UNL     1      -2.918  13.081  23.548  0.00  0.00    +0.000 A 
ATOM     32  C   UNL     1      -1.604  13.554  23.411  0.00  0.00    +0.000 A 
ATOM     33  C   UNL     1      -1.167  14.624  24.199  0.00  0.00    +0.000 A 
ENDBRANCH  23  32
ENDBRANCH   1  25
TORSDOF 6
ENDMDL
