MODEL 1
REMARK VINA RESULT:      -7.1      0.000      0.000
REMARK  Name = 
REMARK  8 active torsions:
REMARK  status: ('A' for Active; 'I' for Inactive)
REMARK    1  A    between atoms: C_1  and  O_2
REMARK    2  A    between atoms: O_2  and  C_3
REMARK    3  A    between atoms: C_7  and  C_8
REMARK    4  A    between atoms: C_8  and  C_10
REMARK    5  A    between atoms: N_13  and  C_14
REMARK    6  A    between atoms: C_14  and  C_15
REMARK    7  A    between atoms: C_14  and  C_16
REMARK    8  A    between atoms: C_18  and  N_19
REMARK                            x       y       z     vdW  Elec       q    Type
REMARK                         _______ _______ _______ _____ _____    ______ ____
ROOT
ATOM      1  C   UNL     1       5.938   4.672  17.664  0.00  0.00    +0.000 A 
ATOM      2  S   UNL     1       4.684   4.647  16.477  0.00  0.00    +0.000 S 
ATOM      3  C   UNL     1       5.847   4.302  15.252  0.00  0.00    +0.000 A 
ATOM      4  N   UNL     1       5.478   4.308  13.951  0.00  0.00    +0.000 N 
ATOM      5  N   UNL     1       7.063   4.093  15.695  0.00  0.00    +0.000 NA
ATOM      6  C   UNL     1       7.118   4.323  17.044  0.00  0.00    +0.000 A 
ATOM      7  H   UNL     1       4.542   4.611  13.705  0.00  0.00    +0.000 HD
ENDROOT
BRANCH   4   8
ATOM      8  C   UNL     1       6.240   3.601  12.932  0.00  0.00    +0.000 C 
ATOM      9  C   UNL     1       5.300   3.033  11.870  0.00  0.00    +0.000 C 
ATOM     10  C   UNL     1       7.216   4.581  12.281  0.00  0.00    +0.000 C 
ENDBRANCH   4   8
BRANCH   6  11
ATOM     11  N   UNL     1       8.331   4.221  17.603  0.00  0.00    +0.000 N 
ATOM     12  H   UNL     1       8.477   3.519  18.318  0.00  0.00    +0.000 HD
ATOM     13  H   UNL     1       9.051   4.935  17.558  0.00  0.00    +0.000 HD
ENDBRANCH   6  11
BRANCH   1  14
ATOM     14  C   UNL     1       5.615   5.057  19.028  0.00  0.00    +0.000 C 
ATOM     15  O   UNL     1       6.449   5.383  19.865  0.00  0.00    +0.000 OA
BRANCH  14  20
ATOM     16  C   UNL     1       2.197   3.836  20.202  0.00  0.00    +0.000 A 
ATOM     17  C   UNL     1       1.476   5.032  20.195  0.00  0.00    +0.000 A 
ATOM     18  C   UNL     1       2.103   6.233  19.851  0.00  0.00    +0.000 A 
ATOM     19  C   UNL     1       3.451   6.237  19.484  0.00  0.00    +0.000 A 
ATOM     20  C   UNL     1       4.174   5.044  19.466  0.00  0.00    +0.000 A 
ATOM     21  C   UNL     1       3.551   3.854  19.870  0.00  0.00    +0.000 A 
BRANCH  16  23
ATOM     22  C   UNL     1       1.404   2.399  21.918  0.00  0.00    +0.000 C 
ATOM     23  O   UNL     1       1.476   2.720  20.534  0.00  0.00    +0.000 OA
ENDBRANCH  16  23
ENDBRANCH  14  20
ENDBRANCH   1  14
TORSDOF 5
ENDMDL
MODEL 2
REMARK VINA RESULT:      -7.0      1.049      1.899
REMARK  Name = 
REMARK  8 active torsions:
REMARK  status: ('A' for Active; 'I' for Inactive)
REMARK    1  A    between atoms: C_1  and  O_2
REMARK    2  A    between atoms: O_2  and  C_3
REMARK    3  A    between atoms: C_7  and  C_8
REMARK    4  A    between atoms: C_8  and  C_10
REMARK    5  A    between atoms: N_13  and  C_14
REMARK    6  A    between atoms: C_14  and  C_15
REMARK    7  A    between atoms: C_14  and  C_16
REMARK    8  A    between atoms: C_18  and  N_19
REMARK                            x       y       z     vdW  Elec       q    Type
REMARK                         _______ _______ _______ _____ _____    ______ ____
ROOT
ATOM      1  C   UNL     1       5.870   4.653  17.710  0.00  0.00    +0.000 A 
ATOM      2  S   UNL     1       4.635   4.612  16.504  0.00  0.00    +0.000 S 
ATOM      3  C   UNL     1       5.818   4.262  15.300  0.00  0.00    +0.000 A 
ATOM      4  N   UNL     1       5.470   4.255  13.993  0.00  0.00    +0.000 N 
ATOM      5  N   UNL     1       7.028   4.062  15.763  0.00  0.00    +0.000 NA
ATOM      6  C   UNL     1       7.062   4.303  17.110  0.00  0.00    +0.000 A 
ATOM      7  H   UNL     1       4.536   4.552  13.731  0.00  0.00    +0.000 HD
ENDROOT
BRANCH   4   8
ATOM      8  C   UNL     1       6.250   3.544  12.992  0.00  0.00    +0.000 C 
ATOM      9  C   UNL     1       5.331   2.974  11.913  0.00  0.00    +0.000 C 
ATOM     10  C   UNL     1       7.242   4.518  12.357  0.00  0.00    +0.000 C 
ENDBRANCH   4   8
BRANCH   6  11
ATOM     11  N   UNL     1       8.266   4.211  17.689  0.00  0.00    +0.000 N 
ATOM     12  H   UNL     1       8.989   3.681  17.220  0.00  0.00    +0.000 HD
ATOM     13  H   UNL     1       8.456   4.415  18.666  0.00  0.00    +0.000 HD
ENDBRANCH   6  11
BRANCH   1  14
ATOM     14  C   UNL     1       5.525   5.048  19.065  0.00  0.00    +0.000 C 
ATOM     15  O   UNL     1       6.310   5.565  19.850  0.00  0.00    +0.000 OA
BRANCH  14  20
ATOM     16  C   UNL     1       1.978   5.626  20.344  0.00  0.00    +0.000 A 
ATOM     17  C   UNL     1       1.559   4.311  20.558  0.00  0.00    +0.000 A 
ATOM     18  C   UNL     1       2.406   3.242  20.251  0.00  0.00    +0.000 A 
ATOM     19  C   UNL     1       3.689   3.486  19.756  0.00  0.00    +0.000 A 
ATOM     20  C   UNL     1       4.125   4.798  19.561  0.00  0.00    +0.000 A 
ATOM     21  C   UNL     1       3.246   5.861  19.815  0.00  0.00    +0.000 A 
BRANCH  16  23
ATOM     22  C   UNL     1       1.573   7.922  20.799  0.00  0.00    +0.000 C 
ATOM     23  O   UNL     1       1.075   6.593  20.700  0.00  0.00    +0.000 OA
ENDBRANCH  16  23
ENDBRANCH  14  20
ENDBRANCH   1  14
TORSDOF 5
ENDMDL
MODEL 3
REMARK VINA RESULT:      -6.9      2.913      6.995
REMARK  Name = 
REMARK  8 active torsions:
REMARK  status: ('A' for Active; 'I' for Inactive)
REMARK    1  A    between atoms: C_1  and  O_2
REMARK    2  A    between atoms: O_2  and  C_3
REMARK    3  A    between atoms: C_7  and  C_8
REMARK    4  A    between atoms: C_8  and  C_10
REMARK    5  A    between atoms: N_13  and  C_14
REMARK    6  A    between atoms: C_14  and  C_15
REMARK    7  A    between atoms: C_14  and  C_16
REMARK    8  A    between atoms: C_18  and  N_19
REMARK                            x       y       z     vdW  Elec       q    Type
REMARK                         _______ _______ _______ _____ _____    ______ ____
ROOT
ATOM      1  C   UNL     1       5.673   4.774  16.850  0.00  0.00    +0.000 A 
ATOM      2  S   UNL     1       5.147   3.540  17.939  0.00  0.00    +0.000 S 
ATOM      3  C   UNL     1       3.823   4.531  18.425  0.00  0.00    +0.000 A 
ATOM      4  N   UNL     1       3.043   4.154  19.463  0.00  0.00    +0.000 N 
ATOM      5  N   UNL     1       3.695   5.647  17.747  0.00  0.00    +0.000 NA
ATOM      6  C   UNL     1       4.745   5.793  16.880  0.00  0.00    +0.000 A 
ATOM      7  H   UNL     1       3.305   3.337  20.005  0.00  0.00    +0.000 HD
ENDROOT
BRANCH   4   8
ATOM      8  C   UNL     1       1.690   4.661  19.634  0.00  0.00    +0.000 C 
ATOM      9  C   UNL     1       0.765   3.546  20.118  0.00  0.00    +0.000 C 
ATOM     10  C   UNL     1       1.714   5.789  20.665  0.00  0.00    +0.000 C 
ENDBRANCH   4   8
BRANCH   6  11
ATOM     11  N   UNL     1       4.772   6.937  16.185  0.00  0.00    +0.000 N 
ATOM     12  H   UNL     1       3.913   7.267  15.763  0.00  0.00    +0.000 HD
ATOM     13  H   UNL     1       5.615   7.381  15.834  0.00  0.00    +0.000 HD
ENDBRANCH   6  11
BRANCH   1  14
ATOM     14  C   UNL     1       6.928   4.602  16.138  0.00  0.00    +0.000 C 
ATOM     15  O   UNL     1       8.024   4.540  16.683  0.00  0.00    +0.000 OA
BRANCH  14  20
ATOM     16  C   UNL     1       6.057   3.508  12.589  0.00  0.00    +0.000 A 
ATOM     17  C   UNL     1       6.938   4.298  11.848  0.00  0.00    +0.000 A 
ATOM     18  C   UNL     1       7.780   5.210  12.491  0.00  0.00    +0.000 A 
ATOM     19  C   UNL     1       7.766   5.313  13.884  0.00  0.00    +0.000 A 
ATOM     20  C   UNL     1       6.905   4.510  14.635  0.00  0.00    +0.000 A 
ATOM     21  C   UNL     1       6.022   3.642  13.976  0.00  0.00    +0.000 A 
BRANCH  16  23
ATOM     22  C   UNL     1       4.115   3.167  11.265  0.00  0.00    +0.000 C 
ATOM     23  O   UNL     1       5.296   2.636  11.856  0.00  0.00    +0.000 OA
ENDBRANCH  16  23
ENDBRANCH  14  20
ENDBRANCH   1  14
TORSDOF 5
ENDMDL
MODEL 4
REMARK VINA RESULT:      -6.7      1.354      1.372
REMARK  Name = 
REMARK  8 active torsions:
REMARK  status: ('A' for Active; 'I' for Inactive)
REMARK    1  A    between atoms: C_1  and  O_2
REMARK    2  A    between atoms: O_2  and  C_3
REMARK    3  A    between atoms: C_7  and  C_8
REMARK    4  A    between atoms: C_8  and  C_10
REMARK    5  A    between atoms: N_13  and  C_14
REMARK    6  A    between atoms: C_14  and  C_15
REMARK    7  A    between atoms: C_14  and  C_16
REMARK    8  A    between atoms: C_18  and  N_19
REMARK                            x       y       z     vdW  Elec       q    Type
REMARK                         _______ _______ _______ _____ _____    ______ ____
ROOT
ATOM      1  C   UNL     1       6.085   4.918  16.924  0.00  0.00    +0.000 A 
ATOM      2  S   UNL     1       5.511   3.605  15.961  0.00  0.00    +0.000 S 
ATOM      3  C   UNL     1       6.447   4.169  14.629  0.00  0.00    +0.000 A 
ATOM      4  N   UNL     1       6.303   3.597  13.412  0.00  0.00    +0.000 N 
ATOM      5  N   UNL     1       7.231   5.185  14.901  0.00  0.00    +0.000 NA
ATOM      6  C   UNL     1       7.012   5.618  16.181  0.00  0.00    +0.000 A 
ATOM      7  H   UNL     1       5.574   2.905  13.276  0.00  0.00    +0.000 HD
ENDROOT
BRANCH   4   8
ATOM      8  C   UNL     1       7.337   3.685  12.393  0.00  0.00    +0.000 C 
ATOM      9  C   UNL     1       7.157   2.575  11.360  0.00  0.00    +0.000 C 
ATOM     10  C   UNL     1       7.234   5.046  11.704  0.00  0.00    +0.000 C 
ENDBRANCH   4   8
BRANCH   6  11
ATOM     11  N   UNL     1       7.697   6.706  16.554  0.00  0.00    +0.000 N 
ATOM     12  H   UNL     1       8.067   7.315  15.835  0.00  0.00    +0.000 HD
ATOM     13  H   UNL     1       8.093   6.853  17.478  0.00  0.00    +0.000 HD
ENDBRANCH   6  11
BRANCH   1  14
ATOM     14  C   UNL     1       5.538   5.112  18.257  0.00  0.00    +0.000 C 
ATOM     15  O   UNL     1       6.175   5.561  19.202  0.00  0.00    +0.000 OA
BRANCH  14  20
ATOM     16  C   UNL     1       2.459   3.316  19.617  0.00  0.00    +0.000 A 
ATOM     17  C   UNL     1       1.443   3.976  18.923  0.00  0.00    +0.000 A 
ATOM     18  C   UNL     1       1.750   5.025  18.051  0.00  0.00    +0.000 A 
ATOM     19  C   UNL     1       3.081   5.398  17.847  0.00  0.00    +0.000 A 
ATOM     20  C   UNL     1       4.105   4.728  18.518  0.00  0.00    +0.000 A 
ATOM     21  C   UNL     1       3.782   3.717  19.436  0.00  0.00    +0.000 A 
BRANCH  16  23
ATOM     22  C   UNL     1       1.563   2.657  21.715  0.00  0.00    +0.000 C 
ATOM     23  O   UNL     1       2.044   2.292  20.426  0.00  0.00    +0.000 OA
ENDBRANCH  16  23
ENDBRANCH  14  20
ENDBRANCH   1  14
TORSDOF 5
ENDMDL
MODEL 5
REMARK VINA RESULT:      -6.6      4.265      7.457
REMARK  Name = 
REMARK  8 active torsions:
REMARK  status: ('A' for Active; 'I' for Inactive)
REMARK    1  A    between atoms: C_1  and  O_2
REMARK    2  A    between atoms: O_2  and  C_3
REMARK    3  A    between atoms: C_7  and  C_8
REMARK    4  A    between atoms: C_8  and  C_10
REMARK    5  A    between atoms: N_13  and  C_14
REMARK    6  A    between atoms: C_14  and  C_15
REMARK    7  A    between atoms: C_14  and  C_16
REMARK    8  A    between atoms: C_18  and  N_19
REMARK                            x       y       z     vdW  Elec       q    Type
REMARK                         _______ _______ _______ _____ _____    ______ ____
ROOT
ATOM      1  C   UNL     1       2.674   6.664  18.708  0.00  0.00    +0.000 A 
ATOM      2  S   UNL     1       2.502   8.160  17.862  0.00  0.00    +0.000 S 
ATOM      3  C   UNL     1       1.679   8.835  19.218  0.00  0.00    +0.000 A 
ATOM      4  N   UNL     1       1.101  10.053  19.119  0.00  0.00    +0.000 N 
ATOM      5  N   UNL     1       1.639   8.060  20.276  0.00  0.00    +0.000 NA
ATOM      6  C   UNL     1       2.176   6.836  19.982  0.00  0.00    +0.000 A 
ATOM      7  H   UNL     1       1.076  10.515  18.216  0.00  0.00    +0.000 HD
ENDROOT
BRANCH   4   8
ATOM      8  C   UNL     1       0.809  10.864  20.291  0.00  0.00    +0.000 C 
ATOM      9  C   UNL     1       1.348  12.281  20.101  0.00  0.00    +0.000 C 
ATOM     10  C   UNL     1      -0.706  10.916  20.489  0.00  0.00    +0.000 C 
ENDBRANCH   4   8
BRANCH   6  11
ATOM     11  N   UNL     1       2.119   5.924  20.962  0.00  0.00    +0.000 N 
ATOM     12  H   UNL     1       2.720   5.111  20.902  0.00  0.00    +0.000 HD
ATOM     13  H   UNL     1       1.363   5.843  21.634  0.00  0.00    +0.000 HD
ENDBRANCH   6  11
BRANCH   1  14
ATOM     14  C   UNL     1       3.239   5.518  18.015  0.00  0.00    +0.000 C 
ATOM     15  O   UNL     1       2.571   4.622  17.514  0.00  0.00    +0.000 OA
BRANCH  14  20
ATOM     16  C   UNL     1       6.747   5.097  16.576  0.00  0.00    +0.000 A 
ATOM     17  C   UNL     1       7.510   5.094  17.745  0.00  0.00    +0.000 A 
ATOM     18  C   UNL     1       6.897   5.268  18.989  0.00  0.00    +0.000 A 
ATOM     19  C   UNL     1       5.511   5.417  19.071  0.00  0.00    +0.000 A 
ATOM     20  C   UNL     1       4.737   5.398  17.909  0.00  0.00    +0.000 A 
ATOM     21  C   UNL     1       5.368   5.283  16.662  0.00  0.00    +0.000 A 
BRANCH  16  23
ATOM     22  C   UNL     1       6.712   4.410  14.303  0.00  0.00    +0.000 C 
ATOM     23  O   UNL     1       7.450   4.897  15.418  0.00  0.00    +0.000 OA
ENDBRANCH  16  23
ENDBRANCH  14  20
ENDBRANCH   1  14
TORSDOF 5
ENDMDL
MODEL 6
REMARK VINA RESULT:      -6.6      3.787      5.135
REMARK  Name = 
REMARK  8 active torsions:
REMARK  status: ('A' for Active; 'I' for Inactive)
REMARK    1  A    between atoms: C_1  and  O_2
REMARK    2  A    between atoms: O_2  and  C_3
REMARK    3  A    between atoms: C_7  and  C_8
REMARK    4  A    between atoms: C_8  and  C_10
REMARK    5  A    between atoms: N_13  and  C_14
REMARK    6  A    between atoms: C_14  and  C_15
REMARK    7  A    between atoms: C_14  and  C_16
REMARK    8  A    between atoms: C_18  and  N_19
REMARK                            x       y       z     vdW  Elec       q    Type
REMARK                         _______ _______ _______ _____ _____    ______ ____
ROOT
ATOM      1  C   UNL     1       7.125   6.129  17.737  0.00  0.00    +0.000 A 
ATOM      2  S   UNL     1       7.153   7.634  16.889  0.00  0.00    +0.000 S 
ATOM      3  C   UNL     1       8.139   8.316  18.128  0.00  0.00    +0.000 A 
ATOM      4  N   UNL     1       8.411   9.640  18.121  0.00  0.00    +0.000 N 
ATOM      5  N   UNL     1       8.532   7.465  19.046  0.00  0.00    +0.000 NA
ATOM      6  C   UNL     1       7.945   6.246  18.839  0.00  0.00    +0.000 A 
ATOM      7  H   UNL     1       7.951  10.234  17.439  0.00  0.00    +0.000 HD
ENDROOT
BRANCH   4   8
ATOM      8  C   UNL     1       9.561  10.194  18.820  0.00  0.00    +0.000 C 
ATOM      9  C   UNL     1      10.211  11.292  17.981  0.00  0.00    +0.000 C 
ATOM     10  C   UNL     1       9.092  10.778  20.153  0.00  0.00    +0.000 C 
ENDBRANCH   4   8
BRANCH   6  11
ATOM     11  N   UNL     1       8.204   5.310  19.761  0.00  0.00    +0.000 N 
ATOM     12  H   UNL     1       7.521   4.579  19.914  0.00  0.00    +0.000 HD
ATOM     13  H   UNL     1       8.903   5.396  20.493  0.00  0.00    +0.000 HD
ENDBRANCH   6  11
BRANCH   1  14
ATOM     14  C   UNL     1       6.290   5.050  17.237  0.00  0.00    +0.000 C 
ATOM     15  O   UNL     1       6.704   4.118  16.558  0.00  0.00    +0.000 OA
BRANCH  14  20
ATOM     16  C   UNL     1       2.664   3.943  17.670  0.00  0.00    +0.000 A 
ATOM     17  C   UNL     1       2.067   5.146  18.052  0.00  0.00    +0.000 A 
ATOM     18  C   UNL     1       2.841   6.300  18.208  0.00  0.00    +0.000 A 
ATOM     19  C   UNL     1       4.214   6.261  17.953  0.00  0.00    +0.000 A 
ATOM     20  C   UNL     1       4.816   5.068  17.548  0.00  0.00    +0.000 A 
ATOM     21  C   UNL     1       4.041   3.903  17.453  0.00  0.00    +0.000 A 
BRANCH  16  23
ATOM     22  C   UNL     1       1.176   2.414  18.714  0.00  0.00    +0.000 C 
ATOM     23  O   UNL     1       1.807   2.884  17.527  0.00  0.00    +0.000 OA
ENDBRANCH  16  23
ENDBRANCH  14  20
ENDBRANCH   1  14
TORSDOF 5
ENDMDL
MODEL 7
REMARK VINA RESULT:      -6.5      4.023      7.187
REMARK  Name = 
REMARK  8 active torsions:
REMARK  status: ('A' for Active; 'I' for Inactive)
REMARK    1  A    between atoms: C_1  and  O_2
REMARK    2  A    between atoms: O_2  and  C_3
REMARK    3  A    between atoms: C_7  and  C_8
REMARK    4  A    between atoms: C_8  and  C_10
REMARK    5  A    between atoms: N_13  and  C_14
REMARK    6  A    between atoms: C_14  and  C_15
REMARK    7  A    between atoms: C_14  and  C_16
REMARK    8  A    between atoms: C_18  and  N_19
REMARK                            x       y       z     vdW  Elec       q    Type
REMARK                         _______ _______ _______ _____ _____    ______ ____
ROOT
ATOM      1  C   UNL     1       2.971   6.168  18.815  0.00  0.00    +0.000 A 
ATOM      2  S   UNL     1       2.890   7.471  17.685  0.00  0.00    +0.000 S 
ATOM      3  C   UNL     1       1.925   8.374  18.791  0.00  0.00    +0.000 A 
ATOM      4  N   UNL     1       1.360   9.538  18.400  0.00  0.00    +0.000 N 
ATOM      5  N   UNL     1       1.771   7.814  19.967  0.00  0.00    +0.000 NA
ATOM      6  C   UNL     1       2.339   6.568  19.973  0.00  0.00    +0.000 A 
ATOM      7  H   UNL     1       1.433   9.819  17.427  0.00  0.00    +0.000 HD
ENDROOT
BRANCH   4   8
ATOM      8  C   UNL     1       0.942  10.552  19.357  0.00  0.00    +0.000 C 
ATOM      9  C   UNL     1       1.486  11.920  18.949  0.00  0.00    +0.000 C 
ATOM     10  C   UNL     1      -0.585  10.597  19.389  0.00  0.00    +0.000 C 
ENDBRANCH   4   8
BRANCH   6  11
ATOM     11  N   UNL     1       2.177   5.859  21.097  0.00  0.00    +0.000 N 
ATOM     12  H   UNL     1       1.272   5.443  21.281  0.00  0.00    +0.000 HD
ATOM     13  H   UNL     1       2.796   5.899  21.901  0.00  0.00    +0.000 HD
ENDBRANCH   6  11
BRANCH   1  14
ATOM     14  C   UNL     1       3.609   4.924  18.418  0.00  0.00    +0.000 C 
ATOM     15  O   UNL     1       3.281   3.820  18.837  0.00  0.00    +0.000 OA
BRANCH  14  20
ATOM     16  C   UNL     1       6.829   5.979  16.666  0.00  0.00    +0.000 A 
ATOM     17  C   UNL     1       6.835   5.102  15.580  0.00  0.00    +0.000 A 
ATOM     18  C   UNL     1       5.824   4.147  15.437  0.00  0.00    +0.000 A 
ATOM     19  C   UNL     1       4.784   4.086  16.368  0.00  0.00    +0.000 A 
ATOM     20  C   UNL     1       4.757   4.974  17.445  0.00  0.00    +0.000 A 
ATOM     21  C   UNL     1       5.808   5.888  17.611  0.00  0.00    +0.000 A 
BRANCH  16  23
ATOM     22  C   UNL     1       7.735   7.955  17.622  0.00  0.00    +0.000 C 
ATOM     23  O   UNL     1       7.856   6.885  16.692  0.00  0.00    +0.000 OA
ENDBRANCH  16  23
ENDBRANCH  14  20
ENDBRANCH   1  14
TORSDOF 5
ENDMDL
MODEL 8
REMARK VINA RESULT:      -6.5      1.241      1.371
REMARK  Name = 
REMARK  8 active torsions:
REMARK  status: ('A' for Active; 'I' for Inactive)
REMARK    1  A    between atoms: C_1  and  O_2
REMARK    2  A    between atoms: O_2  and  C_3
REMARK    3  A    between atoms: C_7  and  C_8
REMARK    4  A    between atoms: C_8  and  C_10
REMARK    5  A    between atoms: N_13  and  C_14
REMARK    6  A    between atoms: C_14  and  C_15
REMARK    7  A    between atoms: C_14  and  C_16
REMARK    8  A    between atoms: C_18  and  N_19
REMARK                            x       y       z     vdW  Elec       q    Type
REMARK                         _______ _______ _______ _____ _____    ______ ____
ROOT
ATOM      1  C   UNL     1       6.020   4.867  17.446  0.00  0.00    +0.000 A 
ATOM      2  S   UNL     1       5.203   5.219  15.966  0.00  0.00    +0.000 S 
ATOM      3  C   UNL     1       6.687   5.061  15.105  0.00  0.00    +0.000 A 
ATOM      4  N   UNL     1       6.747   5.393  13.795  0.00  0.00    +0.000 N 
ATOM      5  N   UNL     1       7.701   4.653  15.831  0.00  0.00    +0.000 NA
ATOM      6  C   UNL     1       7.332   4.566  17.146  0.00  0.00    +0.000 A 
ATOM      7  H   UNL     1       5.938   5.823  13.359  0.00  0.00    +0.000 HD
ENDROOT
BRANCH   4   8
ATOM      8  C   UNL     1       7.781   4.872  12.915  0.00  0.00    +0.000 C 
ATOM      9  C   UNL     1       7.151   4.107  11.753  0.00  0.00    +0.000 C 
ATOM     10  C   UNL     1       8.601   6.043  12.373  0.00  0.00    +0.000 C 
ENDBRANCH   4   8
BRANCH   6  11
ATOM     11  N   UNL     1       8.306   4.236  18.004  0.00  0.00    +0.000 N 
ATOM     12  H   UNL     1       8.847   4.978  18.430  0.00  0.00    +0.000 HD
ATOM     13  H   UNL     1       8.718   3.312  18.084  0.00  0.00    +0.000 HD
ENDBRANCH   6  11
BRANCH   1  14
ATOM     14  C   UNL     1       5.290   4.959  18.699  0.00  0.00    +0.000 C 
ATOM     15  O   UNL     1       5.773   5.373  19.746  0.00  0.00    +0.000 OA
BRANCH  14  20
ATOM     16  C   UNL     1       2.089   3.146  19.709  0.00  0.00    +0.000 A 
ATOM     17  C   UNL     1       1.202   3.622  18.741  0.00  0.00    +0.000 A 
ATOM     18  C   UNL     1       1.628   4.555  17.791  0.00  0.00    +0.000 A 
ATOM     19  C   UNL     1       2.954   4.995  17.789  0.00  0.00    +0.000 A 
ATOM     20  C   UNL     1       3.853   4.508  18.738  0.00  0.00    +0.000 A 
ATOM     21  C   UNL     1       3.401   3.617  19.724  0.00  0.00    +0.000 A 
BRANCH  16  23
ATOM     22  C   UNL     1       1.569   2.569  21.954  0.00  0.00    +0.000 C 
ATOM     23  O   UNL     1       1.569   2.220  20.574  0.00  0.00    +0.000 OA
ENDBRANCH  16  23
ENDBRANCH  14  20
ENDBRANCH   1  14
TORSDOF 5
ENDMDL
MODEL 9
REMARK VINA RESULT:      -6.5      3.620      4.946
REMARK  Name = 
REMARK  8 active torsions:
REMARK  status: ('A' for Active; 'I' for Inactive)
REMARK    1  A    between atoms: C_1  and  O_2
REMARK    2  A    between atoms: O_2  and  C_3
REMARK    3  A    between atoms: C_7  and  C_8
REMARK    4  A    between atoms: C_8  and  C_10
REMARK    5  A    between atoms: N_13  and  C_14
REMARK    6  A    between atoms: C_14  and  C_15
REMARK    7  A    between atoms: C_14  and  C_16
REMARK    8  A    between atoms: C_18  and  N_19
REMARK                            x       y       z     vdW  Elec       q    Type
REMARK                         _______ _______ _______ _____ _____    ______ ____
ROOT
ATOM      1  C   UNL     1       7.055   6.072  17.880  0.00  0.00    +0.000 A 
ATOM      2  S   UNL     1       7.022   7.563  17.009  0.00  0.00    +0.000 S 
ATOM      3  C   UNL     1       8.088   8.266  18.167  0.00  0.00    +0.000 A 
ATOM      4  N   UNL     1       8.356   9.590  18.122  0.00  0.00    +0.000 N 
ATOM      5  N   UNL     1       8.544   7.430  19.070  0.00  0.00    +0.000 NA
ATOM      6  C   UNL     1       7.947   6.207  18.922  0.00  0.00    +0.000 A 
ATOM      7  H   UNL     1       7.850  10.173  17.464  0.00  0.00    +0.000 HD
ENDROOT
BRANCH   4   8
ATOM      8  C   UNL     1       9.549  10.156  18.732  0.00  0.00    +0.000 C 
ATOM      9  C   UNL     1      10.088  11.301  17.878  0.00  0.00    +0.000 C 
ATOM     10  C   UNL     1       9.189  10.680  20.122  0.00  0.00    +0.000 C 
ENDBRANCH   4   8
BRANCH   6  11
ATOM     11  N   UNL     1       8.270   5.286  19.839  0.00  0.00    +0.000 N 
ATOM     12  H   UNL     1       8.642   5.598  20.727  0.00  0.00    +0.000 HD
ATOM     13  H   UNL     1       8.409   4.299  19.644  0.00  0.00    +0.000 HD
ENDBRANCH   6  11
BRANCH   1  14
ATOM     14  C   UNL     1       6.189   4.984  17.455  0.00  0.00    +0.000 C 
ATOM     15  O   UNL     1       6.508   4.135  16.632  0.00  0.00    +0.000 OA
BRANCH  14  20
ATOM     16  C   UNL     1       3.187   3.783  19.479  0.00  0.00    +0.000 A 
ATOM     17  C   UNL     1       2.205   4.676  19.045  0.00  0.00    +0.000 A 
ATOM     18  C   UNL     1       2.523   5.687  18.133  0.00  0.00    +0.000 A 
ATOM     19  C   UNL     1       3.821   5.790  17.628  0.00  0.00    +0.000 A 
ATOM     20  C   UNL     1       4.804   4.887  18.038  0.00  0.00    +0.000 A 
ATOM     21  C   UNL     1       4.489   3.915  18.999  0.00  0.00    +0.000 A 
BRANCH  16  23
ATOM     22  C   UNL     1       2.214   3.284  21.587  0.00  0.00    +0.000 C 
ATOM     23  O   UNL     1       2.757   2.822  20.355  0.00  0.00    +0.000 OA
ENDBRANCH  16  23
ENDBRANCH  14  20
ENDBRANCH   1  14
TORSDOF 5
ENDMDL
