MODEL 1
REMARK VINA RESULT:      -8.1      0.000      0.000
REMARK  Name = 
REMARK  7 active torsions:
REMARK  status: ('A' for Active; 'I' for Inactive)
REMARK    1  A    between atoms: C_2  and  O_3
REMARK    2  A    between atoms: C_2  and  C_4
REMARK    3  A    between atoms: C_4  and  C_5
REMARK    4  A    between atoms: N_10  and  C_11
REMARK    5  A    between atoms: C_11  and  C_12
REMARK    6  A    between atoms: C_17  and  S_18
REMARK    7  A    between atoms: S_18  and  C_21
REMARK                            x       y       z     vdW  Elec       q    Type
REMARK                         _______ _______ _______ _____ _____    ______ ____
ROOT
ATOM      1  C   UNL     1       5.335   5.291  16.459  0.00  0.00    +0.000 A 
ATOM      2  C   UNL     1       5.192   6.583  15.906  0.00  0.00    +0.000 A 
ATOM      3  C   UNL     1       4.311   7.517  16.452  0.00  0.00    +0.000 A 
ATOM      4  C   UNL     1       3.536   7.178  17.553  0.00  0.00    +0.000 A 
ATOM      5  C   UNL     1       3.632   5.900  18.100  0.00  0.00    +0.000 A 
ATOM      6  C   UNL     1       4.529   4.954  17.567  0.00  0.00    +0.000 A 
ENDROOT
BRANCH   6   7
ATOM      7  S   UNL     1       4.493   3.328  18.332  0.00  0.00    +0.000 S 
ATOM      8  O   UNL     1       4.457   2.357  17.248  0.00  0.00    +0.000 OA
ATOM      9  O   UNL     1       5.561   3.246  19.313  0.00  0.00    +0.000 OA
BRANCH   7  10
ATOM     10  C   UNL     1       2.948   3.207  19.198  0.00  0.00    +0.000 A 
ATOM     11  C   UNL     1       1.780   2.906  18.488  0.00  0.00    +0.000 A 
ATOM     12  C   UNL     1       0.557   2.879  19.158  0.00  0.00    +0.000 A 
ATOM     13  C   UNL     1       0.508   3.133  20.529  0.00  0.00    +0.000 A 
ATOM     14  C   UNL     1       1.683   3.375  21.242  0.00  0.00    +0.000 A 
ATOM     15  C   UNL     1       2.911   3.401  20.581  0.00  0.00    +0.000 A 
ENDBRANCH   7  10
ENDBRANCH   6   7
BRANCH   1  16
ATOM     16  C   UNL     1       6.358   4.386  15.804  0.00  0.00    +0.000 C 
BRANCH  16  22
ATOM     17  C   UNL     1       5.929   3.367  12.249  0.00  0.00    +0.000 A 
ATOM     18  C   UNL     1       6.874   4.249  11.597  0.00  0.00    +0.000 A 
ATOM     19  C   UNL     1       7.640   5.077  12.319  0.00  0.00    +0.000 A 
ATOM     20  C   UNL     1       7.513   5.110  13.803  0.00  0.00    +0.000 A 
ATOM     21  O   UNL     1       8.329   5.749  14.464  0.00  0.00    +0.000 OA
ATOM     22  N   UNL     1       6.435   4.397  14.346  0.00  0.00    +0.000 N 
ATOM     23  C   UNL     1       5.697   3.524  13.562  0.00  0.00    +0.000 A 
BRANCH  17  24
ATOM     24  C   UNL     1       5.383   2.163  11.522  0.00  0.00    +0.000 C 
BRANCH  24  26
ATOM     25  O   UNL     1       6.008  -0.141  10.987  0.00  0.00    +0.000 OA
ATOM     26  C   UNL     1       6.324   1.014  11.229  0.00  0.00    +0.000 C 
BRANCH  26  27
ATOM     27  O   UNL     1       7.624   1.423  11.223  0.00  0.00    +0.000 OA
ATOM     28  H   UNL     1       8.234   0.827  11.694  0.00  0.00    +0.000 HD
ENDBRANCH  26  27
ENDBRANCH  24  26
ENDBRANCH  17  24
ENDBRANCH  16  22
ENDBRANCH   1  16
TORSDOF 7
ENDMDL
MODEL 2
REMARK VINA RESULT:      -8.0      2.224      3.802
REMARK  Name = 
REMARK  7 active torsions:
REMARK  status: ('A' for Active; 'I' for Inactive)
REMARK    1  A    between atoms: C_2  and  O_3
REMARK    2  A    between atoms: C_2  and  C_4
REMARK    3  A    between atoms: C_4  and  C_5
REMARK    4  A    between atoms: N_10  and  C_11
REMARK    5  A    between atoms: C_11  and  C_12
REMARK    6  A    between atoms: C_17  and  S_18
REMARK    7  A    between atoms: S_18  and  C_21
REMARK                            x       y       z     vdW  Elec       q    Type
REMARK                         _______ _______ _______ _____ _____    ______ ____
ROOT
ATOM      1  C   UNL     1       3.835   3.518  17.817  0.00  0.00    +0.000 A 
ATOM      2  C   UNL     1       3.102   2.314  17.902  0.00  0.00    +0.000 A 
ATOM      3  C   UNL     1       1.726   2.312  18.131  0.00  0.00    +0.000 A 
ATOM      4  C   UNL     1       1.049   3.512  18.301  0.00  0.00    +0.000 A 
ATOM      5  C   UNL     1       1.752   4.715  18.255  0.00  0.00    +0.000 A 
ATOM      6  C   UNL     1       3.139   4.730  18.009  0.00  0.00    +0.000 A 
ENDROOT
BRANCH   6   7
ATOM      7  S   UNL     1       3.920   6.348  18.047  0.00  0.00    +0.000 S 
ATOM      8  O   UNL     1       4.965   6.284  19.058  0.00  0.00    +0.000 OA
ATOM      9  O   UNL     1       4.275   6.730  16.692  0.00  0.00    +0.000 OA
BRANCH   7  10
ATOM     10  C   UNL     1       2.694   7.492  18.630  0.00  0.00    +0.000 A 
ATOM     11  C   UNL     1       2.181   8.458  17.758  0.00  0.00    +0.000 A 
ATOM     12  C   UNL     1       1.269   9.400  18.237  0.00  0.00    +0.000 A 
ATOM     13  C   UNL     1       0.862   9.361  19.571  0.00  0.00    +0.000 A 
ATOM     14  C   UNL     1       1.333   8.359  20.420  0.00  0.00    +0.000 A 
ATOM     15  C   UNL     1       2.243   7.412  19.950  0.00  0.00    +0.000 A 
ENDBRANCH   7  10
ENDBRANCH   6   7
BRANCH   1  16
ATOM     16  C   UNL     1       5.314   3.388  17.519  0.00  0.00    +0.000 C 
BRANCH  16  22
ATOM     17  C   UNL     1       5.791   4.100  13.895  0.00  0.00    +0.000 A 
ATOM     18  C   UNL     1       6.997   4.901  13.931  0.00  0.00    +0.000 A 
ATOM     19  C   UNL     1       7.628   5.125  15.090  0.00  0.00    +0.000 A 
ATOM     20  C   UNL     1       7.086   4.564  16.359  0.00  0.00    +0.000 A 
ATOM     21  O   UNL     1       7.757   4.636  17.387  0.00  0.00    +0.000 OA
ATOM     22  N   UNL     1       5.810   3.990  16.283  0.00  0.00    +0.000 N 
ATOM     23  C   UNL     1       5.215   3.746  15.055  0.00  0.00    +0.000 A 
BRANCH  17  24
ATOM     24  C   UNL     1       5.317   3.495  12.597  0.00  0.00    +0.000 C 
BRANCH  24  26
ATOM     25  O   UNL     1       7.413   2.900  11.485  0.00  0.00    +0.000 OA
ATOM     26  C   UNL     1       6.275   2.614  11.825  0.00  0.00    +0.000 C 
BRANCH  26  27
ATOM     27  O   UNL     1       5.730   1.392  11.567  0.00  0.00    +0.000 OA
ATOM     28  H   UNL     1       5.709   1.154  10.621  0.00  0.00    +0.000 HD
ENDBRANCH  26  27
ENDBRANCH  24  26
ENDBRANCH  17  24
ENDBRANCH  16  22
ENDBRANCH   1  16
TORSDOF 7
ENDMDL
MODEL 3
REMARK VINA RESULT:      -7.9      1.276      1.816
REMARK  Name = 
REMARK  7 active torsions:
REMARK  status: ('A' for Active; 'I' for Inactive)
REMARK    1  A    between atoms: C_2  and  O_3
REMARK    2  A    between atoms: C_2  and  C_4
REMARK    3  A    between atoms: C_4  and  C_5
REMARK    4  A    between atoms: N_10  and  C_11
REMARK    5  A    between atoms: C_11  and  C_12
REMARK    6  A    between atoms: C_17  and  S_18
REMARK    7  A    between atoms: S_18  and  C_21
REMARK                            x       y       z     vdW  Elec       q    Type
REMARK                         _______ _______ _______ _____ _____    ______ ____
ROOT
ATOM      1  C   UNL     1       4.428   5.429  16.907  0.00  0.00    +0.000 A 
ATOM      2  C   UNL     1       4.975   6.727  16.809  0.00  0.00    +0.000 A 
ATOM      3  C   UNL     1       4.299   7.843  17.305  0.00  0.00    +0.000 A 
ATOM      4  C   UNL     1       3.051   7.693  17.894  0.00  0.00    +0.000 A 
ATOM      5  C   UNL     1       2.472   6.427  17.975  0.00  0.00    +0.000 A 
ATOM      6  C   UNL     1       3.151   5.293  17.492  0.00  0.00    +0.000 A 
ENDROOT
BRANCH   6   7
ATOM      7  S   UNL     1       2.253   3.740  17.603  0.00  0.00    +0.000 S 
ATOM      8  O   UNL     1       0.871   4.031  17.248  0.00  0.00    +0.000 OA
ATOM      9  O   UNL     1       2.972   2.726  16.854  0.00  0.00    +0.000 OA
BRANCH   7  10
ATOM     10  C   UNL     1       2.266   3.265  19.314  0.00  0.00    +0.000 A 
ATOM     11  C   UNL     1       3.446   2.774  19.885  0.00  0.00    +0.000 A 
ATOM     12  C   UNL     1       3.436   2.336  21.209  0.00  0.00    +0.000 A 
ATOM     13  C   UNL     1       2.262   2.408  21.959  0.00  0.00    +0.000 A 
ATOM     14  C   UNL     1       1.104   2.954  21.402  0.00  0.00    +0.000 A 
ATOM     15  C   UNL     1       1.105   3.396  20.079  0.00  0.00    +0.000 A 
ENDBRANCH   7  10
ENDBRANCH   6   7
BRANCH   1  16
ATOM     16  C   UNL     1       5.280   4.296  16.374  0.00  0.00    +0.000 C 
BRANCH  16  22
ATOM     17  C   UNL     1       5.827   3.624  12.753  0.00  0.00    +0.000 A 
ATOM     18  C   UNL     1       6.999   4.434  12.499  0.00  0.00    +0.000 A 
ATOM     19  C   UNL     1       7.590   5.103  13.497  0.00  0.00    +0.000 A 
ATOM     20  C   UNL     1       7.036   5.033  14.878  0.00  0.00    +0.000 A 
ATOM     21  O   UNL     1       7.675   5.514  15.811  0.00  0.00    +0.000 OA
ATOM     22  N   UNL     1       5.785   4.415  15.008  0.00  0.00    +0.000 N 
ATOM     23  C   UNL     1       5.233   3.702  13.955  0.00  0.00    +0.000 A 
BRANCH  17  24
ATOM     24  C   UNL     1       5.411   2.556  11.771  0.00  0.00    +0.000 C 
BRANCH  24  26
ATOM     25  O   UNL     1       7.591   1.802  10.955  0.00  0.00    +0.000 OA
ATOM     26  C   UNL     1       6.451   1.553  11.319  0.00  0.00    +0.000 C 
BRANCH  26  27
ATOM     27  O   UNL     1       5.982   0.277  11.402  0.00  0.00    +0.000 OA
ATOM     28  H   UNL     1       6.462  -0.286  12.036  0.00  0.00    +0.000 HD
ENDBRANCH  26  27
ENDBRANCH  24  26
ENDBRANCH  17  24
ENDBRANCH  16  22
ENDBRANCH   1  16
TORSDOF 7
ENDMDL
MODEL 4
REMARK VINA RESULT:      -7.9      2.344      4.066
REMARK  Name = 
REMARK  7 active torsions:
REMARK  status: ('A' for Active; 'I' for Inactive)
REMARK    1  A    between atoms: C_2  and  O_3
REMARK    2  A    between atoms: C_2  and  C_4
REMARK    3  A    between atoms: C_4  and  C_5
REMARK    4  A    between atoms: N_10  and  C_11
REMARK    5  A    between atoms: C_11  and  C_12
REMARK    6  A    between atoms: C_17  and  S_18
REMARK    7  A    between atoms: S_18  and  C_21
REMARK                            x       y       z     vdW  Elec       q    Type
REMARK                         _______ _______ _______ _____ _____    ______ ____
ROOT
ATOM      1  C   UNL     1       3.546   3.371  18.243  0.00  0.00    +0.000 A 
ATOM      2  C   UNL     1       2.777   2.189  18.305  0.00  0.00    +0.000 A 
ATOM      3  C   UNL     1       1.396   2.225  18.502  0.00  0.00    +0.000 A 
ATOM      4  C   UNL     1       0.750   3.445  18.661  0.00  0.00    +0.000 A 
ATOM      5  C   UNL     1       1.489   4.626  18.637  0.00  0.00    +0.000 A 
ATOM      6  C   UNL     1       2.880   4.602  18.424  0.00  0.00    +0.000 A 
ENDROOT
BRANCH   6   7
ATOM      7  S   UNL     1       3.707   6.196  18.487  0.00  0.00    +0.000 S 
ATOM      8  O   UNL     1       4.792   6.067  19.448  0.00  0.00    +0.000 OA
ATOM      9  O   UNL     1       4.015   6.620  17.133  0.00  0.00    +0.000 OA
BRANCH   7  10
ATOM     10  C   UNL     1       2.538   7.349  19.165  0.00  0.00    +0.000 A 
ATOM     11  C   UNL     1       2.080   7.176  20.476  0.00  0.00    +0.000 A 
ATOM     12  C   UNL     1       1.111   8.042  20.983  0.00  0.00    +0.000 A 
ATOM     13  C   UNL     1       0.620   9.081  20.191  0.00  0.00    +0.000 A 
ATOM     14  C   UNL     1       1.124   9.283  18.906  0.00  0.00    +0.000 A 
ATOM     15  C   UNL     1       2.095   8.424  18.391  0.00  0.00    +0.000 A 
ENDBRANCH   7  10
ENDBRANCH   6   7
BRANCH   1  16
ATOM     16  C   UNL     1       5.027   3.200  17.978  0.00  0.00    +0.000 C 
BRANCH  16  22
ATOM     17  C   UNL     1       5.715   4.264  14.477  0.00  0.00    +0.000 A 
ATOM     18  C   UNL     1       6.924   5.039  14.660  0.00  0.00    +0.000 A 
ATOM     19  C   UNL     1       7.491   5.136  15.869  0.00  0.00    +0.000 A 
ATOM     20  C   UNL     1       6.872   4.459  17.043  0.00  0.00    +0.000 A 
ATOM     21  O   UNL     1       7.485   4.418  18.108  0.00  0.00    +0.000 OA
ATOM     22  N   UNL     1       5.598   3.915  16.839  0.00  0.00    +0.000 N 
ATOM     23  C   UNL     1       5.071   3.804  15.561  0.00  0.00    +0.000 A 
BRANCH  17  24
ATOM     24  C   UNL     1       5.310   3.799  13.100  0.00  0.00    +0.000 C 
BRANCH  24  26
ATOM     25  O   UNL     1       7.266   4.068  11.656  0.00  0.00    +0.000 OA
ATOM     26  C   UNL     1       6.396   3.360  12.142  0.00  0.00    +0.000 C 
BRANCH  26  27
ATOM     27  O   UNL     1       6.332   2.023  11.893  0.00  0.00    +0.000 OA
ATOM     28  H   UNL     1       6.790   1.470  12.553  0.00  0.00    +0.000 HD
ENDBRANCH  26  27
ENDBRANCH  24  26
ENDBRANCH  17  24
ENDBRANCH  16  22
ENDBRANCH   1  16
TORSDOF 7
ENDMDL
MODEL 5
REMARK VINA RESULT:      -7.8      2.739      5.046
REMARK  Name = 
REMARK  7 active torsions:
REMARK  status: ('A' for Active; 'I' for Inactive)
REMARK    1  A    between atoms: C_2  and  O_3
REMARK    2  A    between atoms: C_2  and  C_4
REMARK    3  A    between atoms: C_4  and  C_5
REMARK    4  A    between atoms: N_10  and  C_11
REMARK    5  A    between atoms: C_11  and  C_12
REMARK    6  A    between atoms: C_17  and  S_18
REMARK    7  A    between atoms: S_18  and  C_21
REMARK                            x       y       z     vdW  Elec       q    Type
REMARK                         _______ _______ _______ _____ _____    ______ ____
ROOT
ATOM      1  C   UNL     1       3.975   3.564  19.170  0.00  0.00    +0.000 A 
ATOM      2  C   UNL     1       4.420   2.513  18.337  0.00  0.00    +0.000 A 
ATOM      3  C   UNL     1       3.521   1.668  17.686  0.00  0.00    +0.000 A 
ATOM      4  C   UNL     1       2.155   1.838  17.865  0.00  0.00    +0.000 A 
ATOM      5  C   UNL     1       1.688   2.846  18.706  0.00  0.00    +0.000 A 
ATOM      6  C   UNL     1       2.585   3.714  19.357  0.00  0.00    +0.000 A 
ENDROOT
BRANCH   6   7
ATOM      7  S   UNL     1       1.840   4.920  20.462  0.00  0.00    +0.000 S 
ATOM      8  O   UNL     1       0.427   4.585  20.554  0.00  0.00    +0.000 OA
ATOM      9  O   UNL     1       2.626   4.990  21.681  0.00  0.00    +0.000 OA
BRANCH   7  10
ATOM     10  C   UNL     1       1.955   6.495  19.649  0.00  0.00    +0.000 A 
ATOM     11  C   UNL     1       1.631   7.660  20.354  0.00  0.00    +0.000 A 
ATOM     12  C   UNL     1       1.654   8.889  19.695  0.00  0.00    +0.000 A 
ATOM     13  C   UNL     1       2.016   8.951  18.348  0.00  0.00    +0.000 A 
ATOM     14  C   UNL     1       2.395   7.793  17.668  0.00  0.00    +0.000 A 
ATOM     15  C   UNL     1       2.377   6.560  18.320  0.00  0.00    +0.000 A 
ENDBRANCH   7  10
ENDBRANCH   6   7
BRANCH   1  16
ATOM     16  C   UNL     1       5.048   4.440  19.782  0.00  0.00    +0.000 C 
BRANCH  16  22
ATOM     17  C   UNL     1       6.219   6.129  16.678  0.00  0.00    +0.000 A 
ATOM     18  C   UNL     1       7.445   6.741  17.146  0.00  0.00    +0.000 A 
ATOM     19  C   UNL     1       7.868   6.539  18.401  0.00  0.00    +0.000 A 
ATOM     20  C   UNL     1       7.070   5.695  19.333  0.00  0.00    +0.000 A 
ATOM     21  O   UNL     1       7.546   5.384  20.423  0.00  0.00    +0.000 OA
ATOM     22  N   UNL     1       5.796   5.319  18.887  0.00  0.00    +0.000 N 
ATOM     23  C   UNL     1       5.420   5.516  17.567  0.00  0.00    +0.000 A 
BRANCH  17  24
ATOM     24  C   UNL     1       5.953   5.992  15.199  0.00  0.00    +0.000 C 
BRANCH  24  26
ATOM     25  O   UNL     1       6.442   3.781  14.273  0.00  0.00    +0.000 OA
ATOM     26  C   UNL     1       6.738   4.957  14.422  0.00  0.00    +0.000 C 
BRANCH  26  27
ATOM     27  O   UNL     1       7.843   5.503  13.840  0.00  0.00    +0.000 OA
ATOM     28  H   UNL     1       8.684   5.094  14.117  0.00  0.00    +0.000 HD
ENDBRANCH  26  27
ENDBRANCH  24  26
ENDBRANCH  17  24
ENDBRANCH  16  22
ENDBRANCH   1  16
TORSDOF 7
ENDMDL
MODEL 6
REMARK VINA RESULT:      -7.8      4.365      8.867
REMARK  Name = 
REMARK  7 active torsions:
REMARK  status: ('A' for Active; 'I' for Inactive)
REMARK    1  A    between atoms: C_2  and  O_3
REMARK    2  A    between atoms: C_2  and  C_4
REMARK    3  A    between atoms: C_4  and  C_5
REMARK    4  A    between atoms: N_10  and  C_11
REMARK    5  A    between atoms: C_11  and  C_12
REMARK    6  A    between atoms: C_17  and  S_18
REMARK    7  A    between atoms: S_18  and  C_21
REMARK                            x       y       z     vdW  Elec       q    Type
REMARK                         _______ _______ _______ _____ _____    ______ ____
ROOT
ATOM      1  C   UNL     1       2.599   5.534  19.477  0.00  0.00    +0.000 A 
ATOM      2  C   UNL     1       1.242   5.339  19.816  0.00  0.00    +0.000 A 
ATOM      3  C   UNL     1       0.778   4.112  20.292  0.00  0.00    +0.000 A 
ATOM      4  C   UNL     1       1.654   3.042  20.422  0.00  0.00    +0.000 A 
ATOM      5  C   UNL     1       2.992   3.196  20.064  0.00  0.00    +0.000 A 
ATOM      6  C   UNL     1       3.474   4.434  19.598  0.00  0.00    +0.000 A 
ENDROOT
BRANCH   6   7
ATOM      7  S   UNL     1       5.204   4.463  19.110  0.00  0.00    +0.000 S 
ATOM      8  O   UNL     1       5.812   5.595  19.795  0.00  0.00    +0.000 OA
ATOM      9  O   UNL     1       5.769   3.140  19.303  0.00  0.00    +0.000 OA
BRANCH   7  10
ATOM     10  C   UNL     1       5.237   4.822  17.372  0.00  0.00    +0.000 A 
ATOM     11  C   UNL     1       5.258   3.769  16.450  0.00  0.00    +0.000 A 
ATOM     12  C   UNL     1       5.354   4.052  15.087  0.00  0.00    +0.000 A 
ATOM     13  C   UNL     1       5.410   5.376  14.652  0.00  0.00    +0.000 A 
ATOM     14  C   UNL     1       5.330   6.423  15.573  0.00  0.00    +0.000 A 
ATOM     15  C   UNL     1       5.231   6.149  16.937  0.00  0.00    +0.000 A 
ENDBRANCH   7  10
ENDBRANCH   6   7
BRANCH   1  16
ATOM     16  C   UNL     1       2.986   6.924  19.018  0.00  0.00    +0.000 C 
BRANCH  16  22
ATOM     17  C   UNL     1       0.514   8.949  20.929  0.00  0.00    +0.000 A 
ATOM     18  C   UNL     1       0.238  10.008  19.981  0.00  0.00    +0.000 A 
ATOM     19  C   UNL     1       0.802   9.995  18.767  0.00  0.00    +0.000 A 
ATOM     20  C   UNL     1       1.733   8.897  18.385  0.00  0.00    +0.000 A 
ATOM     21  O   UNL     1       2.114   8.807  17.220  0.00  0.00    +0.000 OA
ATOM     22  N   UNL     1       2.123   8.033  19.417  0.00  0.00    +0.000 N 
ATOM     23  C   UNL     1       1.482   8.062  20.645  0.00  0.00    +0.000 A 
BRANCH  17  24
ATOM     24  C   UNL     1      -0.407   8.716  22.101  0.00  0.00    +0.000 C 
BRANCH  24  26
ATOM     25  O   UNL     1      -1.354  10.652  23.257  0.00  0.00    +0.000 OA
ATOM     26  C   UNL     1      -0.497   9.786  23.167  0.00  0.00    +0.000 C 
BRANCH  26  27
ATOM     27  O   UNL     1       0.500   9.659  24.087  0.00  0.00    +0.000 OA
ATOM     28  H   UNL     1       0.407  10.244  24.861  0.00  0.00    +0.000 HD
ENDBRANCH  26  27
ENDBRANCH  24  26
ENDBRANCH  17  24
ENDBRANCH  16  22
ENDBRANCH   1  16
TORSDOF 7
ENDMDL
MODEL 7
REMARK VINA RESULT:      -7.8      1.312      1.675
REMARK  Name = 
REMARK  7 active torsions:
REMARK  status: ('A' for Active; 'I' for Inactive)
REMARK    1  A    between atoms: C_2  and  O_3
REMARK    2  A    between atoms: C_2  and  C_4
REMARK    3  A    between atoms: C_4  and  C_5
REMARK    4  A    between atoms: N_10  and  C_11
REMARK    5  A    between atoms: C_11  and  C_12
REMARK    6  A    between atoms: C_17  and  S_18
REMARK    7  A    between atoms: S_18  and  C_21
REMARK                            x       y       z     vdW  Elec       q    Type
REMARK                         _______ _______ _______ _____ _____    ______ ____
ROOT
ATOM      1  C   UNL     1       4.385   5.304  16.841  0.00  0.00    +0.000 A 
ATOM      2  C   UNL     1       4.995   6.574  16.750  0.00  0.00    +0.000 A 
ATOM      3  C   UNL     1       4.383   7.716  17.267  0.00  0.00    +0.000 A 
ATOM      4  C   UNL     1       3.136   7.622  17.871  0.00  0.00    +0.000 A 
ATOM      5  C   UNL     1       2.496   6.387  17.947  0.00  0.00    +0.000 A 
ATOM      6  C   UNL     1       3.110   5.225  17.442  0.00  0.00    +0.000 A 
ENDROOT
BRANCH   6   7
ATOM      7  S   UNL     1       2.136   3.719  17.548  0.00  0.00    +0.000 S 
ATOM      8  O   UNL     1       0.756   4.093  17.275  0.00  0.00    +0.000 OA
ATOM      9  O   UNL     1       2.761   2.695  16.729  0.00  0.00    +0.000 OA
BRANCH   7  10
ATOM     10  C   UNL     1       2.210   3.182  19.239  0.00  0.00    +0.000 A 
ATOM     11  C   UNL     1       1.069   3.279  20.044  0.00  0.00    +0.000 A 
ATOM     12  C   UNL     1       1.147   2.922  21.391  0.00  0.00    +0.000 A 
ATOM     13  C   UNL     1       2.351   2.457  21.920  0.00  0.00    +0.000 A 
ATOM     14  C   UNL     1       3.470   2.308  21.098  0.00  0.00    +0.000 A 
ATOM     15  C   UNL     1       3.400   2.659  19.750  0.00  0.00    +0.000 A 
ENDBRANCH   7  10
ENDBRANCH   6   7
BRANCH   1  16
ATOM     16  C   UNL     1       5.171   4.136  16.284  0.00  0.00    +0.000 C 
BRANCH  16  22
ATOM     17  C   UNL     1       5.824   3.617  12.655  0.00  0.00    +0.000 A 
ATOM     18  C   UNL     1       7.073   4.332  12.498  0.00  0.00    +0.000 A 
ATOM     19  C   UNL     1       7.674   4.890  13.557  0.00  0.00    +0.000 A 
ATOM     20  C   UNL     1       7.052   4.794  14.907  0.00  0.00    +0.000 A 
ATOM     21  O   UNL     1       7.687   5.163  15.892  0.00  0.00    +0.000 OA
ATOM     22  N   UNL     1       5.747   4.283  14.950  0.00  0.00    +0.000 N 
ATOM     23  C   UNL     1       5.185   3.682  13.834  0.00  0.00    +0.000 A 
BRANCH  17  24
ATOM     24  C   UNL     1       5.363   2.647  11.596  0.00  0.00    +0.000 C 
BRANCH  24  26
ATOM     25  O   UNL     1       5.808   0.262  11.280  0.00  0.00    +0.000 OA
ATOM     26  C   UNL     1       6.205   1.416  11.335  0.00  0.00    +0.000 C 
BRANCH  26  27
ATOM     27  O   UNL     1       7.510   1.742  11.116  0.00  0.00    +0.000 OA
ATOM     28  H   UNL     1       7.650   2.661  10.824  0.00  0.00    +0.000 HD
ENDBRANCH  26  27
ENDBRANCH  24  26
ENDBRANCH  17  24
ENDBRANCH  16  22
ENDBRANCH   1  16
TORSDOF 7
ENDMDL
MODEL 8
REMARK VINA RESULT:      -7.8      4.439      8.878
REMARK  Name = 
REMARK  7 active torsions:
REMARK  status: ('A' for Active; 'I' for Inactive)
REMARK    1  A    between atoms: C_2  and  O_3
REMARK    2  A    between atoms: C_2  and  C_4
REMARK    3  A    between atoms: C_4  and  C_5
REMARK    4  A    between atoms: N_10  and  C_11
REMARK    5  A    between atoms: C_11  and  C_12
REMARK    6  A    between atoms: C_17  and  S_18
REMARK    7  A    between atoms: S_18  and  C_21
REMARK                            x       y       z     vdW  Elec       q    Type
REMARK                         _______ _______ _______ _____ _____    ______ ____
ROOT
ATOM      1  C   UNL     1       2.720   5.441  19.487  0.00  0.00    +0.000 A 
ATOM      2  C   UNL     1       1.779   5.322  20.533  0.00  0.00    +0.000 A 
ATOM      3  C   UNL     1       1.345   4.076  20.986  0.00  0.00    +0.000 A 
ATOM      4  C   UNL     1       1.825   2.916  20.392  0.00  0.00    +0.000 A 
ATOM      5  C   UNL     1       2.730   3.004  19.336  0.00  0.00    +0.000 A 
ATOM      6  C   UNL     1       3.187   4.256  18.881  0.00  0.00    +0.000 A 
ENDROOT
BRANCH   6   7
ATOM      7  S   UNL     1       4.298   4.214  17.469  0.00  0.00    +0.000 S 
ATOM      8  O   UNL     1       4.696   2.825  17.292  0.00  0.00    +0.000 OA
ATOM      9  O   UNL     1       3.675   4.913  16.359  0.00  0.00    +0.000 OA
BRANCH   7  10
ATOM     10  C   UNL     1       5.751   5.121  17.937  0.00  0.00    +0.000 A 
ATOM     11  C   UNL     1       6.348   4.874  19.179  0.00  0.00    +0.000 A 
ATOM     12  C   UNL     1       7.448   5.636  19.574  0.00  0.00    +0.000 A 
ATOM     13  C   UNL     1       7.955   6.621  18.727  0.00  0.00    +0.000 A 
ATOM     14  C   UNL     1       7.391   6.822  17.466  0.00  0.00    +0.000 A 
ATOM     15  C   UNL     1       6.292   6.064  17.061  0.00  0.00    +0.000 A 
ENDBRANCH   7  10
ENDBRANCH   6   7
BRANCH   1  16
ATOM     16  C   UNL     1       3.146   6.847  19.118  0.00  0.00    +0.000 C 
BRANCH  16  22
ATOM     17  C   UNL     1       0.546   8.863  20.863  0.00  0.00    +0.000 A 
ATOM     18  C   UNL     1       0.247   9.855  19.852  0.00  0.00    +0.000 A 
ATOM     19  C   UNL     1       0.837   9.800  18.652  0.00  0.00    +0.000 A 
ATOM     20  C   UNL     1       1.823   8.725  18.350  0.00  0.00    +0.000 A 
ATOM     21  O   UNL     1       2.234   8.587  17.200  0.00  0.00    +0.000 OA
ATOM     22  N   UNL     1       2.227   7.937  19.437  0.00  0.00    +0.000 N 
ATOM     23  C   UNL     1       1.558   8.005  20.649  0.00  0.00    +0.000 A 
BRANCH  17  24
ATOM     24  C   UNL     1      -0.390   8.655  22.028  0.00  0.00    +0.000 C 
BRANCH  24  26
ATOM     25  O   UNL     1      -1.353  10.546  23.244  0.00  0.00    +0.000 OA
ATOM     26  C   UNL     1      -0.458   9.727  23.094  0.00  0.00    +0.000 C 
BRANCH  26  27
ATOM     27  O   UNL     1       0.609   9.661  23.937  0.00  0.00    +0.000 OA
ATOM     28  H   UNL     1       0.864   8.755  24.190  0.00  0.00    +0.000 HD
ENDBRANCH  26  27
ENDBRANCH  24  26
ENDBRANCH  17  24
ENDBRANCH  16  22
ENDBRANCH   1  16
TORSDOF 7
ENDMDL
MODEL 9
REMARK VINA RESULT:      -7.7      4.114      8.650
REMARK  Name = 
REMARK  7 active torsions:
REMARK  status: ('A' for Active; 'I' for Inactive)
REMARK    1  A    between atoms: C_2  and  O_3
REMARK    2  A    between atoms: C_2  and  C_4
REMARK    3  A    between atoms: C_4  and  C_5
REMARK    4  A    between atoms: N_10  and  C_11
REMARK    5  A    between atoms: C_11  and  C_12
REMARK    6  A    between atoms: C_17  and  S_18
REMARK    7  A    between atoms: S_18  and  C_21
REMARK                            x       y       z     vdW  Elec       q    Type
REMARK                         _______ _______ _______ _____ _____    ______ ____
ROOT
ATOM      1  C   UNL     1       2.688   4.950  19.698  0.00  0.00    +0.000 A 
ATOM      2  C   UNL     1       2.218   5.139  21.016  0.00  0.00    +0.000 A 
ATOM      3  C   UNL     1       1.980   4.061  21.868  0.00  0.00    +0.000 A 
ATOM      4  C   UNL     1       2.187   2.763  21.420  0.00  0.00    +0.000 A 
ATOM      5  C   UNL     1       2.620   2.544  20.113  0.00  0.00    +0.000 A 
ATOM      6  C   UNL     1       2.877   3.626  19.249  0.00  0.00    +0.000 A 
ENDROOT
BRANCH   6   7
ATOM      7  S   UNL     1       3.363   3.188  17.575  0.00  0.00    +0.000 S 
ATOM      8  O   UNL     1       3.755   1.786  17.607  0.00  0.00    +0.000 OA
ATOM      9  O   UNL     1       2.317   3.603  16.657  0.00  0.00    +0.000 OA
BRANCH   7  10
ATOM     10  C   UNL     1       4.820   4.133  17.203  0.00  0.00    +0.000 A 
ATOM     11  C   UNL     1       4.916   4.799  15.976  0.00  0.00    +0.000 A 
ATOM     12  C   UNL     1       6.089   5.483  15.657  0.00  0.00    +0.000 A 
ATOM     13  C   UNL     1       7.147   5.515  16.567  0.00  0.00    +0.000 A 
ATOM     14  C   UNL     1       7.022   4.898  17.812  0.00  0.00    +0.000 A 
ATOM     15  C   UNL     1       5.852   4.213  18.141  0.00  0.00    +0.000 A 
ENDBRANCH   7  10
ENDBRANCH   6   7
BRANCH   1  16
ATOM     16  C   UNL     1       2.951   6.202  18.888  0.00  0.00    +0.000 C 
BRANCH  16  22
ATOM     17  C   UNL     1       0.806   8.563  20.809  0.00  0.00    +0.000 A 
ATOM     18  C   UNL     1       0.783   9.700  19.914  0.00  0.00    +0.000 A 
ATOM     19  C   UNL     1       1.396   9.641  18.725  0.00  0.00    +0.000 A 
ATOM     20  C   UNL     1       2.124   8.406  18.319  0.00  0.00    +0.000 A 
ATOM     21  O   UNL     1       2.541   8.302  17.167  0.00  0.00    +0.000 OA
ATOM     22  N   UNL     1       2.292   7.434  19.314  0.00  0.00    +0.000 N 
ATOM     23  C   UNL     1       1.604   7.523  20.515  0.00  0.00    +0.000 A 
BRANCH  17  24
ATOM     24  C   UNL     1      -0.201   8.452  21.926  0.00  0.00    +0.000 C 
BRANCH  24  26
ATOM     25  O   UNL     1      -1.176  10.312  23.180  0.00  0.00    +0.000 OA
ATOM     26  C   UNL     1      -0.244   9.552  22.966  0.00  0.00    +0.000 C 
BRANCH  26  27
ATOM     27  O   UNL     1       0.900   9.586  23.704  0.00  0.00    +0.000 OA
ATOM     28  H   UNL     1       1.026  10.411  24.208  0.00  0.00    +0.000 HD
ENDBRANCH  26  27
ENDBRANCH  24  26
ENDBRANCH  17  24
ENDBRANCH  16  22
ENDBRANCH   1  16
TORSDOF 7
ENDMDL
