MODEL 1
REMARK VINA RESULT:      -6.8      0.000      0.000
REMARK  Name = 
REMARK  4 active torsions:
REMARK  status: ('A' for Active; 'I' for Inactive)
REMARK    1  A    between atoms: C_2  and  C_3
REMARK    2  A    between atoms: C_6  and  C_7
REMARK    3  A    between atoms: C_8  and  C_9
REMARK    4  A    between atoms: C_12  and  C_13
REMARK                            x       y       z     vdW  Elec       q    Type
REMARK                         _______ _______ _______ _____ _____    ______ ____
ROOT
ATOM      1  C   UNL     1       8.665   9.743  18.534  0.00  0.00    +0.000 C 
ATOM      2  C   UNL     1       8.241   8.874  17.600  0.00  0.00    +0.000 C 
ENDROOT
BRANCH   1   6
ATOM      3  C   UNL     1      10.942  13.275  17.645  0.00  0.00    +0.000 A 
ATOM      4  C   UNL     1      11.569  12.113  18.100  0.00  0.00    +0.000 A 
ATOM      5  C   UNL     1      10.810  10.974  18.400  0.00  0.00    +0.000 A 
ATOM      6  C   UNL     1       9.414  10.983  18.264  0.00  0.00    +0.000 A 
ATOM      7  C   UNL     1       8.794  12.156  17.814  0.00  0.00    +0.000 A 
ATOM      8  C   UNL     1       9.551  13.294  17.509  0.00  0.00    +0.000 A 
BRANCH   3  10
ATOM      9  N   UNL     1      12.326  15.382  17.032  0.00  0.00    +0.000 NA
ATOM     10  C   UNL     1      11.713  14.435  17.305  0.00  0.00    +0.000 C 
ENDBRANCH   3  10
ENDBRANCH   1   6
BRANCH   2  11
ATOM     11  C   UNL     1       7.500   7.637  17.899  0.00  0.00    +0.000 A 
ATOM     12  C   UNL     1       6.261   7.340  17.313  0.00  0.00    +0.000 A 
ATOM     13  C   UNL     1       5.584   6.157  17.628  0.00  0.00    +0.000 A 
ATOM     14  C   UNL     1       6.146   5.247  18.526  0.00  0.00    +0.000 A 
ATOM     15  C   UNL     1       7.399   5.512  19.085  0.00  0.00    +0.000 A 
ATOM     16  C   UNL     1       8.072   6.698  18.769  0.00  0.00    +0.000 A 
BRANCH  14  17
ATOM     17  C   UNL     1       5.437   4.054  18.879  0.00  0.00    +0.000 C 
ATOM     18  N   UNL     1       4.870   3.083  19.173  0.00  0.00    +0.000 NA
ENDBRANCH  14  17
ENDBRANCH   2  11
TORSDOF 4
ENDMDL
MODEL 2
REMARK VINA RESULT:      -6.8      0.183      8.505
REMARK  Name = 
REMARK  4 active torsions:
REMARK  status: ('A' for Active; 'I' for Inactive)
REMARK    1  A    between atoms: C_2  and  C_3
REMARK    2  A    between atoms: C_6  and  C_7
REMARK    3  A    between atoms: C_8  and  C_9
REMARK    4  A    between atoms: C_12  and  C_13
REMARK                            x       y       z     vdW  Elec       q    Type
REMARK                         _______ _______ _______ _____ _____    ______ ____
ROOT
ATOM      1  C   UNL     1       8.054   8.852  17.565  0.00  0.00    +0.000 C 
ATOM      2  C   UNL     1       8.654   9.626  18.485  0.00  0.00    +0.000 C 
ENDROOT
BRANCH   1   6
ATOM      3  C   UNL     1       6.080   5.162  18.529  0.00  0.00    +0.000 A 
ATOM      4  C   UNL     1       7.319   5.479  19.088  0.00  0.00    +0.000 A 
ATOM      5  C   UNL     1       7.957   6.680  18.752  0.00  0.00    +0.000 A 
ATOM      6  C   UNL     1       7.375   7.575  17.841  0.00  0.00    +0.000 A 
ATOM      7  C   UNL     1       6.134   7.243  17.280  0.00  0.00    +0.000 A 
ATOM      8  C   UNL     1       5.492   6.045  17.619  0.00  0.00    +0.000 A 
BRANCH   3  10
ATOM      9  N   UNL     1       4.847   2.972  19.176  0.00  0.00    +0.000 NA
ATOM     10  C   UNL     1       5.404   3.951  18.892  0.00  0.00    +0.000 C 
ENDBRANCH   3  10
ENDBRANCH   1   6
BRANCH   2  11
ATOM     11  C   UNL     1       9.334  10.897  18.179  0.00  0.00    +0.000 A 
ATOM     12  C   UNL     1       8.638  12.045  17.772  0.00  0.00    +0.000 A 
ATOM     13  C   UNL     1       9.320  13.232  17.483  0.00  0.00    +0.000 A 
ATOM     14  C   UNL     1      10.710  13.289  17.611  0.00  0.00    +0.000 A 
ATOM     15  C   UNL     1      11.410  12.165  18.055  0.00  0.00    +0.000 A 
ATOM     16  C   UNL     1      10.724  10.978  18.340  0.00  0.00    +0.000 A 
BRANCH  14  17
ATOM     17  C   UNL     1      11.413  14.492  17.279  0.00  0.00    +0.000 C 
ATOM     18  N   UNL     1      11.994  15.461  17.007  0.00  0.00    +0.000 NA
ENDBRANCH  14  17
ENDBRANCH   2  11
TORSDOF 4
ENDMDL
MODEL 3
REMARK VINA RESULT:      -6.7      0.194      1.616
REMARK  Name = 
REMARK  4 active torsions:
REMARK  status: ('A' for Active; 'I' for Inactive)
REMARK    1  A    between atoms: C_2  and  C_3
REMARK    2  A    between atoms: C_6  and  C_7
REMARK    3  A    between atoms: C_8  and  C_9
REMARK    4  A    between atoms: C_12  and  C_13
REMARK                            x       y       z     vdW  Elec       q    Type
REMARK                         _______ _______ _______ _____ _____    ______ ____
ROOT
ATOM      1  C   UNL     1       8.656   9.710  18.424  0.00  0.00    +0.000 C 
ATOM      2  C   UNL     1       8.238   8.797  17.532  0.00  0.00    +0.000 C 
ENDROOT
BRANCH   1   6
ATOM      3  C   UNL     1      10.784  13.348  17.594  0.00  0.00    +0.000 A 
ATOM      4  C   UNL     1       9.388  13.307  17.548  0.00  0.00    +0.000 A 
ATOM      5  C   UNL     1       8.710  12.109  17.807  0.00  0.00    +0.000 A 
ATOM      6  C   UNL     1       9.415  10.931  18.100  0.00  0.00    +0.000 A 
ATOM      7  C   UNL     1      10.814  10.982  18.137  0.00  0.00    +0.000 A 
ATOM      8  C   UNL     1      11.495  12.179  17.884  0.00  0.00    +0.000 A 
BRANCH   3  10
ATOM      9  N   UNL     1      12.055  15.568  17.162  0.00  0.00    +0.000 NA
ATOM     10  C   UNL     1      11.486  14.576  17.363  0.00  0.00    +0.000 C 
ENDBRANCH   3  10
ENDBRANCH   1   6
BRANCH   2  11
ATOM     11  C   UNL     1       7.486   7.580  17.886  0.00  0.00    +0.000 A 
ATOM     12  C   UNL     1       7.954   6.652  18.827  0.00  0.00    +0.000 A 
ATOM     13  C   UNL     1       7.214   5.505  19.131  0.00  0.00    +0.000 A 
ATOM     14  C   UNL     1       5.986   5.277  18.506  0.00  0.00    +0.000 A 
ATOM     15  C   UNL     1       5.490   6.215  17.596  0.00  0.00    +0.000 A 
ATOM     16  C   UNL     1       6.235   7.360  17.293  0.00  0.00    +0.000 A 
BRANCH  14  17
ATOM     17  C   UNL     1       5.247   4.084  18.787  0.00  0.00    +0.000 C 
ATOM     18  N   UNL     1       4.638   3.118  19.007  0.00  0.00    +0.000 NA
ENDBRANCH  14  17
ENDBRANCH   2  11
TORSDOF 4
ENDMDL
MODEL 4
REMARK VINA RESULT:      -6.6      6.709      8.745
REMARK  Name = 
REMARK  4 active torsions:
REMARK  status: ('A' for Active; 'I' for Inactive)
REMARK    1  A    between atoms: C_2  and  C_3
REMARK    2  A    between atoms: C_6  and  C_7
REMARK    3  A    between atoms: C_8  and  C_9
REMARK    4  A    between atoms: C_12  and  C_13
REMARK                            x       y       z     vdW  Elec       q    Type
REMARK                         _______ _______ _______ _____ _____    ______ ____
ROOT
ATOM      1  C   UNL     1       3.326   6.817  18.343  0.00  0.00    +0.000 C 
ATOM      2  C   UNL     1       2.494   7.854  18.150  0.00  0.00    +0.000 C 
ENDROOT
BRANCH   1   6
ATOM      3  C   UNL     1       5.417   4.739  15.220  0.00  0.00    +0.000 A 
ATOM      4  C   UNL     1       4.726   4.036  16.210  0.00  0.00    +0.000 A 
ATOM      5  C   UNL     1       4.061   4.729  17.230  0.00  0.00    +0.000 A 
ATOM      6  C   UNL     1       4.090   6.131  17.286  0.00  0.00    +0.000 A 
ATOM      7  C   UNL     1       4.792   6.825  16.292  0.00  0.00    +0.000 A 
ATOM      8  C   UNL     1       5.454   6.135  15.268  0.00  0.00    +0.000 A 
BRANCH   3  10
ATOM      9  N   UNL     1       6.600   3.484  13.280  0.00  0.00    +0.000 NA
ATOM     10  C   UNL     1       6.073   4.040  14.153  0.00  0.00    +0.000 C 
ENDBRANCH   3  10
ENDBRANCH   1   6
BRANCH   2  11
ATOM     11  C   UNL     1       1.737   8.516  19.227  0.00  0.00    +0.000 A 
ATOM     12  C   UNL     1       1.027   9.709  19.025  0.00  0.00    +0.000 A 
ATOM     13  C   UNL     1       0.325  10.311  20.075  0.00  0.00    +0.000 A 
ATOM     14  C   UNL     1       0.313   9.719  21.339  0.00  0.00    +0.000 A 
ATOM     15  C   UNL     1       0.982   8.510  21.542  0.00  0.00    +0.000 A 
ATOM     16  C   UNL     1       1.686   7.912  20.490  0.00  0.00    +0.000 A 
BRANCH  14  17
ATOM     17  C   UNL     1      -0.373  10.355  22.424  0.00  0.00    +0.000 C 
ATOM     18  N   UNL     1      -0.927  10.882  23.299  0.00  0.00    +0.000 NA
ENDBRANCH  14  17
ENDBRANCH   2  11
TORSDOF 4
ENDMDL
MODEL 5
REMARK VINA RESULT:      -6.6      0.234      8.654
REMARK  Name = 
REMARK  4 active torsions:
REMARK  status: ('A' for Active; 'I' for Inactive)
REMARK    1  A    between atoms: C_2  and  C_3
REMARK    2  A    between atoms: C_6  and  C_7
REMARK    3  A    between atoms: C_8  and  C_9
REMARK    4  A    between atoms: C_12  and  C_13
REMARK                            x       y       z     vdW  Elec       q    Type
REMARK                         _______ _______ _______ _____ _____    ______ ____
ROOT
ATOM      1  C   UNL     1       8.240   8.871  17.604  0.00  0.00    +0.000 C 
ATOM      2  C   UNL     1       8.678   9.749  18.522  0.00  0.00    +0.000 C 
ENDROOT
BRANCH   1   6
ATOM      3  C   UNL     1       5.961   5.296  18.289  0.00  0.00    +0.000 A 
ATOM      4  C   UNL     1       5.478   6.305  17.453  0.00  0.00    +0.000 A 
ATOM      5  C   UNL     1       6.227   7.471  17.252  0.00  0.00    +0.000 A 
ATOM      6  C   UNL     1       7.462   7.654  17.894  0.00  0.00    +0.000 A 
ATOM      7  C   UNL     1       7.933   6.639  18.735  0.00  0.00    +0.000 A 
ATOM      8  C   UNL     1       7.189   5.469  18.934  0.00  0.00    +0.000 A 
BRANCH   3  10
ATOM      9  N   UNL     1       4.627   3.095  18.625  0.00  0.00    +0.000 NA
ATOM     10  C   UNL     1       5.217   4.084  18.474  0.00  0.00    +0.000 C 
ENDBRANCH   3  10
ENDBRANCH   1   6
BRANCH   2  11
ATOM     11  C   UNL     1       9.462  10.955  18.204  0.00  0.00    +0.000 A 
ATOM     12  C   UNL     1      10.864  10.970  18.226  0.00  0.00    +0.000 A 
ATOM     13  C   UNL     1      11.573  12.137  17.924  0.00  0.00    +0.000 A 
ATOM     14  C   UNL     1      10.887  13.305  17.583  0.00  0.00    +0.000 A 
ATOM     15  C   UNL     1       9.491  13.292  17.518  0.00  0.00    +0.000 A 
ATOM     16  C   UNL     1       8.785  12.122  17.823  0.00  0.00    +0.000 A 
BRANCH  14  17
ATOM     17  C   UNL     1      11.610  14.510  17.312  0.00  0.00    +0.000 C 
ATOM     18  N   UNL     1      12.187  15.495  17.093  0.00  0.00    +0.000 NA
ENDBRANCH  14  17
ENDBRANCH   2  11
TORSDOF 4
ENDMDL
MODEL 6
REMARK VINA RESULT:      -6.6      1.311      1.898
REMARK  Name = 
REMARK  4 active torsions:
REMARK  status: ('A' for Active; 'I' for Inactive)
REMARK    1  A    between atoms: C_2  and  C_3
REMARK    2  A    between atoms: C_6  and  C_7
REMARK    3  A    between atoms: C_8  and  C_9
REMARK    4  A    between atoms: C_12  and  C_13
REMARK                            x       y       z     vdW  Elec       q    Type
REMARK                         _______ _______ _______ _____ _____    ______ ____
ROOT
ATOM      1  C   UNL     1       8.634   9.209  18.959  0.00  0.00    +0.000 C 
ATOM      2  C   UNL     1       8.201   8.646  17.818  0.00  0.00    +0.000 C 
ENDROOT
BRANCH   1   6
ATOM      3  C   UNL     1      10.987  12.799  19.121  0.00  0.00    +0.000 A 
ATOM      4  C   UNL     1      10.610  12.243  17.896  0.00  0.00    +0.000 A 
ATOM      5  C   UNL     1       9.855  11.064  17.860  0.00  0.00    +0.000 A 
ATOM      6  C   UNL     1       9.478  10.413  19.046  0.00  0.00    +0.000 A 
ATOM      7  C   UNL     1       9.868  10.976  20.268  0.00  0.00    +0.000 A 
ATOM      8  C   UNL     1      10.618  12.158  20.307  0.00  0.00    +0.000 A 
BRANCH   3  10
ATOM      9  N   UNL     1      12.333  15.017  19.192  0.00  0.00    +0.000 NA
ATOM     10  C   UNL     1      11.731  14.024  19.168  0.00  0.00    +0.000 C 
ENDBRANCH   3  10
ENDBRANCH   1   6
BRANCH   2  11
ATOM     11  C   UNL     1       7.363   7.436  17.761  0.00  0.00    +0.000 A 
ATOM     12  C   UNL     1       7.697   6.255  18.439  0.00  0.00    +0.000 A 
ATOM     13  C   UNL     1       6.878   5.124  18.354  0.00  0.00    +0.000 A 
ATOM     14  C   UNL     1       5.704   5.164  17.599  0.00  0.00    +0.000 A 
ATOM     15  C   UNL     1       5.340   6.348  16.952  0.00  0.00    +0.000 A 
ATOM     16  C   UNL     1       6.163   7.476  17.037  0.00  0.00    +0.000 A 
BRANCH  14  17
ATOM     17  C   UNL     1       4.886   3.995  17.480  0.00  0.00    +0.000 C 
ATOM     18  N   UNL     1       4.217   3.048  17.394  0.00  0.00    +0.000 NA
ENDBRANCH  14  17
ENDBRANCH   2  11
TORSDOF 4
ENDMDL
MODEL 7
REMARK VINA RESULT:      -6.6      6.737      8.822
REMARK  Name = 
REMARK  4 active torsions:
REMARK  status: ('A' for Active; 'I' for Inactive)
REMARK    1  A    between atoms: C_2  and  C_3
REMARK    2  A    between atoms: C_6  and  C_7
REMARK    3  A    between atoms: C_8  and  C_9
REMARK    4  A    between atoms: C_12  and  C_13
REMARK                            x       y       z     vdW  Elec       q    Type
REMARK                         _______ _______ _______ _____ _____    ______ ____
ROOT
ATOM      1  C   UNL     1       3.330   6.690  18.411  0.00  0.00    +0.000 C 
ATOM      2  C   UNL     1       2.536   7.763  18.261  0.00  0.00    +0.000 C 
ENDROOT
BRANCH   1   6
ATOM      3  C   UNL     1       5.386   4.690  15.214  0.00  0.00    +0.000 A 
ATOM      4  C   UNL     1       4.694   3.964  16.186  0.00  0.00    +0.000 A 
ATOM      5  C   UNL     1       4.041   4.631  17.231  0.00  0.00    +0.000 A 
ATOM      6  C   UNL     1       4.082   6.031  17.329  0.00  0.00    +0.000 A 
ATOM      7  C   UNL     1       4.785   6.748  16.353  0.00  0.00    +0.000 A 
ATOM      8  C   UNL     1       5.435   6.084  15.305  0.00  0.00    +0.000 A 
BRANCH   3  10
ATOM      9  N   UNL     1       6.540   3.479  13.230  0.00  0.00    +0.000 NA
ATOM     10  C   UNL     1       6.029   4.018  14.123  0.00  0.00    +0.000 C 
ENDBRANCH   3  10
ENDBRANCH   1   6
BRANCH   2  11
ATOM     11  C   UNL     1       1.789   8.398  19.361  0.00  0.00    +0.000 A 
ATOM     12  C   UNL     1       1.691   7.823  20.636  0.00  0.00    +0.000 A 
ATOM     13  C   UNL     1       0.967   8.454  21.653  0.00  0.00    +0.000 A 
ATOM     14  C   UNL     1       0.341   9.678  21.411  0.00  0.00    +0.000 A 
ATOM     15  C   UNL     1       0.465  10.282  20.157  0.00  0.00    +0.000 A 
ATOM     16  C   UNL     1       1.188   9.646  19.141  0.00  0.00    +0.000 A 
BRANCH  14  17
ATOM     17  C   UNL     1      -0.433  10.305  22.440  0.00  0.00    +0.000 C 
ATOM     18  N   UNL     1      -1.069  10.805  23.275  0.00  0.00    +0.000 NA
ENDBRANCH  14  17
ENDBRANCH   2  11
TORSDOF 4
ENDMDL
MODEL 8
REMARK VINA RESULT:      -6.6      6.691      8.448
REMARK  Name = 
REMARK  4 active torsions:
REMARK  status: ('A' for Active; 'I' for Inactive)
REMARK    1  A    between atoms: C_2  and  C_3
REMARK    2  A    between atoms: C_6  and  C_7
REMARK    3  A    between atoms: C_8  and  C_9
REMARK    4  A    between atoms: C_12  and  C_13
REMARK                            x       y       z     vdW  Elec       q    Type
REMARK                         _______ _______ _______ _____ _____    ______ ____
ROOT
ATOM      1  C   UNL     1       2.254   8.077  18.528  0.00  0.00    +0.000 C 
ATOM      2  C   UNL     1       2.825   6.869  18.680  0.00  0.00    +0.000 C 
ENDROOT
BRANCH   1   6
ATOM      3  C   UNL     1      -0.035  10.073  21.565  0.00  0.00    +0.000 A 
ATOM      4  C   UNL     1       0.683   8.911  21.856  0.00  0.00    +0.000 A 
ATOM      5  C   UNL     1       1.413   8.263  20.850  0.00  0.00    +0.000 A 
ATOM      6  C   UNL     1       1.424   8.758  19.537  0.00  0.00    +0.000 A 
ATOM      7  C   UNL     1       0.695   9.920  19.255  0.00  0.00    +0.000 A 
ATOM      8  C   UNL     1      -0.031  10.572  20.259  0.00  0.00    +0.000 A 
BRANCH   3  10
ATOM      9  N   UNL     1      -1.347  11.328  23.419  0.00  0.00    +0.000 NA
ATOM     10  C   UNL     1      -0.758  10.761  22.594  0.00  0.00    +0.000 C 
ENDBRANCH   3  10
ENDBRANCH   1   6
BRANCH   2  11
ATOM     11  C   UNL     1       3.645   6.209  17.650  0.00  0.00    +0.000 A 
ATOM     12  C   UNL     1       4.511   6.919  16.806  0.00  0.00    +0.000 A 
ATOM     13  C   UNL     1       5.269   6.256  15.835  0.00  0.00    +0.000 A 
ATOM     14  C   UNL     1       5.180   4.868  15.704  0.00  0.00    +0.000 A 
ATOM     15  C   UNL     1       4.351   4.145  16.566  0.00  0.00    +0.000 A 
ATOM     16  C   UNL     1       3.593   4.812  17.534  0.00  0.00    +0.000 A 
BRANCH  14  17
ATOM     17  C   UNL     1       5.926   4.193  14.685  0.00  0.00    +0.000 C 
ATOM     18  N   UNL     1       6.528   3.635  13.862  0.00  0.00    +0.000 NA
ENDBRANCH  14  17
ENDBRANCH   2  11
TORSDOF 4
ENDMDL
MODEL 9
REMARK VINA RESULT:      -6.6      0.325      1.168
REMARK  Name = 
REMARK  4 active torsions:
REMARK  status: ('A' for Active; 'I' for Inactive)
REMARK    1  A    between atoms: C_2  and  C_3
REMARK    2  A    between atoms: C_6  and  C_7
REMARK    3  A    between atoms: C_8  and  C_9
REMARK    4  A    between atoms: C_12  and  C_13
REMARK                            x       y       z     vdW  Elec       q    Type
REMARK                         _______ _______ _______ _____ _____    ______ ____
ROOT
ATOM      1  C   UNL     1       8.340   9.893  18.212  0.00  0.00    +0.000 C 
ATOM      2  C   UNL     1       8.406   8.728  17.544  0.00  0.00    +0.000 C 
ENDROOT
BRANCH   1   6
ATOM      3  C   UNL     1      10.674  13.431  17.524  0.00  0.00    +0.000 A 
ATOM      4  C   UNL     1       9.281  13.494  17.591  0.00  0.00    +0.000 A 
ATOM      5  C   UNL     1       8.533  12.328  17.802  0.00  0.00    +0.000 A 
ATOM      6  C   UNL     1       9.164  11.081  17.932  0.00  0.00    +0.000 A 
ATOM      7  C   UNL     1      10.562  11.029  17.856  0.00  0.00    +0.000 A 
ATOM      8  C   UNL     1      11.312  12.194  17.651  0.00  0.00    +0.000 A 
BRANCH   3  10
ATOM      9  N   UNL     1      12.080  15.590  17.209  0.00  0.00    +0.000 NA
ATOM     10  C   UNL     1      11.450  14.624  17.342  0.00  0.00    +0.000 C 
ENDBRANCH   3  10
ENDBRANCH   1   6
BRANCH   2  11
ATOM     11  C   UNL     1       7.573   7.552  17.851  0.00  0.00    +0.000 A 
ATOM     12  C   UNL     1       6.353   7.303  17.206  0.00  0.00    +0.000 A 
ATOM     13  C   UNL     1       5.587   6.178  17.530  0.00  0.00    +0.000 A 
ATOM     14  C   UNL     1       6.040   5.278  18.497  0.00  0.00    +0.000 A 
ATOM     15  C   UNL     1       7.273   5.494  19.118  0.00  0.00    +0.000 A 
ATOM     16  C   UNL     1       8.035   6.622  18.793  0.00  0.00    +0.000 A 
BRANCH  14  17
ATOM     17  C   UNL     1       5.239   4.148  18.858  0.00  0.00    +0.000 C 
ATOM     18  N   UNL     1       4.597   3.227  19.159  0.00  0.00    +0.000 NA
ENDBRANCH  14  17
ENDBRANCH   2  11
TORSDOF 4
ENDMDL
