MODEL 1
REMARK VINA RESULT:      -6.0      0.000      0.000
REMARK  Name = 
REMARK  23 active torsions:
REMARK  status: ('A' for Active; 'I' for Inactive)
REMARK    1  A    between atoms: C_1  and  C_2
REMARK    2  A    between atoms: C_2  and  C_3
REMARK    3  A    between atoms: C_3  and  C_4
REMARK    4  A    between atoms: C_4  and  C_5
REMARK    5  A    between atoms: C_5  and  C_6
REMARK    6  A    between atoms: C_6  and  C_7
REMARK    7  A    between atoms: C_7  and  N_8
REMARK    8  A    between atoms: N_12  and  C_13
REMARK    9  A    between atoms: C_13  and  C_14
REMARK   10  A    between atoms: C_14  and  C_15
REMARK   11  A    between atoms: C_15  and  C_16
REMARK   12  A    between atoms: C_16  and  C_17
REMARK   13  A    between atoms: C_17  and  C_18
REMARK   14  A    between atoms: C_18  and  C_19
REMARK   15  A    between atoms: C_19  and  C_20
REMARK   16  A    between atoms: C_20  and  N_21
REMARK   17  A    between atoms: N_25  and  C_26
REMARK   18  A    between atoms: C_26  and  C_27
REMARK   19  A    between atoms: C_27  and  C_28
REMARK   20  A    between atoms: C_28  and  C_29
REMARK   21  A    between atoms: C_29  and  C_30
REMARK   22  A    between atoms: C_30  and  C_31
REMARK   23  A    between atoms: C_31  and  C_32
REMARK                            x       y       z     vdW  Elec       q    Type
REMARK                         _______ _______ _______ _____ _____    ______ ____
ROOT
ATOM      1  C   UNL     1       8.025   8.928  17.557  0.00  0.00    +0.000 C 
ENDROOT
BRANCH   1   2
ATOM      2  C   UNL     1       8.150  10.289  18.215  0.00  0.00    +0.000 C 
BRANCH   2   3
ATOM      3  C   UNL     1       9.536  10.451  18.816  0.00  0.00    +0.000 C 
BRANCH   3   4
ATOM      4  C   UNL     1      10.336  11.457  18.007  0.00  0.00    +0.000 C 
BRANCH   4   5
ATOM      5  C   UNL     1      10.744  12.629  18.892  0.00  0.00    +0.000 C 
BRANCH   5   6
ATOM      6  N   UNL     1       9.575  13.454  19.192  0.00  0.00    +0.000 N 
ATOM      7  C   UNL     1       9.147  13.648  20.499  0.00  0.00    +0.000 A 
ATOM      8  C   UNL     1       8.003  14.250  20.842  0.00  0.00    +0.000 A 
ATOM      9  C   UNL     1       7.125  14.764  19.759  0.00  0.00    +0.000 A 
ATOM     10  N   UNL     1       5.967  15.250  20.076  0.00  0.00    +0.000 NA
ATOM     11  C   UNL     1       7.661  14.656  18.360  0.00  0.00    +0.000 A 
ATOM     12  C   UNL     1       8.805  13.989  18.175  0.00  0.00    +0.000 A 
BRANCH  10  13
ATOM     13  C   UNL     1       5.134  15.728  18.987  0.00  0.00    +0.000 C 
BRANCH  13  14
ATOM     14  C   UNL     1       4.012  14.738  18.765  0.00  0.00    +0.000 C 
BRANCH  14  15
ATOM     15  C   UNL     1       3.048  14.800  19.938  0.00  0.00    +0.000 C 
BRANCH  15  16
ATOM     16  C   UNL     1       1.993  15.866  19.699  0.00  0.00    +0.000 C 
BRANCH  16  17
ATOM     17  C   UNL     1       0.908  15.340  18.773  0.00  0.00    +0.000 C 
BRANCH  17  18
ATOM     18  C   UNL     1       0.189  14.158  19.408  0.00  0.00    +0.000 C 
ATOM     19  C   UNL     1      -0.448  13.282  18.346  0.00  0.00    +0.000 C 
ENDBRANCH  17  18
ENDBRANCH  16  17
ENDBRANCH  15  16
ENDBRANCH  14  15
ENDBRANCH  13  14
ENDBRANCH  10  13
ENDBRANCH   5   6
ENDBRANCH   4   5
ENDBRANCH   3   4
ENDBRANCH   2   3
ENDBRANCH   1   2
BRANCH   1  20
ATOM     20  C   UNL     1       8.290   7.826  18.572  0.00  0.00    +0.000 C 
BRANCH  20  21
ATOM     21  C   UNL     1       7.848   6.491  17.993  0.00  0.00    +0.000 C 
BRANCH  21  22
ATOM     22  C   UNL     1       6.477   6.598  17.335  0.00  0.00    +0.000 C 
BRANCH  22  27
ATOM     23  N   UNL     1       3.085   2.506  18.941  0.00  0.00    +0.000 NA
ATOM     24  C   UNL     1       3.921   3.346  18.439  0.00  0.00    +0.000 A 
ATOM     25  C   UNL     1       5.108   3.701  19.258  0.00  0.00    +0.000 A 
ATOM     26  C   UNL     1       5.868   4.718  18.842  0.00  0.00    +0.000 A 
ATOM     27  N   UNL     1       5.676   5.404  17.651  0.00  0.00    +0.000 N 
ATOM     28  C   UNL     1       4.661   4.978  16.808  0.00  0.00    +0.000 A 
ATOM     29  C   UNL     1       3.796   4.012  17.108  0.00  0.00    +0.000 A 
BRANCH  23  30
ATOM     30  C   UNL     1       1.880   2.225  18.169  0.00  0.00    +0.000 C 
BRANCH  30  31
ATOM     31  C   UNL     1       0.693   2.256  19.117  0.00  0.00    +0.000 C 
BRANCH  31  32
ATOM     32  C   UNL     1       1.026   3.077  20.356  0.00  0.00    +0.000 C 
BRANCH  32  33
ATOM     33  C   UNL     1       0.900   4.565  20.057  0.00  0.00    +0.000 C 
BRANCH  33  34
ATOM     34  C   UNL     1       1.924   5.361  20.856  0.00  0.00    +0.000 C 
BRANCH  34  36
ATOM     35  C   UNL     1       2.477   6.966  19.016  0.00  0.00    +0.000 C 
ATOM     36  C   UNL     1       1.928   6.824  20.424  0.00  0.00    +0.000 C 
ENDBRANCH  34  36
ENDBRANCH  33  34
ENDBRANCH  32  33
ENDBRANCH  31  32
ENDBRANCH  30  31
ENDBRANCH  23  30
ENDBRANCH  22  27
ENDBRANCH  21  22
ENDBRANCH  20  21
ENDBRANCH   1  20
TORSDOF 21
ENDMDL
MODEL 2
REMARK VINA RESULT:      -5.9      5.413     10.786
REMARK  Name = 
REMARK  23 active torsions:
REMARK  status: ('A' for Active; 'I' for Inactive)
REMARK    1  A    between atoms: C_1  and  C_2
REMARK    2  A    between atoms: C_2  and  C_3
REMARK    3  A    between atoms: C_3  and  C_4
REMARK    4  A    between atoms: C_4  and  C_5
REMARK    5  A    between atoms: C_5  and  C_6
REMARK    6  A    between atoms: C_6  and  C_7
REMARK    7  A    between atoms: C_7  and  N_8
REMARK    8  A    between atoms: N_12  and  C_13
REMARK    9  A    between atoms: C_13  and  C_14
REMARK   10  A    between atoms: C_14  and  C_15
REMARK   11  A    between atoms: C_15  and  C_16
REMARK   12  A    between atoms: C_16  and  C_17
REMARK   13  A    between atoms: C_17  and  C_18
REMARK   14  A    between atoms: C_18  and  C_19
REMARK   15  A    between atoms: C_19  and  C_20
REMARK   16  A    between atoms: C_20  and  N_21
REMARK   17  A    between atoms: N_25  and  C_26
REMARK   18  A    between atoms: C_26  and  C_27
REMARK   19  A    between atoms: C_27  and  C_28
REMARK   20  A    between atoms: C_28  and  C_29
REMARK   21  A    between atoms: C_29  and  C_30
REMARK   22  A    between atoms: C_30  and  C_31
REMARK   23  A    between atoms: C_31  and  C_32
REMARK                            x       y       z     vdW  Elec       q    Type
REMARK                         _______ _______ _______ _____ _____    ______ ____
ROOT
ATOM      1  C   UNL     1       1.501   5.194  20.215  0.00  0.00    +0.000 C 
ENDROOT
BRANCH   1   2
ATOM      2  C   UNL     1       0.709   3.908  20.069  0.00  0.00    +0.000 C 
BRANCH   2   3
ATOM      3  C   UNL     1       1.146   2.905  21.123  0.00  0.00    +0.000 C 
BRANCH   3   4
ATOM      4  C   UNL     1       2.518   3.279  21.656  0.00  0.00    +0.000 C 
BRANCH   4   5
ATOM      5  C   UNL     1       3.571   2.334  21.087  0.00  0.00    +0.000 C 
BRANCH   5   6
ATOM      6  N   UNL     1       3.912   2.737  19.723  0.00  0.00    +0.000 N 
ATOM      7  C   UNL     1       3.324   2.126  18.624  0.00  0.00    +0.000 A 
ATOM      8  C   UNL     1       3.699   2.322  17.355  0.00  0.00    +0.000 A 
ATOM      9  C   UNL     1       4.812   3.270  17.087  0.00  0.00    +0.000 A 
ATOM     10  N   UNL     1       5.253   3.385  15.876  0.00  0.00    +0.000 NA
ATOM     11  C   UNL     1       5.352   4.014  18.276  0.00  0.00    +0.000 A 
ATOM     12  C   UNL     1       4.902   3.675  19.488  0.00  0.00    +0.000 A 
BRANCH  10  13
ATOM     13  C   UNL     1       6.350   4.311  15.659  0.00  0.00    +0.000 C 
BRANCH  13  14
ATOM     14  C   UNL     1       6.117   5.040  14.354  0.00  0.00    +0.000 C 
BRANCH  14  15
ATOM     15  C   UNL     1       6.998   4.434  13.275  0.00  0.00    +0.000 C 
BRANCH  15  16
ATOM     16  C   UNL     1       6.239   3.361  12.513  0.00  0.00    +0.000 C 
BRANCH  16  17
ATOM     17  C   UNL     1       5.207   3.994  11.594  0.00  0.00    +0.000 C 
BRANCH  17  18
ATOM     18  C   UNL     1       4.060   3.028  11.332  0.00  0.00    +0.000 C 
ATOM     19  C   UNL     1       3.174   3.537  10.210  0.00  0.00    +0.000 C 
ENDBRANCH  17  18
ENDBRANCH  16  17
ENDBRANCH  15  16
ENDBRANCH  14  15
ENDBRANCH  13  14
ENDBRANCH  10  13
ENDBRANCH   5   6
ENDBRANCH   4   5
ENDBRANCH   3   4
ENDBRANCH   2   3
ENDBRANCH   1   2
BRANCH   1  20
ATOM     20  C   UNL     1       1.866   5.744  18.844  0.00  0.00    +0.000 C 
BRANCH  20  21
ATOM     21  C   UNL     1       2.921   6.828  19.002  0.00  0.00    +0.000 C 
BRANCH  21  22
ATOM     22  C   UNL     1       2.587   8.054  18.158  0.00  0.00    +0.000 C 
BRANCH  22  27
ATOM     23  N   UNL     1      -1.183  11.362  20.541  0.00  0.00    +0.000 NA
ATOM     24  C   UNL     1      -0.446  10.496  19.938  0.00  0.00    +0.000 A 
ATOM     25  C   UNL     1       0.471   9.679  20.775  0.00  0.00    +0.000 A 
ATOM     26  C   UNL     1       1.382   8.929  20.148  0.00  0.00    +0.000 A 
ATOM     27  N   UNL     1       1.470   8.792  18.769  0.00  0.00    +0.000 N 
ATOM     28  C   UNL     1       0.520   9.432  17.988  0.00  0.00    +0.000 A 
ATOM     29  C   UNL     1      -0.416  10.248  18.466  0.00  0.00    +0.000 A 
BRANCH  23  30
ATOM     30  C   UNL     1      -2.019  12.217  19.707  0.00  0.00    +0.000 C 
BRANCH  30  31
ATOM     31  C   UNL     1      -3.130  12.784  20.575  0.00  0.00    +0.000 C 
BRANCH  31  32
ATOM     32  C   UNL     1      -2.798  12.595  22.050  0.00  0.00    +0.000 C 
BRANCH  32  33
ATOM     33  C   UNL     1      -3.351  13.752  22.870  0.00  0.00    +0.000 C 
BRANCH  33  34
ATOM     34  C   UNL     1      -2.406  14.100  24.012  0.00  0.00    +0.000 C 
BRANCH  34  36
ATOM     35  C   UNL     1      -3.634  16.112  24.855  0.00  0.00    +0.000 C 
ATOM     36  C   UNL     1      -3.173  14.704  25.184  0.00  0.00    +0.000 C 
ENDBRANCH  34  36
ENDBRANCH  33  34
ENDBRANCH  32  33
ENDBRANCH  31  32
ENDBRANCH  30  31
ENDBRANCH  23  30
ENDBRANCH  22  27
ENDBRANCH  21  22
ENDBRANCH  20  21
ENDBRANCH   1  20
TORSDOF 21
ENDMDL
MODEL 3
REMARK VINA RESULT:      -5.9      3.780      7.250
REMARK  Name = 
REMARK  23 active torsions:
REMARK  status: ('A' for Active; 'I' for Inactive)
REMARK    1  A    between atoms: C_1  and  C_2
REMARK    2  A    between atoms: C_2  and  C_3
REMARK    3  A    between atoms: C_3  and  C_4
REMARK    4  A    between atoms: C_4  and  C_5
REMARK    5  A    between atoms: C_5  and  C_6
REMARK    6  A    between atoms: C_6  and  C_7
REMARK    7  A    between atoms: C_7  and  N_8
REMARK    8  A    between atoms: N_12  and  C_13
REMARK    9  A    between atoms: C_13  and  C_14
REMARK   10  A    between atoms: C_14  and  C_15
REMARK   11  A    between atoms: C_15  and  C_16
REMARK   12  A    between atoms: C_16  and  C_17
REMARK   13  A    between atoms: C_17  and  C_18
REMARK   14  A    between atoms: C_18  and  C_19
REMARK   15  A    between atoms: C_19  and  C_20
REMARK   16  A    between atoms: C_20  and  N_21
REMARK   17  A    between atoms: N_25  and  C_26
REMARK   18  A    between atoms: C_26  and  C_27
REMARK   19  A    between atoms: C_27  and  C_28
REMARK   20  A    between atoms: C_28  and  C_29
REMARK   21  A    between atoms: C_29  and  C_30
REMARK   22  A    between atoms: C_30  and  C_31
REMARK   23  A    between atoms: C_31  and  C_32
REMARK                            x       y       z     vdW  Elec       q    Type
REMARK                         _______ _______ _______ _____ _____    ______ ____
ROOT
ATOM      1  C   UNL     1       1.747   2.066  18.916  0.00  0.00    +0.000 C 
ENDROOT
BRANCH   1   2
ATOM      2  C   UNL     1       0.664   3.128  18.909  0.00  0.00    +0.000 C 
BRANCH   2   3
ATOM      3  C   UNL     1       1.098   4.320  19.745  0.00  0.00    +0.000 C 
BRANCH   3   4
ATOM      4  C   UNL     1       1.754   5.363  18.857  0.00  0.00    +0.000 C 
BRANCH   4   5
ATOM      5  C   UNL     1       2.466   6.402  19.715  0.00  0.00    +0.000 C 
BRANCH   5   6
ATOM      6  N   UNL     1       1.969   7.738  19.390  0.00  0.00    +0.000 N 
ATOM      7  C   UNL     1       2.217   8.317  18.152  0.00  0.00    +0.000 A 
ATOM      8  C   UNL     1       1.940   9.587  17.839  0.00  0.00    +0.000 A 
ATOM      9  C   UNL     1       1.307  10.447  18.872  0.00  0.00    +0.000 A 
ATOM     10  N   UNL     1       1.135  11.703  18.615  0.00  0.00    +0.000 NA
ATOM     11  C   UNL     1       0.934   9.771  20.161  0.00  0.00    +0.000 A 
ATOM     12  C   UNL     1       1.318   8.503  20.341  0.00  0.00    +0.000 A 
BRANCH  10  13
ATOM     13  C   UNL     1       0.527  12.512  19.657  0.00  0.00    +0.000 C 
BRANCH  13  14
ATOM     14  C   UNL     1       1.578  12.825  20.701  0.00  0.00    +0.000 C 
BRANCH  14  15
ATOM     15  C   UNL     1       2.489  13.924  20.181  0.00  0.00    +0.000 C 
BRANCH  15  16
ATOM     16  C   UNL     1       1.889  14.569  18.944  0.00  0.00    +0.000 C 
BRANCH  16  17
ATOM     17  C   UNL     1       1.655  16.052  19.180  0.00  0.00    +0.000 C 
BRANCH  17  18
ATOM     18  C   UNL     1       2.458  16.884  18.190  0.00  0.00    +0.000 C 
ATOM     19  C   UNL     1       3.253  15.990  17.256  0.00  0.00    +0.000 C 
ENDBRANCH  17  18
ENDBRANCH  16  17
ENDBRANCH  15  16
ENDBRANCH  14  15
ENDBRANCH  13  14
ENDBRANCH  10  13
ENDBRANCH   5   6
ENDBRANCH   4   5
ENDBRANCH   3   4
ENDBRANCH   2   3
ENDBRANCH   1   2
BRANCH   1  20
ATOM     20  C   UNL     1       2.590   2.183  20.177  0.00  0.00    +0.000 C 
BRANCH  20  21
ATOM     21  C   UNL     1       4.052   1.954  19.829  0.00  0.00    +0.000 C 
BRANCH  21  22
ATOM     22  C   UNL     1       4.891   3.197  20.108  0.00  0.00    +0.000 C 
BRANCH  22  27
ATOM     23  N   UNL     1       6.153   5.806  15.371  0.00  0.00    +0.000 NA
ATOM     24  C   UNL     1       5.695   5.255  16.441  0.00  0.00    +0.000 A 
ATOM     25  C   UNL     1       6.171   5.792  17.742  0.00  0.00    +0.000 A 
ATOM     26  C   UNL     1       5.868   5.103  18.846  0.00  0.00    +0.000 A 
ATOM     27  N   UNL     1       5.063   3.972  18.868  0.00  0.00    +0.000 N 
ATOM     28  C   UNL     1       4.491   3.555  17.676  0.00  0.00    +0.000 A 
ATOM     29  C   UNL     1       4.737   4.111  16.493  0.00  0.00    +0.000 A 
BRANCH  23  30
ATOM     30  C   UNL     1       5.748   5.222  14.098  0.00  0.00    +0.000 C 
BRANCH  30  31
ATOM     31  C   UNL     1       6.863   4.308  13.621  0.00  0.00    +0.000 C 
BRANCH  31  32
ATOM     32  C   UNL     1       6.445   3.581  12.349  0.00  0.00    +0.000 C 
BRANCH  32  33
ATOM     33  C   UNL     1       4.942   3.338  12.347  0.00  0.00    +0.000 C 
BRANCH  33  34
ATOM     34  C   UNL     1       4.487   2.811  10.992  0.00  0.00    +0.000 C 
BRANCH  34  36
ATOM     35  C   UNL     1       3.031   4.300   9.601  0.00  0.00    +0.000 C 
ATOM     36  C   UNL     1       3.055   3.248  10.696  0.00  0.00    +0.000 C 
ENDBRANCH  34  36
ENDBRANCH  33  34
ENDBRANCH  32  33
ENDBRANCH  31  32
ENDBRANCH  30  31
ENDBRANCH  23  30
ENDBRANCH  22  27
ENDBRANCH  21  22
ENDBRANCH  20  21
ENDBRANCH   1  20
TORSDOF 21
ENDMDL
MODEL 4
REMARK VINA RESULT:      -5.8      4.763      7.510
REMARK  Name = 
REMARK  23 active torsions:
REMARK  status: ('A' for Active; 'I' for Inactive)
REMARK    1  A    between atoms: C_1  and  C_2
REMARK    2  A    between atoms: C_2  and  C_3
REMARK    3  A    between atoms: C_3  and  C_4
REMARK    4  A    between atoms: C_4  and  C_5
REMARK    5  A    between atoms: C_5  and  C_6
REMARK    6  A    between atoms: C_6  and  C_7
REMARK    7  A    between atoms: C_7  and  N_8
REMARK    8  A    between atoms: N_12  and  C_13
REMARK    9  A    between atoms: C_13  and  C_14
REMARK   10  A    between atoms: C_14  and  C_15
REMARK   11  A    between atoms: C_15  and  C_16
REMARK   12  A    between atoms: C_16  and  C_17
REMARK   13  A    between atoms: C_17  and  C_18
REMARK   14  A    between atoms: C_18  and  C_19
REMARK   15  A    between atoms: C_19  and  C_20
REMARK   16  A    between atoms: C_20  and  N_21
REMARK   17  A    between atoms: N_25  and  C_26
REMARK   18  A    between atoms: C_26  and  C_27
REMARK   19  A    between atoms: C_27  and  C_28
REMARK   20  A    between atoms: C_28  and  C_29
REMARK   21  A    between atoms: C_29  and  C_30
REMARK   22  A    between atoms: C_30  and  C_31
REMARK   23  A    between atoms: C_31  and  C_32
REMARK                            x       y       z     vdW  Elec       q    Type
REMARK                         _______ _______ _______ _____ _____    ______ ____
ROOT
ATOM      1  C   UNL     1       2.027   2.229  19.467  0.00  0.00    +0.000 C 
ENDROOT
BRANCH   1   2
ATOM      2  C   UNL     1       1.078   2.931  18.515  0.00  0.00    +0.000 C 
BRANCH   2   3
ATOM      3  C   UNL     1       1.441   4.401  18.406  0.00  0.00    +0.000 C 
BRANCH   3   4
ATOM      4  C   UNL     1       1.544   5.013  19.793  0.00  0.00    +0.000 C 
BRANCH   4   5
ATOM      5  C   UNL     1       2.636   6.076  19.812  0.00  0.00    +0.000 C 
BRANCH   5   6
ATOM      6  N   UNL     1       2.032   7.406  19.885  0.00  0.00    +0.000 N 
ATOM      7  C   UNL     1       1.343   7.823  21.017  0.00  0.00    +0.000 A 
ATOM      8  C   UNL     1       0.630   8.951  21.099  0.00  0.00    +0.000 A 
ATOM      9  C   UNL     1       0.573   9.838  19.908  0.00  0.00    +0.000 A 
ATOM     10  N   UNL     1      -0.201  10.874  19.941  0.00  0.00    +0.000 NA
ATOM     11  C   UNL     1       1.423   9.433  18.737  0.00  0.00    +0.000 A 
ATOM     12  C   UNL     1       2.047   8.253  18.791  0.00  0.00    +0.000 A 
BRANCH  10  13
ATOM     13  C   UNL     1      -0.240  11.707  18.752  0.00  0.00    +0.000 C 
BRANCH  13  14
ATOM     14  C   UNL     1      -1.048  12.949  19.056  0.00  0.00    +0.000 C 
BRANCH  14  15
ATOM     15  C   UNL     1      -0.306  14.170  18.540  0.00  0.00    +0.000 C 
BRANCH  15  16
ATOM     16  C   UNL     1      -0.506  15.346  19.481  0.00  0.00    +0.000 C 
BRANCH  16  17
ATOM     17  C   UNL     1      -0.195  14.939  20.912  0.00  0.00    +0.000 C 
BRANCH  17  18
ATOM     18  C   UNL     1      -1.130  15.646  21.884  0.00  0.00    +0.000 C 
ATOM     19  C   UNL     1      -2.571  15.536  21.419  0.00  0.00    +0.000 C 
ENDBRANCH  17  18
ENDBRANCH  16  17
ENDBRANCH  15  16
ENDBRANCH  14  15
ENDBRANCH  13  14
ENDBRANCH  10  13
ENDBRANCH   5   6
ENDBRANCH   4   5
ENDBRANCH   3   4
ENDBRANCH   2   3
ENDBRANCH   1   2
BRANCH   1  20
ATOM     20  C   UNL     1       3.236   1.700  18.710  0.00  0.00    +0.000 C 
BRANCH  20  21
ATOM     21  C   UNL     1       4.497   1.984  19.512  0.00  0.00    +0.000 C 
BRANCH  21  22
ATOM     22  C   UNL     1       4.709   3.482  19.701  0.00  0.00    +0.000 C 
BRANCH  22  27
ATOM     23  N   UNL     1       7.269   5.057  15.031  0.00  0.00    +0.000 NA
ATOM     24  C   UNL     1       6.570   4.831  16.089  0.00  0.00    +0.000 A 
ATOM     25  C   UNL     1       7.253   4.969  17.401  0.00  0.00    +0.000 A 
ATOM     26  C   UNL     1       6.603   4.540  18.487  0.00  0.00    +0.000 A 
ATOM     27  N   UNL     1       5.300   4.060  18.483  0.00  0.00    +0.000 N 
ATOM     28  C   UNL     1       4.604   4.071  17.284  0.00  0.00    +0.000 A 
ATOM     29  C   UNL     1       5.133   4.425  16.115  0.00  0.00    +0.000 A 
BRANCH  23  30
ATOM     30  C   UNL     1       6.618   4.840  13.746  0.00  0.00    +0.000 C 
BRANCH  30  31
ATOM     31  C   UNL     1       7.597   4.117  12.836  0.00  0.00    +0.000 C 
BRANCH  31  32
ATOM     32  C   UNL     1       6.888   3.619  11.583  0.00  0.00    +0.000 C 
BRANCH  32  33
ATOM     33  C   UNL     1       5.401   3.939  11.652  0.00  0.00    +0.000 C 
BRANCH  33  34
ATOM     34  C   UNL     1       4.572   2.722  11.264  0.00  0.00    +0.000 C 
BRANCH  34  36
ATOM     35  C   UNL     1       3.199   4.099   9.686  0.00  0.00    +0.000 C 
ATOM     36  C   UNL     1       3.161   3.136  10.859  0.00  0.00    +0.000 C 
ENDBRANCH  34  36
ENDBRANCH  33  34
ENDBRANCH  32  33
ENDBRANCH  31  32
ENDBRANCH  30  31
ENDBRANCH  23  30
ENDBRANCH  22  27
ENDBRANCH  21  22
ENDBRANCH  20  21
ENDBRANCH   1  20
TORSDOF 21
ENDMDL
MODEL 5
REMARK VINA RESULT:      -5.8      2.718      7.702
REMARK  Name = 
REMARK  23 active torsions:
REMARK  status: ('A' for Active; 'I' for Inactive)
REMARK    1  A    between atoms: C_1  and  C_2
REMARK    2  A    between atoms: C_2  and  C_3
REMARK    3  A    between atoms: C_3  and  C_4
REMARK    4  A    between atoms: C_4  and  C_5
REMARK    5  A    between atoms: C_5  and  C_6
REMARK    6  A    between atoms: C_6  and  C_7
REMARK    7  A    between atoms: C_7  and  N_8
REMARK    8  A    between atoms: N_12  and  C_13
REMARK    9  A    between atoms: C_13  and  C_14
REMARK   10  A    between atoms: C_14  and  C_15
REMARK   11  A    between atoms: C_15  and  C_16
REMARK   12  A    between atoms: C_16  and  C_17
REMARK   13  A    between atoms: C_17  and  C_18
REMARK   14  A    between atoms: C_18  and  C_19
REMARK   15  A    between atoms: C_19  and  C_20
REMARK   16  A    between atoms: C_20  and  N_21
REMARK   17  A    between atoms: N_25  and  C_26
REMARK   18  A    between atoms: C_26  and  C_27
REMARK   19  A    between atoms: C_27  and  C_28
REMARK   20  A    between atoms: C_28  and  C_29
REMARK   21  A    between atoms: C_29  and  C_30
REMARK   22  A    between atoms: C_30  and  C_31
REMARK   23  A    between atoms: C_31  and  C_32
REMARK                            x       y       z     vdW  Elec       q    Type
REMARK                         _______ _______ _______ _____ _____    ______ ____
ROOT
ATOM      1  C   UNL     1       2.256   4.454  20.015  0.00  0.00    +0.000 C 
ENDROOT
BRANCH   1   2
ATOM      2  C   UNL     1       1.878   5.556  20.987  0.00  0.00    +0.000 C 
BRANCH   2   3
ATOM      3  C   UNL     1       1.336   6.756  20.230  0.00  0.00    +0.000 C 
BRANCH   3   4
ATOM      4  C   UNL     1       1.604   8.028  21.015  0.00  0.00    +0.000 C 
BRANCH   4   5
ATOM      5  C   UNL     1       0.326   8.493  21.703  0.00  0.00    +0.000 C 
BRANCH   5   6
ATOM      6  N   UNL     1       0.159   9.934  21.518  0.00  0.00    +0.000 N 
ATOM      7  C   UNL     1       0.890  10.626  20.560  0.00  0.00    +0.000 A 
ATOM      8  C   UNL     1       0.914  11.957  20.440  0.00  0.00    +0.000 A 
ATOM      9  C   UNL     1       0.095  12.766  21.380  0.00  0.00    +0.000 A 
ATOM     10  N   UNL     1       0.196  14.056  21.342  0.00  0.00    +0.000 NA
ATOM     11  C   UNL     1      -0.783  11.997  22.327  0.00  0.00    +0.000 A 
ATOM     12  C   UNL     1      -0.664  10.666  22.355  0.00  0.00    +0.000 A 
BRANCH  10  13
ATOM     13  C   UNL     1      -0.610  14.808  22.287  0.00  0.00    +0.000 C 
BRANCH  13  14
ATOM     14  C   UNL     1      -0.698  16.243  21.814  0.00  0.00    +0.000 C 
BRANCH  14  15
ATOM     15  C   UNL     1       0.519  16.567  20.964  0.00  0.00    +0.000 C 
BRANCH  15  16
ATOM     16  C   UNL     1       0.167  17.599  19.908  0.00  0.00    +0.000 C 
BRANCH  16  17
ATOM     17  C   UNL     1      -0.655  16.963  18.798  0.00  0.00    +0.000 C 
BRANCH  17  18
ATOM     18  C   UNL     1      -0.586  17.806  17.532  0.00  0.00    +0.000 C 
ATOM     19  C   UNL     1       0.817  18.344  17.319  0.00  0.00    +0.000 C 
ENDBRANCH  17  18
ENDBRANCH  16  17
ENDBRANCH  15  16
ENDBRANCH  14  15
ENDBRANCH  13  14
ENDBRANCH  10  13
ENDBRANCH   5   6
ENDBRANCH   4   5
ENDBRANCH   3   4
ENDBRANCH   2   3
ENDBRANCH   1   2
BRANCH   1  20
ATOM     20  C   UNL     1       1.853   4.841  18.600  0.00  0.00    +0.000 C 
BRANCH  20  21
ATOM     21  C   UNL     1       2.214   3.712  17.647  0.00  0.00    +0.000 C 
BRANCH  21  22
ATOM     22  C   UNL     1       3.606   3.163  17.940  0.00  0.00    +0.000 C 
BRANCH  22  27
ATOM     23  N   UNL     1       6.992   7.474  17.053  0.00  0.00    +0.000 NA
ATOM     24  C   UNL     1       6.348   6.373  17.230  0.00  0.00    +0.000 A 
ATOM     25  C   UNL     1       5.291   6.035  16.242  0.00  0.00    +0.000 A 
ATOM     26  C   UNL     1       4.482   5.010  16.525  0.00  0.00    +0.000 A 
ATOM     27  N   UNL     1       4.621   4.184  17.633  0.00  0.00    +0.000 N 
ATOM     28  C   UNL     1       5.698   4.401  18.478  0.00  0.00    +0.000 A 
ATOM     29  C   UNL     1       6.558   5.409  18.351  0.00  0.00    +0.000 A 
BRANCH  23  30
ATOM     30  C   UNL     1       7.970   7.841  18.070  0.00  0.00    +0.000 C 
BRANCH  30  31
ATOM     31  C   UNL     1       8.245   9.330  17.946  0.00  0.00    +0.000 C 
BRANCH  31  32
ATOM     32  C   UNL     1       9.067   9.818  19.132  0.00  0.00    +0.000 C 
BRANCH  32  33
ATOM     33  C   UNL     1       9.455  11.278  18.945  0.00  0.00    +0.000 C 
BRANCH  33  34
ATOM     34  C   UNL     1      10.938  11.479  19.227  0.00  0.00    +0.000 C 
BRANCH  34  36
ATOM     35  C   UNL     1      12.333  13.194  18.050  0.00  0.00    +0.000 C 
ATOM     36  C   UNL     1      11.690  11.823  17.945  0.00  0.00    +0.000 C 
ENDBRANCH  34  36
ENDBRANCH  33  34
ENDBRANCH  32  33
ENDBRANCH  31  32
ENDBRANCH  30  31
ENDBRANCH  23  30
ENDBRANCH  22  27
ENDBRANCH  21  22
ENDBRANCH  20  21
ENDBRANCH   1  20
TORSDOF 21
ENDMDL
MODEL 6
REMARK VINA RESULT:      -5.8      2.387     11.065
REMARK  Name = 
REMARK  23 active torsions:
REMARK  status: ('A' for Active; 'I' for Inactive)
REMARK    1  A    between atoms: C_1  and  C_2
REMARK    2  A    between atoms: C_2  and  C_3
REMARK    3  A    between atoms: C_3  and  C_4
REMARK    4  A    between atoms: C_4  and  C_5
REMARK    5  A    between atoms: C_5  and  C_6
REMARK    6  A    between atoms: C_6  and  C_7
REMARK    7  A    between atoms: C_7  and  N_8
REMARK    8  A    between atoms: N_12  and  C_13
REMARK    9  A    between atoms: C_13  and  C_14
REMARK   10  A    between atoms: C_14  and  C_15
REMARK   11  A    between atoms: C_15  and  C_16
REMARK   12  A    between atoms: C_16  and  C_17
REMARK   13  A    between atoms: C_17  and  C_18
REMARK   14  A    between atoms: C_18  and  C_19
REMARK   15  A    between atoms: C_19  and  C_20
REMARK   16  A    between atoms: C_20  and  N_21
REMARK   17  A    between atoms: N_25  and  C_26
REMARK   18  A    between atoms: C_26  and  C_27
REMARK   19  A    between atoms: C_27  and  C_28
REMARK   20  A    between atoms: C_28  and  C_29
REMARK   21  A    between atoms: C_29  and  C_30
REMARK   22  A    between atoms: C_30  and  C_31
REMARK   23  A    between atoms: C_31  and  C_32
REMARK                            x       y       z     vdW  Elec       q    Type
REMARK                         _______ _______ _______ _____ _____    ______ ____
ROOT
ATOM      1  C   UNL     1      -1.466  11.030  22.610  0.00  0.00    +0.000 C 
ENDROOT
BRANCH   1   2
ATOM      2  C   UNL     1      -0.645  10.019  23.389  0.00  0.00    +0.000 C 
BRANCH   2   3
ATOM      3  C   UNL     1       0.478   9.479  22.520  0.00  0.00    +0.000 C 
BRANCH   3   4
ATOM      4  C   UNL     1      -0.088   8.949  21.213  0.00  0.00    +0.000 C 
BRANCH   4   5
ATOM      5  C   UNL     1       0.583   9.647  20.036  0.00  0.00    +0.000 C 
BRANCH   5   6
ATOM      6  N   UNL     1       1.557   8.748  19.418  0.00  0.00    +0.000 N 
ATOM      7  C   UNL     1       2.061   8.997  18.147  0.00  0.00    +0.000 A 
ATOM      8  C   UNL     1       2.824   8.145  17.454  0.00  0.00    +0.000 A 
ATOM      9  C   UNL     1       3.178   6.845  18.079  0.00  0.00    +0.000 A 
ATOM     10  N   UNL     1       3.824   5.971  17.375  0.00  0.00    +0.000 NA
ATOM     11  C   UNL     1       2.729   6.646  19.499  0.00  0.00    +0.000 A 
ATOM     12  C   UNL     1       1.935   7.573  20.043  0.00  0.00    +0.000 A 
BRANCH  10  13
ATOM     13  C   UNL     1       4.138   4.708  18.019  0.00  0.00    +0.000 C 
BRANCH  13  14
ATOM     14  C   UNL     1       3.872   3.586  17.038  0.00  0.00    +0.000 C 
BRANCH  14  15
ATOM     15  C   UNL     1       3.570   2.310  17.805  0.00  0.00    +0.000 C 
BRANCH  15  16
ATOM     16  C   UNL     1       2.119   2.295  18.254  0.00  0.00    +0.000 C 
BRANCH  16  17
ATOM     17  C   UNL     1       2.017   1.840  19.701  0.00  0.00    +0.000 C 
BRANCH  17  18
ATOM     18  C   UNL     1       1.917   3.040  20.633  0.00  0.00    +0.000 C 
ATOM     19  C   UNL     1       0.764   3.940  20.229  0.00  0.00    +0.000 C 
ENDBRANCH  17  18
ENDBRANCH  16  17
ENDBRANCH  15  16
ENDBRANCH  14  15
ENDBRANCH  13  14
ENDBRANCH  10  13
ENDBRANCH   5   6
ENDBRANCH   4   5
ENDBRANCH   3   4
ENDBRANCH   2   3
ENDBRANCH   1   2
BRANCH   1  20
ATOM     20  C   UNL     1      -0.931  12.434  22.844  0.00  0.00    +0.000 C 
BRANCH  20  21
ATOM     21  C   UNL     1      -0.147  12.885  21.621  0.00  0.00    +0.000 C 
BRANCH  21  22
ATOM     22  C   UNL     1       0.315  14.331  21.760  0.00  0.00    +0.000 C 
BRANCH  22  27
ATOM     23  N   UNL     1       4.672  15.872  18.681  0.00  0.00    +0.000 NA
ATOM     24  C   UNL     1       3.682  15.355  19.322  0.00  0.00    +0.000 A 
ATOM     25  C   UNL     1       2.324  15.870  19.009  0.00  0.00    +0.000 A 
ATOM     26  C   UNL     1       1.318  15.495  19.806  0.00  0.00    +0.000 A 
ATOM     27  N   UNL     1       1.442  14.586  20.848  0.00  0.00    +0.000 N 
ATOM     28  C   UNL     1       2.676  13.986  21.048  0.00  0.00    +0.000 A 
ATOM     29  C   UNL     1       3.777  14.293  20.367  0.00  0.00    +0.000 A 
BRANCH  23  30
ATOM     30  C   UNL     1       6.009  15.422  19.051  0.00  0.00    +0.000 C 
BRANCH  30  31
ATOM     31  C   UNL     1       6.518  14.502  17.955  0.00  0.00    +0.000 C 
BRANCH  31  32
ATOM     32  C   UNL     1       7.878  13.929  18.334  0.00  0.00    +0.000 C 
BRANCH  32  33
ATOM     33  C   UNL     1       8.238  12.767  17.419  0.00  0.00    +0.000 C 
BRANCH  33  34
ATOM     34  C   UNL     1       9.285  11.874  18.073  0.00  0.00    +0.000 C 
BRANCH  34  36
ATOM     35  C   UNL     1       9.331  11.132  20.464  0.00  0.00    +0.000 C 
ATOM     36  C   UNL     1       9.534  12.301  19.516  0.00  0.00    +0.000 C 
ENDBRANCH  34  36
ENDBRANCH  33  34
ENDBRANCH  32  33
ENDBRANCH  31  32
ENDBRANCH  30  31
ENDBRANCH  23  30
ENDBRANCH  22  27
ENDBRANCH  21  22
ENDBRANCH  20  21
ENDBRANCH   1  20
TORSDOF 21
ENDMDL
MODEL 7
REMARK VINA RESULT:      -5.6      5.734     10.319
REMARK  Name = 
REMARK  23 active torsions:
REMARK  status: ('A' for Active; 'I' for Inactive)
REMARK    1  A    between atoms: C_1  and  C_2
REMARK    2  A    between atoms: C_2  and  C_3
REMARK    3  A    between atoms: C_3  and  C_4
REMARK    4  A    between atoms: C_4  and  C_5
REMARK    5  A    between atoms: C_5  and  C_6
REMARK    6  A    between atoms: C_6  and  C_7
REMARK    7  A    between atoms: C_7  and  N_8
REMARK    8  A    between atoms: N_12  and  C_13
REMARK    9  A    between atoms: C_13  and  C_14
REMARK   10  A    between atoms: C_14  and  C_15
REMARK   11  A    between atoms: C_15  and  C_16
REMARK   12  A    between atoms: C_16  and  C_17
REMARK   13  A    between atoms: C_17  and  C_18
REMARK   14  A    between atoms: C_18  and  C_19
REMARK   15  A    between atoms: C_19  and  C_20
REMARK   16  A    between atoms: C_20  and  N_21
REMARK   17  A    between atoms: N_25  and  C_26
REMARK   18  A    between atoms: C_26  and  C_27
REMARK   19  A    between atoms: C_27  and  C_28
REMARK   20  A    between atoms: C_28  and  C_29
REMARK   21  A    between atoms: C_29  and  C_30
REMARK   22  A    between atoms: C_30  and  C_31
REMARK   23  A    between atoms: C_31  and  C_32
REMARK                            x       y       z     vdW  Elec       q    Type
REMARK                         _______ _______ _______ _____ _____    ______ ____
ROOT
ATOM      1  C   UNL     1      -2.470  11.034  16.253  0.00  0.00    +0.000 C 
ENDROOT
BRANCH   1   2
ATOM      2  C   UNL     1      -3.909  10.729  15.879  0.00  0.00    +0.000 C 
BRANCH   2   3
ATOM      3  C   UNL     1      -4.856  11.510  16.773  0.00  0.00    +0.000 C 
BRANCH   3   4
ATOM      4  C   UNL     1      -5.377  10.614  17.884  0.00  0.00    +0.000 C 
BRANCH   4   5
ATOM      5  C   UNL     1      -6.717  11.137  18.387  0.00  0.00    +0.000 C 
BRANCH   5   6
ATOM      6  N   UNL     1      -6.574  11.630  19.756  0.00  0.00    +0.000 N 
ATOM      7  C   UNL     1      -7.582  11.451  20.695  0.00  0.00    +0.000 A 
ATOM      8  C   UNL     1      -7.595  12.009  21.910  0.00  0.00    +0.000 A 
ATOM      9  C   UNL     1      -6.451  12.872  22.303  0.00  0.00    +0.000 A 
ATOM     10  N   UNL     1      -6.507  13.503  23.432  0.00  0.00    +0.000 NA
ATOM     11  C   UNL     1      -5.314  12.955  21.324  0.00  0.00    +0.000 A 
ATOM     12  C   UNL     1      -5.468  12.373  20.131  0.00  0.00    +0.000 A 
BRANCH  10  13
ATOM     13  C   UNL     1      -5.376  14.347  23.772  0.00  0.00    +0.000 C 
BRANCH  13  14
ATOM     14  C   UNL     1      -5.890  15.726  24.125  0.00  0.00    +0.000 C 
BRANCH  14  15
ATOM     15  C   UNL     1      -4.741  16.573  24.645  0.00  0.00    +0.000 C 
BRANCH  15  16
ATOM     16  C   UNL     1      -3.444  15.783  24.609  0.00  0.00    +0.000 C 
BRANCH  16  17
ATOM     17  C   UNL     1      -2.378  16.476  25.443  0.00  0.00    +0.000 C 
BRANCH  17  18
ATOM     18  C   UNL     1      -1.013  15.848  25.196  0.00  0.00    +0.000 C 
ATOM     19  C   UNL     1       0.029  16.917  24.925  0.00  0.00    +0.000 C 
ENDBRANCH  17  18
ENDBRANCH  16  17
ENDBRANCH  15  16
ENDBRANCH  14  15
ENDBRANCH  13  14
ENDBRANCH  10  13
ENDBRANCH   5   6
ENDBRANCH   4   5
ENDBRANCH   3   4
ENDBRANCH   2   3
ENDBRANCH   1   2
BRANCH   1  20
ATOM     20  C   UNL     1      -1.889   9.894  17.076  0.00  0.00    +0.000 C 
BRANCH  20  21
ATOM     21  C   UNL     1      -1.496  10.416  18.450  0.00  0.00    +0.000 C 
BRANCH  21  22
ATOM     22  C   UNL     1      -0.038  10.861  18.479  0.00  0.00    +0.000 C 
BRANCH  22  27
ATOM     23  N   UNL     1       2.637   6.295  20.165  0.00  0.00    +0.000 NA
ATOM     24  C   UNL     1       2.173   7.434  19.780  0.00  0.00    +0.000 A 
ATOM     25  C   UNL     1       1.233   8.132  20.694  0.00  0.00    +0.000 A 
ATOM     26  C   UNL     1       0.590   9.204  20.223  0.00  0.00    +0.000 A 
ATOM     27  N   UNL     1       0.810   9.762  18.971  0.00  0.00    +0.000 N 
ATOM     28  C   UNL     1       1.796   9.205  18.172  0.00  0.00    +0.000 A 
ATOM     29  C   UNL     1       2.485   8.111  18.486  0.00  0.00    +0.000 A 
BRANCH  23  30
ATOM     30  C   UNL     1       3.492   5.577  19.229  0.00  0.00    +0.000 C 
BRANCH  30  31
ATOM     31  C   UNL     1       2.619   4.638  18.415  0.00  0.00    +0.000 C 
BRANCH  31  32
ATOM     32  C   UNL     1       3.411   4.050  17.254  0.00  0.00    +0.000 C 
BRANCH  32  33
ATOM     33  C   UNL     1       4.506   5.013  16.816  0.00  0.00    +0.000 C 
BRANCH  33  34
ATOM     34  C   UNL     1       5.779   4.254  16.467  0.00  0.00    +0.000 C 
BRANCH  34  36
ATOM     35  C   UNL     1       6.897   4.804  14.295  0.00  0.00    +0.000 C 
ATOM     36  C   UNL     1       5.837   3.954  14.973  0.00  0.00    +0.000 C 
ENDBRANCH  34  36
ENDBRANCH  33  34
ENDBRANCH  32  33
ENDBRANCH  31  32
ENDBRANCH  30  31
ENDBRANCH  23  30
ENDBRANCH  22  27
ENDBRANCH  21  22
ENDBRANCH  20  21
ENDBRANCH   1  20
TORSDOF 21
ENDMDL
MODEL 8
REMARK VINA RESULT:      -5.6      2.238      7.519
REMARK  Name = 
REMARK  23 active torsions:
REMARK  status: ('A' for Active; 'I' for Inactive)
REMARK    1  A    between atoms: C_1  and  C_2
REMARK    2  A    between atoms: C_2  and  C_3
REMARK    3  A    between atoms: C_3  and  C_4
REMARK    4  A    between atoms: C_4  and  C_5
REMARK    5  A    between atoms: C_5  and  C_6
REMARK    6  A    between atoms: C_6  and  C_7
REMARK    7  A    between atoms: C_7  and  N_8
REMARK    8  A    between atoms: N_12  and  C_13
REMARK    9  A    between atoms: C_13  and  C_14
REMARK   10  A    between atoms: C_14  and  C_15
REMARK   11  A    between atoms: C_15  and  C_16
REMARK   12  A    between atoms: C_16  and  C_17
REMARK   13  A    between atoms: C_17  and  C_18
REMARK   14  A    between atoms: C_18  and  C_19
REMARK   15  A    between atoms: C_19  and  C_20
REMARK   16  A    between atoms: C_20  and  N_21
REMARK   17  A    between atoms: N_25  and  C_26
REMARK   18  A    between atoms: C_26  and  C_27
REMARK   19  A    between atoms: C_27  and  C_28
REMARK   20  A    between atoms: C_28  and  C_29
REMARK   21  A    between atoms: C_29  and  C_30
REMARK   22  A    between atoms: C_30  and  C_31
REMARK   23  A    between atoms: C_31  and  C_32
REMARK                            x       y       z     vdW  Elec       q    Type
REMARK                         _______ _______ _______ _____ _____    ______ ____
ROOT
ATOM      1  C   UNL     1       2.798   3.573  18.751  0.00  0.00    +0.000 C 
ENDROOT
BRANCH   1   2
ATOM      2  C   UNL     1       3.366   4.937  19.095  0.00  0.00    +0.000 C 
BRANCH   2   3
ATOM      3  C   UNL     1       2.264   5.983  19.061  0.00  0.00    +0.000 C 
BRANCH   3   4
ATOM      4  C   UNL     1       2.860   7.354  18.792  0.00  0.00    +0.000 C 
BRANCH   4   5
ATOM      5  C   UNL     1       1.867   8.209  18.013  0.00  0.00    +0.000 C 
BRANCH   5   6
ATOM      6  N   UNL     1       1.446   9.347  18.829  0.00  0.00    +0.000 N 
ATOM      7  C   UNL     1       1.123   9.190  20.171  0.00  0.00    +0.000 A 
ATOM      8  C   UNL     1       0.579  10.142  20.936  0.00  0.00    +0.000 A 
ATOM      9  C   UNL     1       0.308  11.470  20.326  0.00  0.00    +0.000 A 
ATOM     10  N   UNL     1      -0.316  12.361  21.027  0.00  0.00    +0.000 NA
ATOM     11  C   UNL     1       0.777  11.659  18.912  0.00  0.00    +0.000 A 
ATOM     12  C   UNL     1       1.266  10.597  18.264  0.00  0.00    +0.000 A 
BRANCH  10  13
ATOM     13  C   UNL     1      -0.574  13.640  20.389  0.00  0.00    +0.000 C 
BRANCH  13  14
ATOM     14  C   UNL     1       0.541  14.596  20.754  0.00  0.00    +0.000 C 
BRANCH  14  15
ATOM     15  C   UNL     1       0.539  15.763  19.782  0.00  0.00    +0.000 C 
BRANCH  15  16
ATOM     16  C   UNL     1       1.502  15.499  18.637  0.00  0.00    +0.000 C 
BRANCH  16  17
ATOM     17  C   UNL     1       2.658  16.485  18.678  0.00  0.00    +0.000 C 
BRANCH  17  18
ATOM     18  C   UNL     1       3.983  15.749  18.819  0.00  0.00    +0.000 C 
ATOM     19  C   UNL     1       3.873  14.335  18.280  0.00  0.00    +0.000 C 
ENDBRANCH  17  18
ENDBRANCH  16  17
ENDBRANCH  15  16
ENDBRANCH  14  15
ENDBRANCH  13  14
ENDBRANCH  10  13
ENDBRANCH   5   6
ENDBRANCH   4   5
ENDBRANCH   3   4
ENDBRANCH   2   3
ENDBRANCH   1   2
BRANCH   1  20
ATOM     20  C   UNL     1       3.726   2.846  17.789  0.00  0.00    +0.000 C 
BRANCH  20  21
ATOM     21  C   UNL     1       3.986   3.728  16.578  0.00  0.00    +0.000 C 
BRANCH  21  22
ATOM     22  C   UNL     1       5.471   3.777  16.236  0.00  0.00    +0.000 C 
BRANCH  22  27
ATOM     23  N   UNL     1       8.423   7.905  18.493  0.00  0.00    +0.000 NA
ATOM     24  C   UNL     1       7.600   7.016  18.054  0.00  0.00    +0.000 A 
ATOM     25  C   UNL     1       7.801   5.616  18.508  0.00  0.00    +0.000 A 
ATOM     26  C   UNL     1       7.089   4.659  17.904  0.00  0.00    +0.000 A 
ATOM     27  N   UNL     1       6.111   4.896  16.947  0.00  0.00    +0.000 N 
ATOM     28  C   UNL     1       5.813   6.212  16.630  0.00  0.00    +0.000 A 
ATOM     29  C   UNL     1       6.467   7.265  17.113  0.00  0.00    +0.000 A 
BRANCH  23  30
ATOM     30  C   UNL     1       8.272   9.260  17.979  0.00  0.00    +0.000 C 
BRANCH  30  31
ATOM     31  C   UNL     1       9.069  10.195  18.872  0.00  0.00    +0.000 C 
BRANCH  31  32
ATOM     32  C   UNL     1       9.638  11.350  18.057  0.00  0.00    +0.000 C 
BRANCH  32  33
ATOM     33  C   UNL     1       9.292  12.682  18.709  0.00  0.00    +0.000 C 
BRANCH  33  34
ATOM     34  C   UNL     1      10.145  13.801  18.127  0.00  0.00    +0.000 C 
BRANCH  34  36
ATOM     35  C   UNL     1       8.525  15.698  17.908  0.00  0.00    +0.000 C 
ATOM     36  C   UNL     1       9.712  15.154  18.682  0.00  0.00    +0.000 C 
ENDBRANCH  34  36
ENDBRANCH  33  34
ENDBRANCH  32  33
ENDBRANCH  31  32
ENDBRANCH  30  31
ENDBRANCH  23  30
ENDBRANCH  22  27
ENDBRANCH  21  22
ENDBRANCH  20  21
ENDBRANCH   1  20
TORSDOF 21
ENDMDL
MODEL 9
REMARK VINA RESULT:      -5.6      2.681     11.130
REMARK  Name = 
REMARK  23 active torsions:
REMARK  status: ('A' for Active; 'I' for Inactive)
REMARK    1  A    between atoms: C_1  and  C_2
REMARK    2  A    between atoms: C_2  and  C_3
REMARK    3  A    between atoms: C_3  and  C_4
REMARK    4  A    between atoms: C_4  and  C_5
REMARK    5  A    between atoms: C_5  and  C_6
REMARK    6  A    between atoms: C_6  and  C_7
REMARK    7  A    between atoms: C_7  and  N_8
REMARK    8  A    between atoms: N_12  and  C_13
REMARK    9  A    between atoms: C_13  and  C_14
REMARK   10  A    between atoms: C_14  and  C_15
REMARK   11  A    between atoms: C_15  and  C_16
REMARK   12  A    between atoms: C_16  and  C_17
REMARK   13  A    between atoms: C_17  and  C_18
REMARK   14  A    between atoms: C_18  and  C_19
REMARK   15  A    between atoms: C_19  and  C_20
REMARK   16  A    between atoms: C_20  and  N_21
REMARK   17  A    between atoms: N_25  and  C_26
REMARK   18  A    between atoms: C_26  and  C_27
REMARK   19  A    between atoms: C_27  and  C_28
REMARK   20  A    between atoms: C_28  and  C_29
REMARK   21  A    between atoms: C_29  and  C_30
REMARK   22  A    between atoms: C_30  and  C_31
REMARK   23  A    between atoms: C_31  and  C_32
REMARK                            x       y       z     vdW  Elec       q    Type
REMARK                         _______ _______ _______ _____ _____    ______ ____
ROOT
ATOM      1  C   UNL     1      -0.720  11.487  22.486  0.00  0.00    +0.000 C 
ENDROOT
BRANCH   1   2
ATOM      2  C   UNL     1      -0.852  10.162  23.214  0.00  0.00    +0.000 C 
BRANCH   2   3
ATOM      3  C   UNL     1      -0.430   9.023  22.301  0.00  0.00    +0.000 C 
BRANCH   3   4
ATOM      4  C   UNL     1       0.845   9.396  21.563  0.00  0.00    +0.000 C 
BRANCH   4   5
ATOM      5  C   UNL     1       0.607   9.347  20.059  0.00  0.00    +0.000 C 
BRANCH   5   6
ATOM      6  N   UNL     1       1.660   8.563  19.415  0.00  0.00    +0.000 N 
ATOM      7  C   UNL     1       2.160   8.916  18.168  0.00  0.00    +0.000 A 
ATOM      8  C   UNL     1       2.999   8.165  17.447  0.00  0.00    +0.000 A 
ATOM      9  C   UNL     1       3.449   6.867  18.014  0.00  0.00    +0.000 A 
ATOM     10  N   UNL     1       4.174   6.086  17.279  0.00  0.00    +0.000 NA
ATOM     11  C   UNL     1       2.997   6.561  19.414  0.00  0.00    +0.000 A 
ATOM     12  C   UNL     1       2.122   7.392  19.988  0.00  0.00    +0.000 A 
BRANCH  10  13
ATOM     13  C   UNL     1       4.580   4.821  17.865  0.00  0.00    +0.000 C 
BRANCH  13  14
ATOM     14  C   UNL     1       4.056   3.696  16.999  0.00  0.00    +0.000 C 
BRANCH  14  15
ATOM     15  C   UNL     1       2.581   3.481  17.294  0.00  0.00    +0.000 C 
BRANCH  15  16
ATOM     16  C   UNL     1       2.340   2.061  17.776  0.00  0.00    +0.000 C 
BRANCH  16  17
ATOM     17  C   UNL     1       1.529   2.070  19.062  0.00  0.00    +0.000 C 
BRANCH  17  18
ATOM     18  C   UNL     1       2.248   2.867  20.142  0.00  0.00    +0.000 C 
ATOM     19  C   UNL     1       1.427   2.906  21.417  0.00  0.00    +0.000 C 
ENDBRANCH  17  18
ENDBRANCH  16  17
ENDBRANCH  15  16
ENDBRANCH  14  15
ENDBRANCH  13  14
ENDBRANCH  10  13
ENDBRANCH   5   6
ENDBRANCH   4   5
ENDBRANCH   3   4
ENDBRANCH   2   3
ENDBRANCH   1   2
BRANCH   1  20
ATOM     20  C   UNL     1      -2.041  12.240  22.525  0.00  0.00    +0.000 C 
BRANCH  20  21
ATOM     21  C   UNL     1      -2.391  12.715  21.123  0.00  0.00    +0.000 C 
BRANCH  21  22
ATOM     22  C   UNL     1      -1.830  14.108  20.853  0.00  0.00    +0.000 C 
BRANCH  22  27
ATOM     23  N   UNL     1       3.042  14.184  18.190  0.00  0.00    +0.000 NA
ATOM     24  C   UNL     1       1.997  14.080  18.935  0.00  0.00    +0.000 A 
ATOM     25  C   UNL     1       0.882  13.237  18.434  0.00  0.00    +0.000 A 
ATOM     26  C   UNL     1      -0.279  13.285  19.093  0.00  0.00    +0.000 A 
ATOM     27  N   UNL     1      -0.485  13.999  20.266  0.00  0.00    +0.000 N 
ATOM     28  C   UNL     1       0.596  14.666  20.823  0.00  0.00    +0.000 A 
ATOM     29  C   UNL     1       1.798  14.746  20.257  0.00  0.00    +0.000 A 
BRANCH  23  30
ATOM     30  C   UNL     1       4.098  15.079  18.648  0.00  0.00    +0.000 C 
BRANCH  30  31
ATOM     31  C   UNL     1       5.369  14.737  17.891  0.00  0.00    +0.000 C 
BRANCH  31  32
ATOM     32  C   UNL     1       6.531  15.583  18.396  0.00  0.00    +0.000 C 
BRANCH  32  33
ATOM     33  C   UNL     1       6.206  16.169  19.763  0.00  0.00    +0.000 C 
BRANCH  33  34
ATOM     34  C   UNL     1       7.327  15.879  20.752  0.00  0.00    +0.000 C 
BRANCH  34  36
ATOM     35  C   UNL     1       9.103  14.128  20.971  0.00  0.00    +0.000 C 
ATOM     36  C   UNL     1       7.614  14.382  20.820  0.00  0.00    +0.000 C 
ENDBRANCH  34  36
ENDBRANCH  33  34
ENDBRANCH  32  33
ENDBRANCH  31  32
ENDBRANCH  30  31
ENDBRANCH  23  30
ENDBRANCH  22  27
ENDBRANCH  21  22
ENDBRANCH  20  21
ENDBRANCH   1  20
TORSDOF 21
ENDMDL
