MODEL 1
REMARK VINA RESULT:      -7.2      0.000      0.000
REMARK  Name = 
REMARK  7 active torsions:
REMARK  status: ('A' for Active; 'I' for Inactive)
REMARK    1  A    between atoms: C_1  and  C_2
REMARK    2  A    between atoms: C_2  and  C_3
REMARK    3  A    between atoms: C_2  and  C_4
REMARK    4  A    between atoms: C_2  and  C_5
REMARK    5  A    between atoms: C_8  and  O_9
REMARK    6  A    between atoms: O_9  and  C_10
REMARK    7  A    between atoms: C_15  and  N_16
REMARK                            x       y       z     vdW  Elec       q    Type
REMARK                         _______ _______ _______ _____ _____    ______ ____
ROOT
ATOM      1  C   UNL     1       1.164   9.273  19.599  0.00  0.00    +0.000 A 
ATOM      2  C   UNL     1       1.517   9.319  18.240  0.00  0.00    +0.000 A 
ATOM      3  C   UNL     1       2.284   8.305  17.653  0.00  0.00    +0.000 A 
ATOM      4  C   UNL     1       2.722   7.223  18.410  0.00  0.00    +0.000 A 
ATOM      5  C   UNL     1       2.356   7.139  19.753  0.00  0.00    +0.000 A 
ATOM      6  C   UNL     1       1.616   8.168  20.345  0.00  0.00    +0.000 A 
ENDROOT
BRANCH   1   8
ATOM      7  C   UNL     1       0.971  11.694  20.478  0.00  0.00    +0.000 C 
ATOM      8  C   UNL     1       0.267  10.336  20.262  0.00  0.00    +0.000 C 
ATOM      9  C   UNL     1      -0.222   9.847  21.641  0.00  0.00    +0.000 C 
ATOM     10  C   UNL     1      -0.959  10.593  19.356  0.00  0.00    +0.000 C 
ENDBRANCH   1   8
BRANCH   4  11
ATOM     11  O   UNL     1       3.461   6.273  17.739  0.00  0.00    +0.000 OA
BRANCH  11  12
ATOM     12  C   UNL     1       3.202   4.935  17.937  0.00  0.00    +0.000 A 
ATOM     13  C   UNL     1       1.894   4.432  17.832  0.00  0.00    +0.000 A 
ATOM     14  C   UNL     1       1.631   3.069  17.978  0.00  0.00    +0.000 A 
ATOM     15  C   UNL     1       2.664   2.194  18.292  0.00  0.00    +0.000 A 
ATOM     16  C   UNL     1       3.956   2.684  18.483  0.00  0.00    +0.000 A 
ATOM     17  C   UNL     1       4.229   4.055  18.312  0.00  0.00    +0.000 A 
BRANCH  17  18
ATOM     18  N   UNL     1       5.609   4.513  18.560  0.00  0.00    +0.000 N 
ATOM     19  O   UNL     1       6.416   4.540  17.624  0.00  0.00    +0.000 OA
ATOM     20  O   UNL     1       5.892   4.863  19.718  0.00  0.00    +0.000 OA
ENDBRANCH  17  18
ENDBRANCH  11  12
ENDBRANCH   4  11
TORSDOF 4
ENDMDL
MODEL 2
REMARK VINA RESULT:      -7.2      0.246      1.180
REMARK  Name = 
REMARK  7 active torsions:
REMARK  status: ('A' for Active; 'I' for Inactive)
REMARK    1  A    between atoms: C_1  and  C_2
REMARK    2  A    between atoms: C_2  and  C_3
REMARK    3  A    between atoms: C_2  and  C_4
REMARK    4  A    between atoms: C_2  and  C_5
REMARK    5  A    between atoms: C_8  and  O_9
REMARK    6  A    between atoms: O_9  and  C_10
REMARK    7  A    between atoms: C_15  and  N_16
REMARK                            x       y       z     vdW  Elec       q    Type
REMARK                         _______ _______ _______ _____ _____    ______ ____
ROOT
ATOM      1  C   UNL     1       1.138   9.230  19.684  0.00  0.00    +0.000 A 
ATOM      2  C   UNL     1       1.494   9.303  18.327  0.00  0.00    +0.000 A 
ATOM      3  C   UNL     1       2.248   8.292  17.717  0.00  0.00    +0.000 A 
ATOM      4  C   UNL     1       2.668   7.186  18.449  0.00  0.00    +0.000 A 
ATOM      5  C   UNL     1       2.300   7.076  19.789  0.00  0.00    +0.000 A 
ATOM      6  C   UNL     1       1.574   8.102  20.404  0.00  0.00    +0.000 A 
ENDROOT
BRANCH   1   8
ATOM      7  C   UNL     1      -0.991  10.685  19.548  0.00  0.00    +0.000 C 
ATOM      8  C   UNL     1       0.255  10.289  20.371  0.00  0.00    +0.000 C 
ATOM      9  C   UNL     1       1.062  11.579  20.632  0.00  0.00    +0.000 C 
ATOM     10  C   UNL     1      -0.245   9.727  21.720  0.00  0.00    +0.000 C 
ENDBRANCH   1   8
BRANCH   4  11
ATOM     11  O   UNL     1       3.395   6.242  17.757  0.00  0.00    +0.000 OA
BRANCH  11  12
ATOM     12  C   UNL     1       3.194   4.902  18.006  0.00  0.00    +0.000 A 
ATOM     13  C   UNL     1       1.929   4.319  17.825  0.00  0.00    +0.000 A 
ATOM     14  C   UNL     1       1.729   2.952  18.023  0.00  0.00    +0.000 A 
ATOM     15  C   UNL     1       2.780   2.156  18.464  0.00  0.00    +0.000 A 
ATOM     16  C   UNL     1       4.023   2.729  18.729  0.00  0.00    +0.000 A 
ATOM     17  C   UNL     1       4.234   4.104  18.506  0.00  0.00    +0.000 A 
BRANCH  17  18
ATOM     18  N   UNL     1       5.562   4.653  18.836  0.00  0.00    +0.000 N 
ATOM     19  O   UNL     1       5.673   5.447  19.778  0.00  0.00    +0.000 OA
ATOM     20  O   UNL     1       6.522   4.277  18.142  0.00  0.00    +0.000 OA
ENDBRANCH  17  18
ENDBRANCH  11  12
ENDBRANCH   4  11
TORSDOF 4
ENDMDL
MODEL 3
REMARK VINA RESULT:      -7.2      1.096      1.850
REMARK  Name = 
REMARK  7 active torsions:
REMARK  status: ('A' for Active; 'I' for Inactive)
REMARK    1  A    between atoms: C_1  and  C_2
REMARK    2  A    between atoms: C_2  and  C_3
REMARK    3  A    between atoms: C_2  and  C_4
REMARK    4  A    between atoms: C_2  and  C_5
REMARK    5  A    between atoms: C_8  and  O_9
REMARK    6  A    between atoms: O_9  and  C_10
REMARK    7  A    between atoms: C_15  and  N_16
REMARK                            x       y       z     vdW  Elec       q    Type
REMARK                         _______ _______ _______ _____ _____    ______ ____
ROOT
ATOM      1  C   UNL     1       0.973   9.384  19.390  0.00  0.00    +0.000 A 
ATOM      2  C   UNL     1       0.993   8.701  20.618  0.00  0.00    +0.000 A 
ATOM      3  C   UNL     1       1.711   7.509  20.775  0.00  0.00    +0.000 A 
ATOM      4  C   UNL     1       2.421   6.966  19.709  0.00  0.00    +0.000 A 
ATOM      5  C   UNL     1       2.442   7.642  18.490  0.00  0.00    +0.000 A 
ATOM      6  C   UNL     1       1.700   8.817  18.326  0.00  0.00    +0.000 A 
ENDROOT
BRANCH   1   8
ATOM      7  C   UNL     1      -0.377  11.287  20.496  0.00  0.00    +0.000 C 
ATOM      8  C   UNL     1       0.250  10.730  19.198  0.00  0.00    +0.000 C 
ATOM      9  C   UNL     1      -0.885  10.593  18.162  0.00  0.00    +0.000 C 
ATOM     10  C   UNL     1       1.267  11.778  18.694  0.00  0.00    +0.000 C 
ENDBRANCH   1   8
BRANCH   4  11
ATOM     11  O   UNL     1       3.103   5.797  19.968  0.00  0.00    +0.000 OA
BRANCH  11  12
ATOM     12  C   UNL     1       2.839   4.668  19.224  0.00  0.00    +0.000 A 
ATOM     13  C   UNL     1       1.589   4.032  19.302  0.00  0.00    +0.000 A 
ATOM     14  C   UNL     1       1.294   2.920  18.512  0.00  0.00    +0.000 A 
ATOM     15  C   UNL     1       2.267   2.390  17.673  0.00  0.00    +0.000 A 
ATOM     16  C   UNL     1       3.542   2.956  17.641  0.00  0.00    +0.000 A 
ATOM     17  C   UNL     1       3.834   4.093  18.419  0.00  0.00    +0.000 A 
BRANCH  17  18
ATOM     18  N   UNL     1       5.209   4.623  18.364  0.00  0.00    +0.000 N 
ATOM     19  O   UNL     1       6.059   4.188  19.149  0.00  0.00    +0.000 OA
ATOM     20  O   UNL     1       5.449   5.492  17.508  0.00  0.00    +0.000 OA
ENDBRANCH  17  18
ENDBRANCH  11  12
ENDBRANCH   4  11
TORSDOF 4
ENDMDL
MODEL 4
REMARK VINA RESULT:      -7.2      1.349      1.610
REMARK  Name = 
REMARK  7 active torsions:
REMARK  status: ('A' for Active; 'I' for Inactive)
REMARK    1  A    between atoms: C_1  and  C_2
REMARK    2  A    between atoms: C_2  and  C_3
REMARK    3  A    between atoms: C_2  and  C_4
REMARK    4  A    between atoms: C_2  and  C_5
REMARK    5  A    between atoms: C_8  and  O_9
REMARK    6  A    between atoms: O_9  and  C_10
REMARK    7  A    between atoms: C_15  and  N_16
REMARK                            x       y       z     vdW  Elec       q    Type
REMARK                         _______ _______ _______ _____ _____    ______ ____
ROOT
ATOM      1  C   UNL     1       0.835   9.575  19.386  0.00  0.00    +0.000 A 
ATOM      2  C   UNL     1       1.570   8.980  18.345  0.00  0.00    +0.000 A 
ATOM      3  C   UNL     1       2.290   7.796  18.548  0.00  0.00    +0.000 A 
ATOM      4  C   UNL     1       2.300   7.180  19.795  0.00  0.00    +0.000 A 
ATOM      5  C   UNL     1       1.553   7.734  20.834  0.00  0.00    +0.000 A 
ATOM      6  C   UNL     1       0.859   8.933  20.638  0.00  0.00    +0.000 A 
ENDROOT
BRANCH   1   8
ATOM      7  C   UNL     1       0.792  12.072  18.731  0.00  0.00    +0.000 C 
ATOM      8  C   UNL     1      -0.021  10.838  19.182  0.00  0.00    +0.000 C 
ATOM      9  C   UNL     1      -0.744  11.218  20.492  0.00  0.00    +0.000 C 
ATOM     10  C   UNL     1      -1.076  10.559  18.089  0.00  0.00    +0.000 C 
ENDBRANCH   1   8
BRANCH   4  11
ATOM     11  O   UNL     1       3.029   6.015  19.890  0.00  0.00    +0.000 OA
BRANCH  11  12
ATOM     12  C   UNL     1       2.474   4.822  19.484  0.00  0.00    +0.000 A 
ATOM     13  C   UNL     1       1.361   4.283  20.150  0.00  0.00    +0.000 A 
ATOM     14  C   UNL     1       0.759   3.102  19.711  0.00  0.00    +0.000 A 
ATOM     15  C   UNL     1       1.299   2.409  18.634  0.00  0.00    +0.000 A 
ATOM     16  C   UNL     1       2.453   2.883  18.010  0.00  0.00    +0.000 A 
ATOM     17  C   UNL     1       3.047   4.087  18.435  0.00  0.00    +0.000 A 
BRANCH  17  18
ATOM     18  N   UNL     1       4.283   4.516  17.753  0.00  0.00    +0.000 N 
ATOM     19  O   UNL     1       4.210   5.311  16.809  0.00  0.00    +0.000 OA
ATOM     20  O   UNL     1       5.356   4.053  18.178  0.00  0.00    +0.000 OA
ENDBRANCH  17  18
ENDBRANCH  11  12
ENDBRANCH   4  11
TORSDOF 4
ENDMDL
MODEL 5
REMARK VINA RESULT:      -7.2      0.162      1.285
REMARK  Name = 
REMARK  7 active torsions:
REMARK  status: ('A' for Active; 'I' for Inactive)
REMARK    1  A    between atoms: C_1  and  C_2
REMARK    2  A    between atoms: C_2  and  C_3
REMARK    3  A    between atoms: C_2  and  C_4
REMARK    4  A    between atoms: C_2  and  C_5
REMARK    5  A    between atoms: C_8  and  O_9
REMARK    6  A    between atoms: O_9  and  C_10
REMARK    7  A    between atoms: C_15  and  N_16
REMARK                            x       y       z     vdW  Elec       q    Type
REMARK                         _______ _______ _______ _____ _____    ______ ____
ROOT
ATOM      1  C   UNL     1       1.103   9.151  19.747  0.00  0.00    +0.000 A 
ATOM      2  C   UNL     1       1.611   8.007  20.387  0.00  0.00    +0.000 A 
ATOM      3  C   UNL     1       2.399   7.078  19.698  0.00  0.00    +0.000 A 
ATOM      4  C   UNL     1       2.696   7.263  18.352  0.00  0.00    +0.000 A 
ATOM      5  C   UNL     1       2.231   8.407  17.704  0.00  0.00    +0.000 A 
ATOM      6  C   UNL     1       1.418   9.319  18.385  0.00  0.00    +0.000 A 
ENDROOT
BRANCH   1   8
ATOM      7  C   UNL     1       1.067  11.542  20.721  0.00  0.00    +0.000 C 
ATOM      8  C   UNL     1       0.289  10.228  20.489  0.00  0.00    +0.000 C 
ATOM      9  C   UNL     1      -0.161   9.709  21.871  0.00  0.00    +0.000 C 
ATOM     10  C   UNL     1      -0.962  10.577  19.651  0.00  0.00    +0.000 C 
ENDBRANCH   1   8
BRANCH   4  11
ATOM     11  O   UNL     1       3.487   6.299  17.767  0.00  0.00    +0.000 OA
BRANCH  11  12
ATOM     12  C   UNL     1       3.224   4.966  17.991  0.00  0.00    +0.000 A 
ATOM     13  C   UNL     1       1.915   4.465  17.894  0.00  0.00    +0.000 A 
ATOM     14  C   UNL     1       1.647   3.106  18.067  0.00  0.00    +0.000 A 
ATOM     15  C   UNL     1       2.677   2.234  18.399  0.00  0.00    +0.000 A 
ATOM     16  C   UNL     1       3.971   2.724  18.581  0.00  0.00    +0.000 A 
ATOM     17  C   UNL     1       4.248   4.090  18.383  0.00  0.00    +0.000 A 
BRANCH  17  18
ATOM     18  N   UNL     1       5.629   4.548  18.623  0.00  0.00    +0.000 N 
ATOM     19  O   UNL     1       5.946   4.960  19.746  0.00  0.00    +0.000 OA
ATOM     20  O   UNL     1       6.422   4.488  17.668  0.00  0.00    +0.000 OA
ENDBRANCH  17  18
ENDBRANCH  11  12
ENDBRANCH   4  11
TORSDOF 4
ENDMDL
MODEL 6
REMARK VINA RESULT:      -7.1      0.309      1.474
REMARK  Name = 
REMARK  7 active torsions:
REMARK  status: ('A' for Active; 'I' for Inactive)
REMARK    1  A    between atoms: C_1  and  C_2
REMARK    2  A    between atoms: C_2  and  C_3
REMARK    3  A    between atoms: C_2  and  C_4
REMARK    4  A    between atoms: C_2  and  C_5
REMARK    5  A    between atoms: C_8  and  O_9
REMARK    6  A    between atoms: O_9  and  C_10
REMARK    7  A    between atoms: C_15  and  N_16
REMARK                            x       y       z     vdW  Elec       q    Type
REMARK                         _______ _______ _______ _____ _____    ______ ____
ROOT
ATOM      1  C   UNL     1       1.063   9.241  19.631  0.00  0.00    +0.000 A 
ATOM      2  C   UNL     1       1.559   8.136  20.345  0.00  0.00    +0.000 A 
ATOM      3  C   UNL     1       2.394   7.192  19.735  0.00  0.00    +0.000 A 
ATOM      4  C   UNL     1       2.750   7.323  18.397  0.00  0.00    +0.000 A 
ATOM      5  C   UNL     1       2.296   8.428  17.677  0.00  0.00    +0.000 A 
ATOM      6  C   UNL     1       1.438   9.354  18.279  0.00  0.00    +0.000 A 
ENDROOT
BRANCH   1   8
ATOM      7  C   UNL     1      -1.058  10.705  19.465  0.00  0.00    +0.000 C 
ATOM      8  C   UNL     1       0.197  10.334  20.286  0.00  0.00    +0.000 C 
ATOM      9  C   UNL     1       1.016  11.627  20.482  0.00  0.00    +0.000 C 
ATOM     10  C   UNL     1      -0.287   9.832  21.664  0.00  0.00    +0.000 C 
ENDBRANCH   1   8
BRANCH   4  11
ATOM     11  O   UNL     1       3.583   6.348  17.893  0.00  0.00    +0.000 OA
BRANCH  11  12
ATOM     12  C   UNL     1       3.193   5.028  17.925  0.00  0.00    +0.000 A 
ATOM     13  C   UNL     1       1.832   4.680  17.927  0.00  0.00    +0.000 A 
ATOM     14  C   UNL     1       1.428   3.344  17.904  0.00  0.00    +0.000 A 
ATOM     15  C   UNL     1       2.382   2.332  17.939  0.00  0.00    +0.000 A 
ATOM     16  C   UNL     1       3.736   2.655  18.021  0.00  0.00    +0.000 A 
ATOM     17  C   UNL     1       4.146   4.003  18.019  0.00  0.00    +0.000 A 
BRANCH  17  18
ATOM     18  N   UNL     1       5.591   4.277  18.139  0.00  0.00    +0.000 N 
ATOM     19  O   UNL     1       6.276   4.381  17.115  0.00  0.00    +0.000 OA
ATOM     20  O   UNL     1       6.052   4.399  19.287  0.00  0.00    +0.000 OA
ENDBRANCH  17  18
ENDBRANCH  11  12
ENDBRANCH   4  11
TORSDOF 4
ENDMDL
MODEL 7
REMARK VINA RESULT:      -7.1      1.353      1.864
REMARK  Name = 
REMARK  7 active torsions:
REMARK  status: ('A' for Active; 'I' for Inactive)
REMARK    1  A    between atoms: C_1  and  C_2
REMARK    2  A    between atoms: C_2  and  C_3
REMARK    3  A    between atoms: C_2  and  C_4
REMARK    4  A    between atoms: C_2  and  C_5
REMARK    5  A    between atoms: C_8  and  O_9
REMARK    6  A    between atoms: O_9  and  C_10
REMARK    7  A    between atoms: C_15  and  N_16
REMARK                            x       y       z     vdW  Elec       q    Type
REMARK                         _______ _______ _______ _____ _____    ______ ____
ROOT
ATOM      1  C   UNL     1       0.857   9.506  19.460  0.00  0.00    +0.000 A 
ATOM      2  C   UNL     1       0.884   8.833  20.694  0.00  0.00    +0.000 A 
ATOM      3  C   UNL     1       1.604   7.644  20.858  0.00  0.00    +0.000 A 
ATOM      4  C   UNL     1       2.311   7.093  19.793  0.00  0.00    +0.000 A 
ATOM      5  C   UNL     1       2.325   7.759  18.568  0.00  0.00    +0.000 A 
ATOM      6  C   UNL     1       1.580   8.931  18.398  0.00  0.00    +0.000 A 
ENDROOT
BRANCH   1   8
ATOM      7  C   UNL     1       1.060  11.993  18.795  0.00  0.00    +0.000 C 
ATOM      8  C   UNL     1       0.131  10.850  19.261  0.00  0.00    +0.000 C 
ATOM      9  C   UNL     1      -0.536  11.305  20.576  0.00  0.00    +0.000 C 
ATOM     10  C   UNL     1      -0.959  10.675  18.179  0.00  0.00    +0.000 C 
ENDBRANCH   1   8
BRANCH   4  11
ATOM     11  O   UNL     1       2.996   5.927  20.058  0.00  0.00    +0.000 OA
BRANCH  11  12
ATOM     12  C   UNL     1       2.497   4.722  19.616  0.00  0.00    +0.000 A 
ATOM     13  C   UNL     1       1.274   4.228  20.099  0.00  0.00    +0.000 A 
ATOM     14  C   UNL     1       0.736   3.034  19.616  0.00  0.00    +0.000 A 
ATOM     15  C   UNL     1       1.443   2.284  18.684  0.00  0.00    +0.000 A 
ATOM     16  C   UNL     1       2.698   2.714  18.252  0.00  0.00    +0.000 A 
ATOM     17  C   UNL     1       3.231   3.931  18.719  0.00  0.00    +0.000 A 
BRANCH  17  18
ATOM     18  N   UNL     1       4.576   4.313  18.247  0.00  0.00    +0.000 N 
ATOM     19  O   UNL     1       5.570   3.921  18.869  0.00  0.00    +0.000 OA
ATOM     20  O   UNL     1       4.641   5.015  17.224  0.00  0.00    +0.000 OA
ENDBRANCH  17  18
ENDBRANCH  11  12
ENDBRANCH   4  11
TORSDOF 4
ENDMDL
MODEL 8
REMARK VINA RESULT:      -7.1      1.113      1.598
REMARK  Name = 
REMARK  7 active torsions:
REMARK  status: ('A' for Active; 'I' for Inactive)
REMARK    1  A    between atoms: C_1  and  C_2
REMARK    2  A    between atoms: C_2  and  C_3
REMARK    3  A    between atoms: C_2  and  C_4
REMARK    4  A    between atoms: C_2  and  C_5
REMARK    5  A    between atoms: C_8  and  O_9
REMARK    6  A    between atoms: O_9  and  C_10
REMARK    7  A    between atoms: C_15  and  N_16
REMARK                            x       y       z     vdW  Elec       q    Type
REMARK                         _______ _______ _______ _____ _____    ______ ____
ROOT
ATOM      1  C   UNL     1       0.744   9.687  19.393  0.00  0.00    +0.000 A 
ATOM      2  C   UNL     1       0.805   8.976  20.604  0.00  0.00    +0.000 A 
ATOM      3  C   UNL     1       1.587   7.821  20.732  0.00  0.00    +0.000 A 
ATOM      4  C   UNL     1       2.322   7.343  19.652  0.00  0.00    +0.000 A 
ATOM      5  C   UNL     1       2.303   8.049  18.449  0.00  0.00    +0.000 A 
ATOM      6  C   UNL     1       1.498   9.185  18.315  0.00  0.00    +0.000 A 
ENDROOT
BRANCH   1   8
ATOM      7  C   UNL     1       0.814  12.195  18.784  0.00  0.00    +0.000 C 
ATOM      8  C   UNL     1      -0.051  10.996  19.235  0.00  0.00    +0.000 C 
ATOM      9  C   UNL     1      -0.719  11.388  20.570  0.00  0.00    +0.000 C 
ATOM     10  C   UNL     1      -1.146  10.792  18.165  0.00  0.00    +0.000 C 
ENDBRANCH   1   8
BRANCH   4  11
ATOM     11  O   UNL     1       3.067   6.207  19.881  0.00  0.00    +0.000 OA
BRANCH  11  12
ATOM     12  C   UNL     1       2.915   5.109  19.063  0.00  0.00    +0.000 A 
ATOM     13  C   UNL     1       1.685   4.435  18.986  0.00  0.00    +0.000 A 
ATOM     14  C   UNL     1       1.507   3.355  18.119  0.00  0.00    +0.000 A 
ATOM     15  C   UNL     1       2.575   2.895  17.359  0.00  0.00    +0.000 A 
ATOM     16  C   UNL     1       3.827   3.498  17.481  0.00  0.00    +0.000 A 
ATOM     17  C   UNL     1       4.003   4.603  18.336  0.00  0.00    +0.000 A 
BRANCH  17  18
ATOM     18  N   UNL     1       5.359   5.174  18.444  0.00  0.00    +0.000 N 
ATOM     19  O   UNL     1       5.679   6.118  17.713  0.00  0.00    +0.000 OA
ATOM     20  O   UNL     1       6.121   4.672  19.287  0.00  0.00    +0.000 OA
ENDBRANCH  17  18
ENDBRANCH  11  12
ENDBRANCH   4  11
TORSDOF 4
ENDMDL
MODEL 9
REMARK VINA RESULT:      -7.1      2.086      2.583
REMARK  Name = 
REMARK  7 active torsions:
REMARK  status: ('A' for Active; 'I' for Inactive)
REMARK    1  A    between atoms: C_1  and  C_2
REMARK    2  A    between atoms: C_2  and  C_3
REMARK    3  A    between atoms: C_2  and  C_4
REMARK    4  A    between atoms: C_2  and  C_5
REMARK    5  A    between atoms: C_8  and  O_9
REMARK    6  A    between atoms: O_9  and  C_10
REMARK    7  A    between atoms: C_15  and  N_16
REMARK                            x       y       z     vdW  Elec       q    Type
REMARK                         _______ _______ _______ _____ _____    ______ ____
ROOT
ATOM      1  C   UNL     1       0.981   9.546  19.245  0.00  0.00    +0.000 A 
ATOM      2  C   UNL     1       1.617   9.001  18.116  0.00  0.00    +0.000 A 
ATOM      3  C   UNL     1       2.315   7.789  18.188  0.00  0.00    +0.000 A 
ATOM      4  C   UNL     1       2.399   7.093  19.390  0.00  0.00    +0.000 A 
ATOM      5  C   UNL     1       1.749   7.598  20.515  0.00  0.00    +0.000 A 
ATOM      6  C   UNL     1       1.079   8.824  20.449  0.00  0.00    +0.000 A 
ENDROOT
BRANCH   1   8
ATOM      7  C   UNL     1       0.958  12.075  18.724  0.00  0.00    +0.000 C 
ATOM      8  C   UNL     1       0.151  10.842  19.187  0.00  0.00    +0.000 C 
ATOM      9  C   UNL     1      -0.436  11.170  20.576  0.00  0.00    +0.000 C 
ATOM     10  C   UNL     1      -1.010  10.650  18.185  0.00  0.00    +0.000 C 
ENDBRANCH   1   8
BRANCH   4  11
ATOM     11  O   UNL     1       3.098   5.906  19.355  0.00  0.00    +0.000 OA
BRANCH  11  12
ATOM     12  C   UNL     1       2.538   4.764  19.881  0.00  0.00    +0.000 A 
ATOM     13  C   UNL     1       2.609   4.497  21.258  0.00  0.00    +0.000 A 
ATOM     14  C   UNL     1       1.997   3.368  21.807  0.00  0.00    +0.000 A 
ATOM     15  C   UNL     1       1.355   2.456  20.977  0.00  0.00    +0.000 A 
ATOM     16  C   UNL     1       1.344   2.659  19.597  0.00  0.00    +0.000 A 
ATOM     17  C   UNL     1       1.939   3.810  19.044  0.00  0.00    +0.000 A 
BRANCH  17  18
ATOM     18  N   UNL     1       1.921   3.949  17.576  0.00  0.00    +0.000 N 
ATOM     19  O   UNL     1       0.922   4.425  17.024  0.00  0.00    +0.000 OA
ATOM     20  O   UNL     1       2.934   3.580  16.957  0.00  0.00    +0.000 OA
ENDBRANCH  17  18
ENDBRANCH  11  12
ENDBRANCH   4  11
TORSDOF 4
ENDMDL
