MODEL 1
REMARK VINA RESULT:      -6.7      0.000      0.000
REMARK  Name = 
REMARK  7 active torsions:
REMARK  status: ('A' for Active; 'I' for Inactive)
REMARK    1  A    between atoms: N_1  and  N_2
REMARK    2  A    between atoms: C_3  and  C_5
REMARK    3  A    between atoms: N_7  and  C_8
REMARK    4  A    between atoms: C_8  and  O_9
REMARK    5  A    between atoms: O_9  and  C_10
REMARK    6  A    between atoms: C_10  and  C_11
REMARK    7  A    between atoms: C_11  and  O_12
REMARK                            x       y       z     vdW  Elec       q    Type
REMARK                         _______ _______ _______ _____ _____    ______ ____
ROOT
ATOM      1  C   UNL     1       4.445   4.617  18.317  0.00  0.00    +0.000 A 
ATOM      2  C   UNL     1       4.100   5.880  18.779  0.00  0.00    +0.000 A 
ATOM      3  N   UNL     1       2.863   5.802  19.377  0.00  0.00    +0.000 N 
ATOM      4  C   UNL     1       2.426   4.502  19.357  0.00  0.00    +0.000 A 
ATOM      5  N   UNL     1       1.269   4.059  19.879  0.00  0.00    +0.000 NA
ATOM      6  C   UNL     1       1.120   2.735  19.694  0.00  0.00    +0.000 A 
ATOM      7  N   UNL     1       1.966   1.877  19.095  0.00  0.00    +0.000 NA
ATOM      8  C   UNL     1       3.123   2.360  18.601  0.00  0.00    +0.000 A 
ATOM      9  N   UNL     1       3.999   1.453  18.026  0.00  0.00    +0.000 N 
ATOM     10  C   UNL     1       3.384   3.735  18.707  0.00  0.00    +0.000 A 
ATOM     11  H   UNL     1       3.532   0.598  17.755  0.00  0.00    +0.000 HD
ATOM     12  H   UNL     1       4.634   1.854  17.335  0.00  0.00    +0.000 HD
ENDROOT
BRANCH   1  14
ATOM     13  N   UNL     1       6.832   4.475  18.215  0.00  0.00    +0.000 N 
ATOM     14  C   UNL     1       5.630   4.270  17.538  0.00  0.00    +0.000 C 
ATOM     15  O   UNL     1       5.557   3.827  16.395  0.00  0.00    +0.000 OA
ATOM     16  H   UNL     1       6.792   4.593  19.225  0.00  0.00    +0.000 HD
BRANCH  13  17
ATOM     17  N   UNL     1       8.054   4.074  17.627  0.00  0.00    +0.000 NA
ATOM     18  H   UNL     1       8.829   4.377  18.217  0.00  0.00    +0.000 HD
ATOM     19  H   UNL     1       8.154   4.600  16.746  0.00  0.00    +0.000 HD
ENDBRANCH  13  17
ENDBRANCH   1  14
BRANCH   3  20
ATOM     20  C   UNL     1       2.153   6.917  19.979  0.00  0.00    +0.000 C 
BRANCH  20  21
ATOM     21  O   UNL     1       2.286   8.059  19.129  0.00  0.00    +0.000 OA
BRANCH  21  22
ATOM     22  C   UNL     1       1.338   9.071  19.488  0.00  0.00    +0.000 C 
BRANCH  22  23
ATOM     23  C   UNL     1       0.792   9.714  18.217  0.00  0.00    +0.000 C 
BRANCH  23  24
ATOM     24  O   UNL     1       1.864  10.094  17.358  0.00  0.00    +0.000 OA
ATOM     25  H   UNL     1       1.447  10.487  16.568  0.00  0.00    +0.000 HD
ENDBRANCH  23  24
ENDBRANCH  22  23
ENDBRANCH  21  22
ENDBRANCH  20  21
ENDBRANCH   3  20
TORSDOF 7
ENDMDL
MODEL 2
REMARK VINA RESULT:      -6.7      2.834      5.271
REMARK  Name = 
REMARK  7 active torsions:
REMARK  status: ('A' for Active; 'I' for Inactive)
REMARK    1  A    between atoms: N_1  and  N_2
REMARK    2  A    between atoms: C_3  and  C_5
REMARK    3  A    between atoms: N_7  and  C_8
REMARK    4  A    between atoms: C_8  and  O_9
REMARK    5  A    between atoms: O_9  and  C_10
REMARK    6  A    between atoms: C_10  and  C_11
REMARK    7  A    between atoms: C_11  and  O_12
REMARK                            x       y       z     vdW  Elec       q    Type
REMARK                         _______ _______ _______ _____ _____    ______ ____
ROOT
ATOM      1  C   UNL     1       4.062   4.193  18.668  0.00  0.00    +0.000 A 
ATOM      2  C   UNL     1       4.795   4.194  17.488  0.00  0.00    +0.000 A 
ATOM      3  N   UNL     1       4.605   5.403  16.860  0.00  0.00    +0.000 N 
ATOM      4  C   UNL     1       3.807   6.203  17.637  0.00  0.00    +0.000 A 
ATOM      5  N   UNL     1       3.440   7.463  17.341  0.00  0.00    +0.000 NA
ATOM      6  C   UNL     1       2.648   7.981  18.296  0.00  0.00    +0.000 A 
ATOM      7  N   UNL     1       2.236   7.406  19.441  0.00  0.00    +0.000 NA
ATOM      8  C   UNL     1       2.642   6.149  19.706  0.00  0.00    +0.000 A 
ATOM      9  N   UNL     1       2.240   5.590  20.909  0.00  0.00    +0.000 N 
ATOM     10  C   UNL     1       3.450   5.485  18.770  0.00  0.00    +0.000 A 
ATOM     11  H   UNL     1       1.432   6.062  21.293  0.00  0.00    +0.000 HD
ATOM     12  H   UNL     1       2.206   4.570  20.914  0.00  0.00    +0.000 HD
ENDROOT
BRANCH   1  14
ATOM     13  N   UNL     1       5.108   2.501  20.000  0.00  0.00    +0.000 N 
ATOM     14  C   UNL     1       3.904   3.074  19.593  0.00  0.00    +0.000 C 
ATOM     15  O   UNL     1       2.802   2.691  19.976  0.00  0.00    +0.000 OA
ATOM     16  H   UNL     1       5.961   3.033  19.843  0.00  0.00    +0.000 HD
BRANCH  13  17
ATOM     17  N   UNL     1       5.113   1.484  20.982  0.00  0.00    +0.000 NA
ATOM     18  H   UNL     1       4.976   0.579  20.533  0.00  0.00    +0.000 HD
ATOM     19  H   UNL     1       4.282   1.629  21.573  0.00  0.00    +0.000 HD
ENDBRANCH  13  17
ENDBRANCH   1  14
BRANCH   3  20
ATOM     20  C   UNL     1       5.199   5.788  15.591  0.00  0.00    +0.000 C 
BRANCH  20  21
ATOM     21  O   UNL     1       6.620   5.655  15.690  0.00  0.00    +0.000 OA
BRANCH  21  22
ATOM     22  C   UNL     1       7.129   4.855  14.616  0.00  0.00    +0.000 C 
BRANCH  22  23
ATOM     23  C   UNL     1       5.999   3.998  14.055  0.00  0.00    +0.000 C 
BRANCH  23  24
ATOM     24  O   UNL     1       6.439   3.302  12.893  0.00  0.00    +0.000 OA
ATOM     25  H   UNL     1       7.208   3.801  12.557  0.00  0.00    +0.000 HD
ENDBRANCH  23  24
ENDBRANCH  22  23
ENDBRANCH  21  22
ENDBRANCH  20  21
ENDBRANCH   3  20
TORSDOF 7
ENDMDL
MODEL 3
REMARK VINA RESULT:      -6.6      3.644      5.279
REMARK  Name = 
REMARK  7 active torsions:
REMARK  status: ('A' for Active; 'I' for Inactive)
REMARK    1  A    between atoms: N_1  and  N_2
REMARK    2  A    between atoms: C_3  and  C_5
REMARK    3  A    between atoms: N_7  and  C_8
REMARK    4  A    between atoms: C_8  and  O_9
REMARK    5  A    between atoms: O_9  and  C_10
REMARK    6  A    between atoms: C_10  and  C_11
REMARK    7  A    between atoms: C_11  and  O_12
REMARK                            x       y       z     vdW  Elec       q    Type
REMARK                         _______ _______ _______ _____ _____    ______ ____
ROOT
ATOM      1  C   UNL     1       5.579   4.415  16.296  0.00  0.00    +0.000 A 
ATOM      2  C   UNL     1       4.666   3.556  16.893  0.00  0.00    +0.000 A 
ATOM      3  N   UNL     1       4.865   3.589  18.255  0.00  0.00    +0.000 N 
ATOM      4  C   UNL     1       5.853   4.493  18.552  0.00  0.00    +0.000 A 
ATOM      5  N   UNL     1       6.286   4.798  19.788  0.00  0.00    +0.000 NA
ATOM      6  C   UNL     1       7.270   5.714  19.752  0.00  0.00    +0.000 A 
ATOM      7  N   UNL     1       7.807   6.319  18.677  0.00  0.00    +0.000 NA
ATOM      8  C   UNL     1       7.332   5.996  17.458  0.00  0.00    +0.000 A 
ATOM      9  N   UNL     1       7.870   6.661  16.367  0.00  0.00    +0.000 N 
ATOM     10  C   UNL     1       6.321   5.028  17.359  0.00  0.00    +0.000 A 
ATOM     11  H   UNL     1       8.771   7.067  16.581  0.00  0.00    +0.000 HD
ATOM     12  H   UNL     1       7.806   6.152  15.485  0.00  0.00    +0.000 HD
ENDROOT
BRANCH   1  14
ATOM     13  N   UNL     1       6.138   3.453  14.177  0.00  0.00    +0.000 N 
ATOM     14  C   UNL     1       5.779   4.612  14.863  0.00  0.00    +0.000 C 
ATOM     15  O   UNL     1       5.629   5.705  14.324  0.00  0.00    +0.000 OA
ATOM     16  H   UNL     1       5.988   2.561  14.645  0.00  0.00    +0.000 HD
BRANCH  13  17
ATOM     17  N   UNL     1       6.252   3.469  12.768  0.00  0.00    +0.000 NA
ATOM     18  H   UNL     1       6.485   4.413  12.458  0.00  0.00    +0.000 HD
ATOM     19  H   UNL     1       5.315   3.275  12.386  0.00  0.00    +0.000 HD
ENDBRANCH  13  17
ENDBRANCH   1  14
BRANCH   3  20
ATOM     20  C   UNL     1       4.111   2.819  19.229  0.00  0.00    +0.000 C 
BRANCH  20  21
ATOM     21  O   UNL     1       2.826   3.424  19.397  0.00  0.00    +0.000 OA
BRANCH  21  22
ATOM     22  C   UNL     1       1.886   2.479  19.923  0.00  0.00    +0.000 C 
BRANCH  22  23
ATOM     23  C   UNL     1       1.357   2.995  21.257  0.00  0.00    +0.000 C 
BRANCH  23  24
ATOM     24  O   UNL     1       2.392   2.978  22.236  0.00  0.00    +0.000 OA
ATOM     25  H   UNL     1       1.979   2.645  23.056  0.00  0.00    +0.000 HD
ENDBRANCH  23  24
ENDBRANCH  22  23
ENDBRANCH  21  22
ENDBRANCH  20  21
ENDBRANCH   3  20
TORSDOF 7
ENDMDL
MODEL 4
REMARK VINA RESULT:      -6.5      1.506      1.536
REMARK  Name = 
REMARK  7 active torsions:
REMARK  status: ('A' for Active; 'I' for Inactive)
REMARK    1  A    between atoms: N_1  and  N_2
REMARK    2  A    between atoms: C_3  and  C_5
REMARK    3  A    between atoms: N_7  and  C_8
REMARK    4  A    between atoms: C_8  and  O_9
REMARK    5  A    between atoms: O_9  and  C_10
REMARK    6  A    between atoms: C_10  and  C_11
REMARK    7  A    between atoms: C_11  and  O_12
REMARK                            x       y       z     vdW  Elec       q    Type
REMARK                         _______ _______ _______ _____ _____    ______ ____
ROOT
ATOM      1  C   UNL     1       4.894   5.169  18.790  0.00  0.00    +0.000 A 
ATOM      2  C   UNL     1       4.256   6.333  18.385  0.00  0.00    +0.000 A 
ATOM      3  N   UNL     1       2.905   6.083  18.307  0.00  0.00    +0.000 N 
ATOM      4  C   UNL     1       2.653   4.795  18.706  0.00  0.00    +0.000 A 
ATOM      5  N   UNL     1       1.438   4.223  18.780  0.00  0.00    +0.000 NA
ATOM      6  C   UNL     1       1.520   2.948  19.197  0.00  0.00    +0.000 A 
ATOM      7  N   UNL     1       2.619   2.250  19.538  0.00  0.00    +0.000 NA
ATOM      8  C   UNL     1       3.815   2.867  19.466  0.00  0.00    +0.000 A 
ATOM      9  N   UNL     1       4.930   2.145  19.861  0.00  0.00    +0.000 N 
ATOM     10  C   UNL     1       3.867   4.195  19.015  0.00  0.00    +0.000 A 
ATOM     11  H   UNL     1       4.758   1.148  19.847  0.00  0.00    +0.000 HD
ATOM     12  H   UNL     1       5.808   2.453  19.442  0.00  0.00    +0.000 HD
ENDROOT
BRANCH   1  14
ATOM     13  N   UNL     1       6.900   4.278  17.835  0.00  0.00    +0.000 N 
ATOM     14  C   UNL     1       6.336   4.964  18.909  0.00  0.00    +0.000 C 
ATOM     15  O   UNL     1       6.979   5.376  19.870  0.00  0.00    +0.000 OA
ATOM     16  H   UNL     1       6.353   4.206  16.980  0.00  0.00    +0.000 HD
BRANCH  13  17
ATOM     17  N   UNL     1       8.302   4.109  17.760  0.00  0.00    +0.000 NA
ATOM     18  H   UNL     1       8.553   3.192  18.130  0.00  0.00    +0.000 HD
ATOM     19  H   UNL     1       8.725   4.793  18.404  0.00  0.00    +0.000 HD
ENDBRANCH  13  17
ENDBRANCH   1  14
BRANCH   3  20
ATOM     20  C   UNL     1       1.896   7.051  17.910  0.00  0.00    +0.000 C 
BRANCH  20  21
ATOM     21  O   UNL     1       2.451   8.364  18.024  0.00  0.00    +0.000 OA
BRANCH  21  22
ATOM     22  C   UNL     1       1.433   9.359  17.860  0.00  0.00    +0.000 C 
BRANCH  22  23
ATOM     23  C   UNL     1       1.972  10.705  18.335  0.00  0.00    +0.000 C 
BRANCH  23  24
ATOM     24  O   UNL     1       2.542  11.419  17.242  0.00  0.00    +0.000 OA
ATOM     25  H   UNL     1       3.165  12.060  17.637  0.00  0.00    +0.000 HD
ENDBRANCH  23  24
ENDBRANCH  22  23
ENDBRANCH  21  22
ENDBRANCH  20  21
ENDBRANCH   3  20
TORSDOF 7
ENDMDL
MODEL 5
REMARK VINA RESULT:      -6.5      1.134      1.134
REMARK  Name = 
REMARK  7 active torsions:
REMARK  status: ('A' for Active; 'I' for Inactive)
REMARK    1  A    between atoms: N_1  and  N_2
REMARK    2  A    between atoms: C_3  and  C_5
REMARK    3  A    between atoms: N_7  and  C_8
REMARK    4  A    between atoms: C_8  and  O_9
REMARK    5  A    between atoms: O_9  and  C_10
REMARK    6  A    between atoms: C_10  and  C_11
REMARK    7  A    between atoms: C_11  and  O_12
REMARK                            x       y       z     vdW  Elec       q    Type
REMARK                         _______ _______ _______ _____ _____    ______ ____
ROOT
ATOM      1  C   UNL     1       4.483   4.902  18.701  0.00  0.00    +0.000 A 
ATOM      2  C   UNL     1       3.868   6.144  18.785  0.00  0.00    +0.000 A 
ATOM      3  N   UNL     1       2.855   6.066  19.712  0.00  0.00    +0.000 N 
ATOM      4  C   UNL     1       2.837   4.811  20.267  0.00  0.00    +0.000 A 
ATOM      5  N   UNL     1       1.993   4.394  21.228  0.00  0.00    +0.000 NA
ATOM      6  C   UNL     1       2.220   3.110  21.558  0.00  0.00    +0.000 A 
ATOM      7  N   UNL     1       3.153   2.275  21.065  0.00  0.00    +0.000 NA
ATOM      8  C   UNL     1       3.990   2.740  20.116  0.00  0.00    +0.000 A 
ATOM      9  N   UNL     1       4.970   1.877  19.653  0.00  0.00    +0.000 N 
ATOM     10  C   UNL     1       3.836   4.060  19.664  0.00  0.00    +0.000 A 
ATOM     11  H   UNL     1       4.741   0.910  19.841  0.00  0.00    +0.000 HD
ATOM     12  H   UNL     1       5.307   2.082  18.711  0.00  0.00    +0.000 HD
ENDROOT
BRANCH   1  14
ATOM     13  N   UNL     1       6.820   4.544  18.330  0.00  0.00    +0.000 N 
ATOM     14  C   UNL     1       5.543   4.517  17.773  0.00  0.00    +0.000 C 
ATOM     15  O   UNL     1       5.311   4.191  16.613  0.00  0.00    +0.000 OA
ATOM     16  H   UNL     1       6.893   4.572  19.345  0.00  0.00    +0.000 HD
BRANCH  13  17
ATOM     17  N   UNL     1       7.930   4.086  17.583  0.00  0.00    +0.000 NA
ATOM     18  H   UNL     1       7.676   4.033  16.597  0.00  0.00    +0.000 HD
ATOM     19  H   UNL     1       8.111   3.114  17.875  0.00  0.00    +0.000 HD
ENDBRANCH  13  17
ENDBRANCH   1  14
BRANCH   3  20
ATOM     20  C   UNL     1       1.971   7.159  20.080  0.00  0.00    +0.000 C 
BRANCH  20  21
ATOM     21  O   UNL     1       2.084   8.191  19.097  0.00  0.00    +0.000 OA
BRANCH  21  22
ATOM     22  C   UNL     1       1.146   9.242  19.356  0.00  0.00    +0.000 C 
BRANCH  22  23
ATOM     23  C   UNL     1       1.534  10.468  18.536  0.00  0.00    +0.000 C 
BRANCH  23  24
ATOM     24  O   UNL     1       2.019  10.071  17.256  0.00  0.00    +0.000 OA
ATOM     25  H   UNL     1       1.554   9.240  17.040  0.00  0.00    +0.000 HD
ENDBRANCH  23  24
ENDBRANCH  22  23
ENDBRANCH  21  22
ENDBRANCH  20  21
ENDBRANCH   3  20
TORSDOF 7
ENDMDL
MODEL 6
REMARK VINA RESULT:      -6.5      2.874      4.800
REMARK  Name = 
REMARK  7 active torsions:
REMARK  status: ('A' for Active; 'I' for Inactive)
REMARK    1  A    between atoms: N_1  and  N_2
REMARK    2  A    between atoms: C_3  and  C_5
REMARK    3  A    between atoms: N_7  and  C_8
REMARK    4  A    between atoms: C_8  and  O_9
REMARK    5  A    between atoms: O_9  and  C_10
REMARK    6  A    between atoms: C_10  and  C_11
REMARK    7  A    between atoms: C_11  and  O_12
REMARK                            x       y       z     vdW  Elec       q    Type
REMARK                         _______ _______ _______ _____ _____    ______ ____
ROOT
ATOM      1  C   UNL     1       5.537   4.387  16.286  0.00  0.00    +0.000 A 
ATOM      2  C   UNL     1       4.619   3.531  16.879  0.00  0.00    +0.000 A 
ATOM      3  N   UNL     1       4.806   3.568  18.241  0.00  0.00    +0.000 N 
ATOM      4  C   UNL     1       5.792   4.473  18.543  0.00  0.00    +0.000 A 
ATOM      5  N   UNL     1       6.215   4.783  19.782  0.00  0.00    +0.000 NA
ATOM      6  C   UNL     1       7.199   5.698  19.751  0.00  0.00    +0.000 A 
ATOM      7  N   UNL     1       7.746   6.299  18.678  0.00  0.00    +0.000 NA
ATOM      8  C   UNL     1       7.280   5.971  17.457  0.00  0.00    +0.000 A 
ATOM      9  N   UNL     1       7.828   6.632  16.368  0.00  0.00    +0.000 N 
ATOM     10  C   UNL     1       6.270   5.003  17.353  0.00  0.00    +0.000 A 
ATOM     11  H   UNL     1       8.728   7.039  16.587  0.00  0.00    +0.000 HD
ATOM     12  H   UNL     1       7.771   6.120  15.487  0.00  0.00    +0.000 HD
ENDROOT
BRANCH   1  14
ATOM     13  N   UNL     1       6.130   3.421  14.178  0.00  0.00    +0.000 N 
ATOM     14  C   UNL     1       5.749   4.579  14.854  0.00  0.00    +0.000 C 
ATOM     15  O   UNL     1       5.590   5.667  14.307  0.00  0.00    +0.000 OA
ATOM     16  H   UNL     1       5.986   2.530  14.649  0.00  0.00    +0.000 HD
BRANCH  13  17
ATOM     17  N   UNL     1       6.258   3.430  12.770  0.00  0.00    +0.000 NA
ATOM     18  H   UNL     1       7.229   3.246  12.517  0.00  0.00    +0.000 HD
ATOM     19  H   UNL     1       6.067   4.393  12.455  0.00  0.00    +0.000 HD
ENDBRANCH  13  17
ENDBRANCH   1  14
BRANCH   3  20
ATOM     20  C   UNL     1       4.043   2.802  19.212  0.00  0.00    +0.000 C 
BRANCH  20  21
ATOM     21  O   UNL     1       2.722   3.343  19.287  0.00  0.00    +0.000 OA
BRANCH  21  22
ATOM     22  C   UNL     1       2.408   3.727  20.632  0.00  0.00    +0.000 C 
BRANCH  22  23
ATOM     23  C   UNL     1       2.080   5.216  20.660  0.00  0.00    +0.000 C 
BRANCH  23  24
ATOM     24  O   UNL     1       3.199   5.975  20.213  0.00  0.00    +0.000 OA
ATOM     25  H   UNL     1       3.950   5.352  20.181  0.00  0.00    +0.000 HD
ENDBRANCH  23  24
ENDBRANCH  22  23
ENDBRANCH  21  22
ENDBRANCH  20  21
ENDBRANCH   3  20
TORSDOF 7
ENDMDL
MODEL 7
REMARK VINA RESULT:      -6.4      2.269      5.195
REMARK  Name = 
REMARK  7 active torsions:
REMARK  status: ('A' for Active; 'I' for Inactive)
REMARK    1  A    between atoms: N_1  and  N_2
REMARK    2  A    between atoms: C_3  and  C_5
REMARK    3  A    between atoms: N_7  and  C_8
REMARK    4  A    between atoms: C_8  and  O_9
REMARK    5  A    between atoms: O_9  and  C_10
REMARK    6  A    between atoms: C_10  and  C_11
REMARK    7  A    between atoms: C_11  and  O_12
REMARK                            x       y       z     vdW  Elec       q    Type
REMARK                         _______ _______ _______ _____ _____    ______ ____
ROOT
ATOM      1  C   UNL     1       3.232   6.472  18.368  0.00  0.00    +0.000 A 
ATOM      2  C   UNL     1       4.208   6.359  17.386  0.00  0.00    +0.000 A 
ATOM      3  N   UNL     1       4.755   5.099  17.461  0.00  0.00    +0.000 N 
ATOM      4  C   UNL     1       4.115   4.378  18.437  0.00  0.00    +0.000 A 
ATOM      5  N   UNL     1       4.376   3.099  18.761  0.00  0.00    +0.000 NA
ATOM      6  C   UNL     1       3.587   2.675  19.763  0.00  0.00    +0.000 A 
ATOM      7  N   UNL     1       2.622   3.355  20.410  0.00  0.00    +0.000 NA
ATOM      8  C   UNL     1       2.382   4.629  20.041  0.00  0.00    +0.000 A 
ATOM      9  N   UNL     1       1.356   5.298  20.690  0.00  0.00    +0.000 N 
ATOM     10  C   UNL     1       3.161   5.199  19.022  0.00  0.00    +0.000 A 
ATOM     11  H   UNL     1       1.128   4.868  21.577  0.00  0.00    +0.000 HD
ATOM     12  H   UNL     1       1.448   6.315  20.697  0.00  0.00    +0.000 HD
ENDROOT
BRANCH   1  14
ATOM     13  N   UNL     1       2.208   8.499  17.611  0.00  0.00    +0.000 N 
ATOM     14  C   UNL     1       2.470   7.672  18.702  0.00  0.00    +0.000 C 
ATOM     15  O   UNL     1       2.092   7.911  19.845  0.00  0.00    +0.000 OA
ATOM     16  H   UNL     1       2.328   8.105  16.680  0.00  0.00    +0.000 HD
BRANCH  13  17
ATOM     17  N   UNL     1       1.382   9.636  17.764  0.00  0.00    +0.000 NA
ATOM     18  H   UNL     1       1.920  10.391  18.189  0.00  0.00    +0.000 HD
ATOM     19  H   UNL     1       0.655   9.392  18.453  0.00  0.00    +0.000 HD
ENDBRANCH  13  17
ENDBRANCH   1  14
BRANCH   3  20
ATOM     20  C   UNL     1       5.815   4.596  16.604  0.00  0.00    +0.000 C 
BRANCH  20  21
ATOM     21  O   UNL     1       7.008   5.340  16.864  0.00  0.00    +0.000 OA
BRANCH  21  22
ATOM     22  C   UNL     1       7.669   4.846  18.035  0.00  0.00    +0.000 C 
BRANCH  22  23
ATOM     23  C   UNL     1       7.787   5.975  19.053  0.00  0.00    +0.000 C 
BRANCH  23  24
ATOM     24  O   UNL     1       7.924   5.440  20.367  0.00  0.00    +0.000 OA
ATOM     25  H   UNL     1       8.596   5.992  20.811  0.00  0.00    +0.000 HD
ENDBRANCH  23  24
ENDBRANCH  22  23
ENDBRANCH  21  22
ENDBRANCH  20  21
ENDBRANCH   3  20
TORSDOF 7
ENDMDL
MODEL 8
REMARK VINA RESULT:      -6.4      2.534      4.301
REMARK  Name = 
REMARK  7 active torsions:
REMARK  status: ('A' for Active; 'I' for Inactive)
REMARK    1  A    between atoms: N_1  and  N_2
REMARK    2  A    between atoms: C_3  and  C_5
REMARK    3  A    between atoms: N_7  and  C_8
REMARK    4  A    between atoms: C_8  and  O_9
REMARK    5  A    between atoms: O_9  and  C_10
REMARK    6  A    between atoms: C_10  and  C_11
REMARK    7  A    between atoms: C_11  and  O_12
REMARK                            x       y       z     vdW  Elec       q    Type
REMARK                         _______ _______ _______ _____ _____    ______ ____
ROOT
ATOM      1  C   UNL     1       4.714   4.780  18.418  0.00  0.00    +0.000 A 
ATOM      2  C   UNL     1       4.167   4.079  19.483  0.00  0.00    +0.000 A 
ATOM      3  N   UNL     1       3.164   4.842  20.037  0.00  0.00    +0.000 N 
ATOM      4  C   UNL     1       3.019   6.000  19.316  0.00  0.00    +0.000 A 
ATOM      5  N   UNL     1       2.113   6.963  19.561  0.00  0.00    +0.000 NA
ATOM      6  C   UNL     1       2.225   7.977  18.685  0.00  0.00    +0.000 A 
ATOM      7  N   UNL     1       3.082   8.099  17.655  0.00  0.00    +0.000 NA
ATOM      8  C   UNL     1       3.962   7.101  17.435  0.00  0.00    +0.000 A 
ATOM      9  N   UNL     1       4.807   7.227  16.343  0.00  0.00    +0.000 N 
ATOM     10  C   UNL     1       3.965   5.997  18.300  0.00  0.00    +0.000 A 
ATOM     11  H   UNL     1       4.888   8.187  16.038  0.00  0.00    +0.000 HD
ATOM     12  H   UNL     1       5.682   6.707  16.422  0.00  0.00    +0.000 HD
ENDROOT
BRANCH   1  14
ATOM     13  N   UNL     1       7.083   4.464  18.283  0.00  0.00    +0.000 N 
ATOM     14  C   UNL     1       5.865   4.380  17.612  0.00  0.00    +0.000 C 
ATOM     15  O   UNL     1       5.750   3.995  16.452  0.00  0.00    +0.000 OA
ATOM     16  H   UNL     1       7.060   4.540  19.298  0.00  0.00    +0.000 HD
BRANCH  13  17
ATOM     17  N   UNL     1       8.267   4.000  17.666  0.00  0.00    +0.000 NA
ATOM     18  H   UNL     1       8.079   3.115  17.194  0.00  0.00    +0.000 HD
ATOM     19  H   UNL     1       8.934   3.776  18.419  0.00  0.00    +0.000 HD
ENDBRANCH  13  17
ENDBRANCH   1  14
BRANCH   3  20
ATOM     20  C   UNL     1       2.354   4.456  21.180  0.00  0.00    +0.000 C 
BRANCH  20  21
ATOM     21  O   UNL     1       1.080   4.010  20.709  0.00  0.00    +0.000 OA
BRANCH  21  22
ATOM     22  C   UNL     1       1.120   2.615  20.384  0.00  0.00    +0.000 C 
BRANCH  22  23
ATOM     23  C   UNL     1       0.830   2.443  18.896  0.00  0.00    +0.000 C 
BRANCH  23  24
ATOM     24  O   UNL     1       1.864   1.681  18.279  0.00  0.00    +0.000 OA
ATOM     25  H   UNL     1       2.249   1.129  18.986  0.00  0.00    +0.000 HD
ENDBRANCH  23  24
ENDBRANCH  22  23
ENDBRANCH  21  22
ENDBRANCH  20  21
ENDBRANCH   3  20
TORSDOF 7
ENDMDL
MODEL 9
REMARK VINA RESULT:      -6.4      3.615      5.083
REMARK  Name = 
REMARK  7 active torsions:
REMARK  status: ('A' for Active; 'I' for Inactive)
REMARK    1  A    between atoms: N_1  and  N_2
REMARK    2  A    between atoms: C_3  and  C_5
REMARK    3  A    between atoms: N_7  and  C_8
REMARK    4  A    between atoms: C_8  and  O_9
REMARK    5  A    between atoms: O_9  and  C_10
REMARK    6  A    between atoms: C_10  and  C_11
REMARK    7  A    between atoms: C_11  and  O_12
REMARK                            x       y       z     vdW  Elec       q    Type
REMARK                         _______ _______ _______ _____ _____    ______ ____
ROOT
ATOM      1  C   UNL     1       5.546   4.431  16.407  0.00  0.00    +0.000 A 
ATOM      2  C   UNL     1       4.643   3.590  17.043  0.00  0.00    +0.000 A 
ATOM      3  N   UNL     1       4.881   3.642  18.398  0.00  0.00    +0.000 N 
ATOM      4  C   UNL     1       5.886   4.541  18.652  0.00  0.00    +0.000 A 
ATOM      5  N   UNL     1       6.356   4.861  19.871  0.00  0.00    +0.000 NA
ATOM      6  C   UNL     1       7.347   5.766  19.793  0.00  0.00    +0.000 A 
ATOM      7  N   UNL     1       7.860   6.349  18.693  0.00  0.00    +0.000 NA
ATOM      8  C   UNL     1       7.347   6.012  17.493  0.00  0.00    +0.000 A 
ATOM      9  N   UNL     1       7.860   6.654  16.377  0.00  0.00    +0.000 N 
ATOM     10  C   UNL     1       6.324   5.052  17.439  0.00  0.00    +0.000 A 
ATOM     11  H   UNL     1       8.771   7.055  16.559  0.00  0.00    +0.000 HD
ATOM     12  H   UNL     1       7.766   6.132  15.505  0.00  0.00    +0.000 HD
ENDROOT
BRANCH   1  14
ATOM     13  N   UNL     1       6.100   3.445  14.297  0.00  0.00    +0.000 N 
ATOM     14  C   UNL     1       5.707   4.603  14.966  0.00  0.00    +0.000 C 
ATOM     15  O   UNL     1       5.501   5.677  14.407  0.00  0.00    +0.000 OA
ATOM     16  H   UNL     1       5.997   2.558  14.787  0.00  0.00    +0.000 HD
BRANCH  13  17
ATOM     17  N   UNL     1       6.183   3.433  12.886  0.00  0.00    +0.000 NA
ATOM     18  H   UNL     1       5.499   4.086  12.501  0.00  0.00    +0.000 HD
ATOM     19  H   UNL     1       5.882   2.499  12.572  0.00  0.00    +0.000 HD
ENDBRANCH  13  17
ENDBRANCH   1  14
BRANCH   3  20
ATOM     20  C   UNL     1       4.147   2.895  19.405  0.00  0.00    +0.000 C 
BRANCH  20  21
ATOM     21  O   UNL     1       2.977   3.635  19.763  0.00  0.00    +0.000 OA
BRANCH  21  22
ATOM     22  C   UNL     1       1.857   2.758  19.938  0.00  0.00    +0.000 C 
BRANCH  22  23
ATOM     23  C   UNL     1       1.312   2.369  18.568  0.00  0.00    +0.000 C 
BRANCH  23  24
ATOM     24  O   UNL     1       1.123   3.531  17.766  0.00  0.00    +0.000 OA
ATOM     25  H   UNL     1       1.879   4.117  17.962  0.00  0.00    +0.000 HD
ENDBRANCH  23  24
ENDBRANCH  22  23
ENDBRANCH  21  22
ENDBRANCH  20  21
ENDBRANCH   3  20
TORSDOF 7
ENDMDL
