MODEL 1
REMARK VINA RESULT:      -7.0      0.000      0.000
REMARK  Name = 
REMARK  13 active torsions:
REMARK  status: ('A' for Active; 'I' for Inactive)
REMARK    1  A    between atoms: C_1  and  C_2
REMARK    2  A    between atoms: C_8  and  N_9
REMARK    3  A    between atoms: C_10  and  C_12
REMARK    4  A    between atoms: C_12  and  C_13
REMARK    5  A    between atoms: C_13  and  C_14
REMARK    6  A    between atoms: C_14  and  C_15
REMARK    7  A    between atoms: C_15  and  C_16
REMARK    8  A    between atoms: C_16  and  C_17
REMARK    9  A    between atoms: C_17  and  C_18
REMARK   10  A    between atoms: N_20  and  O_21
REMARK   11  A    between atoms: C_24  and  N_25
REMARK   12  A    between atoms: N_25  and  C_26
REMARK   13  A    between atoms: C_33  and  C_34
REMARK                            x       y       z     vdW  Elec       q    Type
REMARK                         _______ _______ _______ _____ _____    ______ ____
ROOT
ATOM      1  C   UNL     1      -7.422  11.664  18.963  0.00  0.00    +0.000 C 
ATOM      2  C   UNL     1      -6.022  11.153  18.788  0.00  0.00    +0.000 C 
ATOM      3  O   UNL     1      -5.955   9.987  18.424  0.00  0.00    +0.000 OA
ATOM      4  N   UNL     1      -4.928  11.991  19.065  0.00  0.00    +0.000 N 
ATOM      5  C   UNL     1      -3.578  11.549  18.733  0.00  0.00    +0.000 A 
ATOM      6  C   UNL     1      -3.422  10.547  17.775  0.00  0.00    +0.000 A 
ATOM      7  C   UNL     1      -2.167  10.043  17.426  0.00  0.00    +0.000 A 
ATOM      8  C   UNL     1      -1.019  10.538  17.994  0.00  0.00    +0.000 A 
ATOM      9  C   UNL     1      -1.133  11.582  18.927  0.00  0.00    +0.000 A 
ATOM     10  C   UNL     1      -2.413  12.091  19.313  0.00  0.00    +0.000 A 
ATOM     11  C   UNL     1      -2.509  13.266  20.285  0.00  0.00    +0.000 C 
ATOM     12  C   UNL     1      -3.929  13.375  20.846  0.00  0.00    +0.000 C 
ATOM     13  C   UNL     1      -4.982  13.322  19.736  0.00  0.00    +0.000 C 
ATOM     14  C   UNL     1      -6.311  13.706  20.389  0.00  0.00    +0.000 C 
ENDROOT
BRANCH   8  15
ATOM     15  N   UNL     1       0.256  10.022  17.626  0.00  0.00    +0.000 N 
ATOM     16  C   UNL     1       1.073   9.261  18.465  0.00  0.00    +0.000 C 
ATOM     17  O   UNL     1       0.835   8.935  19.619  0.00  0.00    +0.000 OA
ATOM     18  H   UNL     1       0.580  10.231  16.690  0.00  0.00    +0.000 HD
BRANCH  16  19
ATOM     19  C   UNL     1       2.369   8.794  17.857  0.00  0.00    +0.000 C 
BRANCH  19  20
ATOM     20  C   UNL     1       2.949   7.700  18.759  0.00  0.00    +0.000 C 
BRANCH  20  21
ATOM     21  C   UNL     1       3.053   6.332  18.091  0.00  0.00    +0.000 C 
BRANCH  21  22
ATOM     22  C   UNL     1       2.165   5.297  18.779  0.00  0.00    +0.000 C 
BRANCH  22  23
ATOM     23  C   UNL     1       1.608   4.306  17.767  0.00  0.00    +0.000 C 
BRANCH  23  24
ATOM     24  C   UNL     1       0.984   3.084  18.441  0.00  0.00    +0.000 C 
BRANCH  24  25
ATOM     25  C   UNL     1       2.060   2.135  18.932  0.00  0.00    +0.000 C 
ATOM     26  O   UNL     1       2.191   1.785  20.103  0.00  0.00    +0.000 OA
ATOM     27  N   UNL     1       2.910   1.708  17.953  0.00  0.00    +0.000 N 
ATOM     28  H   UNL     1       2.729   1.774  16.952  0.00  0.00    +0.000 HD
BRANCH  27  29
ATOM     29  O   UNL     1       3.908   0.792  18.361  0.00  0.00    +0.000 OA
ATOM     30  H   UNL     1       4.601   1.391  18.717  0.00  0.00    +0.000 HD
ENDBRANCH  27  29
ENDBRANCH  24  25
ENDBRANCH  23  24
ENDBRANCH  22  23
ENDBRANCH  21  22
ENDBRANCH  20  21
ENDBRANCH  19  20
ENDBRANCH  16  19
ENDBRANCH   8  15
BRANCH  11  31
ATOM     31  N   UNL     1      -1.538  13.160  21.394  0.00  0.00    +0.000 N 
ATOM     32  H   UNL     1      -1.638  12.290  21.912  0.00  0.00    +0.000 HD
BRANCH  31  33
ATOM     33  C   UNL     1      -1.321  14.241  22.265  0.00  0.00    +0.000 A 
ATOM     34  C   UNL     1      -1.430  14.020  23.652  0.00  0.00    +0.000 A 
ATOM     35  C   UNL     1      -1.222  15.056  24.574  0.00  0.00    +0.000 A 
ATOM     36  C   UNL     1      -0.822  16.312  24.136  0.00  0.00    +0.000 A 
ATOM     37  C   UNL     1      -0.654  16.536  22.776  0.00  0.00    +0.000 A 
ATOM     38  C   UNL     1      -0.908  15.511  21.858  0.00  0.00    +0.000 A 
ENDBRANCH  31  33
ENDBRANCH  11  31
TORSDOF 11
ENDMDL
MODEL 2
REMARK VINA RESULT:      -7.0      3.660      5.004
REMARK  Name = 
REMARK  13 active torsions:
REMARK  status: ('A' for Active; 'I' for Inactive)
REMARK    1  A    between atoms: C_1  and  C_2
REMARK    2  A    between atoms: C_8  and  N_9
REMARK    3  A    between atoms: C_10  and  C_12
REMARK    4  A    between atoms: C_12  and  C_13
REMARK    5  A    between atoms: C_13  and  C_14
REMARK    6  A    between atoms: C_14  and  C_15
REMARK    7  A    between atoms: C_15  and  C_16
REMARK    8  A    between atoms: C_16  and  C_17
REMARK    9  A    between atoms: C_17  and  C_18
REMARK   10  A    between atoms: N_20  and  O_21
REMARK   11  A    between atoms: C_24  and  N_25
REMARK   12  A    between atoms: N_25  and  C_26
REMARK   13  A    between atoms: C_33  and  C_34
REMARK                            x       y       z     vdW  Elec       q    Type
REMARK                         _______ _______ _______ _____ _____    ______ ____
ROOT
ATOM      1  C   UNL     1      -2.466  11.988  23.527  0.00  0.00    +0.000 C 
ATOM      2  C   UNL     1      -1.388  11.253  22.786  0.00  0.00    +0.000 C 
ATOM      3  O   UNL     1      -0.708  10.519  23.488  0.00  0.00    +0.000 OA
ATOM      4  N   UNL     1      -1.214  11.465  21.407  0.00  0.00    +0.000 N 
ATOM      5  C   UNL     1      -0.282  10.627  20.660  0.00  0.00    +0.000 A 
ATOM      6  C   UNL     1       0.075   9.388  21.194  0.00  0.00    +0.000 A 
ATOM      7  C   UNL     1       0.988   8.542  20.561  0.00  0.00    +0.000 A 
ATOM      8  C   UNL     1       1.558   8.883  19.359  0.00  0.00    +0.000 A 
ATOM      9  C   UNL     1       1.186  10.101  18.767  0.00  0.00    +0.000 A 
ATOM     10  C   UNL     1       0.271  10.989  19.415  0.00  0.00    +0.000 A 
ATOM     11  C   UNL     1      -0.162  12.281  18.725  0.00  0.00    +0.000 C 
ATOM     12  C   UNL     1      -0.805  13.233  19.737  0.00  0.00    +0.000 C 
ATOM     13  C   UNL     1      -1.864  12.526  20.586  0.00  0.00    +0.000 C 
ATOM     14  C   UNL     1      -2.604  13.626  21.350  0.00  0.00    +0.000 C 
ENDROOT
BRANCH   8  15
ATOM     15  N   UNL     1       2.482   8.010  18.719  0.00  0.00    +0.000 N 
ATOM     16  C   UNL     1       2.683   6.673  19.071  0.00  0.00    +0.000 C 
ATOM     17  O   UNL     1       2.120   6.061  19.967  0.00  0.00    +0.000 OA
ATOM     18  H   UNL     1       3.027   8.400  17.960  0.00  0.00    +0.000 HD
BRANCH  16  19
ATOM     19  C   UNL     1       3.692   5.929  18.238  0.00  0.00    +0.000 C 
BRANCH  19  20
ATOM     20  C   UNL     1       4.607   5.149  19.186  0.00  0.00    +0.000 C 
BRANCH  20  21
ATOM     21  C   UNL     1       6.092   5.451  19.008  0.00  0.00    +0.000 C 
BRANCH  21  22
ATOM     22  C   UNL     1       6.683   4.706  17.813  0.00  0.00    +0.000 C 
BRANCH  22  23
ATOM     23  C   UNL     1       5.848   4.941  16.563  0.00  0.00    +0.000 C 
BRANCH  23  24
ATOM     24  C   UNL     1       5.972   3.793  15.562  0.00  0.00    +0.000 C 
BRANCH  24  25
ATOM     25  C   UNL     1       6.676   4.254  14.301  0.00  0.00    +0.000 C 
ATOM     26  O   UNL     1       7.479   5.184  14.258  0.00  0.00    +0.000 OA
ATOM     27  N   UNL     1       6.322   3.556  13.182  0.00  0.00    +0.000 N 
ATOM     28  H   UNL     1       5.850   2.653  13.182  0.00  0.00    +0.000 HD
BRANCH  27  29
ATOM     29  O   UNL     1       6.982   3.930  11.988  0.00  0.00    +0.000 OA
ATOM     30  H   UNL     1       7.156   3.058  11.570  0.00  0.00    +0.000 HD
ENDBRANCH  27  29
ENDBRANCH  24  25
ENDBRANCH  23  24
ENDBRANCH  22  23
ENDBRANCH  21  22
ENDBRANCH  20  21
ENDBRANCH  19  20
ENDBRANCH  16  19
ENDBRANCH   8  15
BRANCH  11  31
ATOM     31  N   UNL     1       0.959  12.958  18.041  0.00  0.00    +0.000 N 
ATOM     32  H   UNL     1       1.491  12.323  17.451  0.00  0.00    +0.000 HD
BRANCH  31  33
ATOM     33  C   UNL     1       1.812  13.825  18.744  0.00  0.00    +0.000 A 
ATOM     34  C   UNL     1       1.730  15.207  18.484  0.00  0.00    +0.000 A 
ATOM     35  C   UNL     1       2.551  16.125  19.154  0.00  0.00    +0.000 A 
ATOM     36  C   UNL     1       3.412  15.693  20.154  0.00  0.00    +0.000 A 
ATOM     37  C   UNL     1       3.468  14.341  20.465  0.00  0.00    +0.000 A 
ATOM     38  C   UNL     1       2.680  13.424  19.762  0.00  0.00    +0.000 A 
ENDBRANCH  31  33
ENDBRANCH  11  31
TORSDOF 11
ENDMDL
MODEL 3
REMARK VINA RESULT:      -6.9      3.101      4.312
REMARK  Name = 
REMARK  13 active torsions:
REMARK  status: ('A' for Active; 'I' for Inactive)
REMARK    1  A    between atoms: C_1  and  C_2
REMARK    2  A    between atoms: C_8  and  N_9
REMARK    3  A    between atoms: C_10  and  C_12
REMARK    4  A    between atoms: C_12  and  C_13
REMARK    5  A    between atoms: C_13  and  C_14
REMARK    6  A    between atoms: C_14  and  C_15
REMARK    7  A    between atoms: C_15  and  C_16
REMARK    8  A    between atoms: C_16  and  C_17
REMARK    9  A    between atoms: C_17  and  C_18
REMARK   10  A    between atoms: N_20  and  O_21
REMARK   11  A    between atoms: C_24  and  N_25
REMARK   12  A    between atoms: N_25  and  C_26
REMARK   13  A    between atoms: C_33  and  C_34
REMARK                            x       y       z     vdW  Elec       q    Type
REMARK                         _______ _______ _______ _____ _____    ______ ____
ROOT
ATOM      1  C   UNL     1      -2.357  11.964  23.578  0.00  0.00    +0.000 C 
ATOM      2  C   UNL     1      -1.286  11.269  22.789  0.00  0.00    +0.000 C 
ATOM      3  O   UNL     1      -0.552  10.557  23.459  0.00  0.00    +0.000 OA
ATOM      4  N   UNL     1      -1.178  11.490  21.405  0.00  0.00    +0.000 N 
ATOM      5  C   UNL     1      -0.249  10.686  20.616  0.00  0.00    +0.000 A 
ATOM      6  C   UNL     1       0.172   9.459  21.129  0.00  0.00    +0.000 A 
ATOM      7  C   UNL     1       1.086   8.647  20.455  0.00  0.00    +0.000 A 
ATOM      8  C   UNL     1       1.592   9.010  19.232  0.00  0.00    +0.000 A 
ATOM      9  C   UNL     1       1.154  10.217  18.660  0.00  0.00    +0.000 A 
ATOM     10  C   UNL     1       0.238  11.071  19.350  0.00  0.00    +0.000 A 
ATOM     11  C   UNL     1      -0.269  12.348  18.684  0.00  0.00    +0.000 C 
ATOM     12  C   UNL     1      -0.901  13.275  19.726  0.00  0.00    +0.000 C 
ATOM     13  C   UNL     1      -1.899  12.529  20.616  0.00  0.00    +0.000 C 
ATOM     14  C   UNL     1      -2.643  13.601  21.415  0.00  0.00    +0.000 C 
ENDROOT
BRANCH   8  15
ATOM     15  N   UNL     1       2.519   8.172  18.550  0.00  0.00    +0.000 N 
ATOM     16  C   UNL     1       2.659   6.800  18.774  0.00  0.00    +0.000 C 
ATOM     17  O   UNL     1       2.033   6.123  19.576  0.00  0.00    +0.000 OA
ATOM     18  H   UNL     1       3.113   8.615  17.860  0.00  0.00    +0.000 HD
BRANCH  16  19
ATOM     19  C   UNL     1       3.683   6.106  17.917  0.00  0.00    +0.000 C 
BRANCH  19  20
ATOM     20  C   UNL     1       3.042   4.837  17.347  0.00  0.00    +0.000 C 
BRANCH  20  21
ATOM     21  C   UNL     1       4.017   3.678  17.155  0.00  0.00    +0.000 C 
BRANCH  21  22
ATOM     22  C   UNL     1       3.565   2.427  17.906  0.00  0.00    +0.000 C 
BRANCH  22  23
ATOM     23  C   UNL     1       4.414   2.208  19.150  0.00  0.00    +0.000 C 
BRANCH  23  24
ATOM     24  C   UNL     1       4.114   3.235  20.241  0.00  0.00    +0.000 C 
BRANCH  24  25
ATOM     25  C   UNL     1       2.827   2.888  20.965  0.00  0.00    +0.000 C 
ATOM     26  O   UNL     1       2.778   2.298  22.043  0.00  0.00    +0.000 OA
ATOM     27  N   UNL     1       1.697   3.268  20.299  0.00  0.00    +0.000 N 
ATOM     28  H   UNL     1       1.668   3.943  19.536  0.00  0.00    +0.000 HD
BRANCH  27  29
ATOM     29  O   UNL     1       0.474   2.996  20.956  0.00  0.00    +0.000 OA
ATOM     30  H   UNL     1      -0.184   3.226  20.264  0.00  0.00    +0.000 HD
ENDBRANCH  27  29
ENDBRANCH  24  25
ENDBRANCH  23  24
ENDBRANCH  22  23
ENDBRANCH  21  22
ENDBRANCH  20  21
ENDBRANCH  19  20
ENDBRANCH  16  19
ENDBRANCH   8  15
BRANCH  11  31
ATOM     31  N   UNL     1       0.798  13.066  17.956  0.00  0.00    +0.000 N 
ATOM     32  H   UNL     1       1.315  12.455  17.328  0.00  0.00    +0.000 HD
BRANCH  31  33
ATOM     33  C   UNL     1       1.664  13.943  18.630  0.00  0.00    +0.000 A 
ATOM     34  C   UNL     1       1.441  15.329  18.515  0.00  0.00    +0.000 A 
ATOM     35  C   UNL     1       2.266  16.257  19.166  0.00  0.00    +0.000 A 
ATOM     36  C   UNL     1       3.281  15.821  20.008  0.00  0.00    +0.000 A 
ATOM     37  C   UNL     1       3.482  14.458  20.179  0.00  0.00    +0.000 A 
ATOM     38  C   UNL     1       2.684  13.537  19.492  0.00  0.00    +0.000 A 
ENDBRANCH  31  33
ENDBRANCH  11  31
TORSDOF 11
ENDMDL
MODEL 4
REMARK VINA RESULT:      -6.9      2.851      3.786
REMARK  Name = 
REMARK  13 active torsions:
REMARK  status: ('A' for Active; 'I' for Inactive)
REMARK    1  A    between atoms: C_1  and  C_2
REMARK    2  A    between atoms: C_8  and  N_9
REMARK    3  A    between atoms: C_10  and  C_12
REMARK    4  A    between atoms: C_12  and  C_13
REMARK    5  A    between atoms: C_13  and  C_14
REMARK    6  A    between atoms: C_14  and  C_15
REMARK    7  A    between atoms: C_15  and  C_16
REMARK    8  A    between atoms: C_16  and  C_17
REMARK    9  A    between atoms: C_17  and  C_18
REMARK   10  A    between atoms: N_20  and  O_21
REMARK   11  A    between atoms: C_24  and  N_25
REMARK   12  A    between atoms: N_25  and  C_26
REMARK   13  A    between atoms: C_33  and  C_34
REMARK                            x       y       z     vdW  Elec       q    Type
REMARK                         _______ _______ _______ _____ _____    ______ ____
ROOT
ATOM      1  C   UNL     1      -2.797  12.021  23.780  0.00  0.00    +0.000 C 
ATOM      2  C   UNL     1      -1.726  11.483  22.876  0.00  0.00    +0.000 C 
ATOM      3  O   UNL     1      -0.828  10.893  23.459  0.00  0.00    +0.000 OA
ATOM      4  N   UNL     1      -1.802  11.704  21.490  0.00  0.00    +0.000 N 
ATOM      5  C   UNL     1      -0.855  11.038  20.601  0.00  0.00    +0.000 A 
ATOM      6  C   UNL     1      -0.206   9.891  21.058  0.00  0.00    +0.000 A 
ATOM      7  C   UNL     1       0.740   9.215  20.284  0.00  0.00    +0.000 A 
ATOM      8  C   UNL     1       1.053   9.637  19.016  0.00  0.00    +0.000 A 
ATOM      9  C   UNL     1       0.384  10.760  18.502  0.00  0.00    +0.000 A 
ATOM     10  C   UNL     1      -0.569  11.477  19.292  0.00  0.00    +0.000 A 
ATOM     11  C   UNL     1      -1.327  12.660  18.693  0.00  0.00    +0.000 C 
ATOM     12  C   UNL     1      -1.972  13.494  19.802  0.00  0.00    +0.000 C 
ATOM     13  C   UNL     1      -2.748  12.619  20.790  0.00  0.00    +0.000 C 
ATOM     14  C   UNL     1      -3.551  13.578  21.671  0.00  0.00    +0.000 C 
ENDROOT
BRANCH   8  15
ATOM     15  N   UNL     1       2.014   8.937  18.233  0.00  0.00    +0.000 N 
ATOM     16  C   UNL     1       2.591   7.717  18.593  0.00  0.00    +0.000 C 
ATOM     17  O   UNL     1       2.376   7.080  19.614  0.00  0.00    +0.000 OA
ATOM     18  H   UNL     1       2.290   9.367  17.359  0.00  0.00    +0.000 HD
BRANCH  16  19
ATOM     19  C   UNL     1       3.564   7.142  17.597  0.00  0.00    +0.000 C 
BRANCH  19  20
ATOM     20  C   UNL     1       3.979   5.752  18.089  0.00  0.00    +0.000 C 
BRANCH  20  21
ATOM     21  C   UNL     1       3.434   4.604  17.244  0.00  0.00    +0.000 C 
BRANCH  21  22
ATOM     22  C   UNL     1       3.760   3.244  17.857  0.00  0.00    +0.000 C 
BRANCH  22  23
ATOM     23  C   UNL     1       2.575   2.298  17.735  0.00  0.00    +0.000 C 
BRANCH  23  24
ATOM     24  C   UNL     1       1.536   2.532  18.831  0.00  0.00    +0.000 C 
BRANCH  24  25
ATOM     25  C   UNL     1       2.189   3.104  20.075  0.00  0.00    +0.000 C 
ATOM     26  O   UNL     1       2.994   2.493  20.776  0.00  0.00    +0.000 OA
ATOM     27  N   UNL     1       1.785   4.371  20.380  0.00  0.00    +0.000 N 
ATOM     28  H   UNL     1       1.309   5.003  19.738  0.00  0.00    +0.000 HD
BRANCH  27  29
ATOM     29  O   UNL     1       2.396   4.957  21.513  0.00  0.00    +0.000 OA
ATOM     30  H   UNL     1       2.218   5.913  21.370  0.00  0.00    +0.000 HD
ENDBRANCH  27  29
ENDBRANCH  24  25
ENDBRANCH  23  24
ENDBRANCH  22  23
ENDBRANCH  21  22
ENDBRANCH  20  21
ENDBRANCH  19  20
ENDBRANCH  16  19
ENDBRANCH   8  15
BRANCH  11  31
ATOM     31  N   UNL     1      -0.461  13.520  17.859  0.00  0.00    +0.000 N 
ATOM     32  H   UNL     1       0.094  12.982  17.197  0.00  0.00    +0.000 HD
BRANCH  31  33
ATOM     33  C   UNL     1       0.303  14.548  18.437  0.00  0.00    +0.000 A 
ATOM     34  C   UNL     1      -0.205  15.861  18.407  0.00  0.00    +0.000 A 
ATOM     35  C   UNL     1       0.506  16.931  18.969  0.00  0.00    +0.000 A 
ATOM     36  C   UNL     1       1.698  16.701  19.642  0.00  0.00    +0.000 A 
ATOM     37  C   UNL     1       2.189  15.406  19.731  0.00  0.00    +0.000 A 
ATOM     38  C   UNL     1       1.498  14.348  19.129  0.00  0.00    +0.000 A 
ENDBRANCH  31  33
ENDBRANCH  11  31
TORSDOF 11
ENDMDL
MODEL 5
REMARK VINA RESULT:      -6.9      3.509      4.774
REMARK  Name = 
REMARK  13 active torsions:
REMARK  status: ('A' for Active; 'I' for Inactive)
REMARK    1  A    between atoms: C_1  and  C_2
REMARK    2  A    between atoms: C_8  and  N_9
REMARK    3  A    between atoms: C_10  and  C_12
REMARK    4  A    between atoms: C_12  and  C_13
REMARK    5  A    between atoms: C_13  and  C_14
REMARK    6  A    between atoms: C_14  and  C_15
REMARK    7  A    between atoms: C_15  and  C_16
REMARK    8  A    between atoms: C_16  and  C_17
REMARK    9  A    between atoms: C_17  and  C_18
REMARK   10  A    between atoms: N_20  and  O_21
REMARK   11  A    between atoms: C_24  and  N_25
REMARK   12  A    between atoms: N_25  and  C_26
REMARK   13  A    between atoms: C_33  and  C_34
REMARK                            x       y       z     vdW  Elec       q    Type
REMARK                         _______ _______ _______ _____ _____    ______ ____
ROOT
ATOM      1  C   UNL     1      -3.026  12.642  23.610  0.00  0.00    +0.000 C 
ATOM      2  C   UNL     1      -1.935  11.847  22.955  0.00  0.00    +0.000 C 
ATOM      3  O   UNL     1      -1.230  11.223  23.736  0.00  0.00    +0.000 OA
ATOM      4  N   UNL     1      -1.777  11.888  21.558  0.00  0.00    +0.000 N 
ATOM      5  C   UNL     1      -0.829  10.987  20.912  0.00  0.00    +0.000 A 
ATOM      6  C   UNL     1      -0.437   9.834  21.592  0.00  0.00    +0.000 A 
ATOM      7  C   UNL     1       0.493   8.938  21.060  0.00  0.00    +0.000 A 
ATOM      8  C   UNL     1       1.044   9.140  19.819  0.00  0.00    +0.000 A 
ATOM      9  C   UNL     1       0.637  10.265  19.083  0.00  0.00    +0.000 A 
ATOM     10  C   UNL     1      -0.296  11.204  19.626  0.00  0.00    +0.000 A 
ATOM     11  C   UNL     1      -0.769  12.388  18.784  0.00  0.00    +0.000 C 
ATOM     12  C   UNL     1      -1.428  13.443  19.676  0.00  0.00    +0.000 C 
ATOM     13  C   UNL     1      -2.462  12.822  20.618  0.00  0.00    +0.000 C 
ATOM     14  C   UNL     1      -3.223  13.990  21.248  0.00  0.00    +0.000 C 
ENDROOT
BRANCH   8  15
ATOM     15  N   UNL     1       1.987   8.218  19.283  0.00  0.00    +0.000 N 
ATOM     16  C   UNL     1       2.148   6.903  19.726  0.00  0.00    +0.000 C 
ATOM     17  O   UNL     1       1.529   6.354  20.627  0.00  0.00    +0.000 OA
ATOM     18  H   UNL     1       2.576   8.553  18.531  0.00  0.00    +0.000 HD
BRANCH  16  19
ATOM     19  C   UNL     1       3.186   6.095  18.994  0.00  0.00    +0.000 C 
BRANCH  19  20
ATOM     20  C   UNL     1       2.458   5.073  18.115  0.00  0.00    +0.000 C 
BRANCH  20  21
ATOM     21  C   UNL     1       3.382   4.072  17.428  0.00  0.00    +0.000 C 
BRANCH  21  22
ATOM     22  C   UNL     1       4.616   4.752  16.838  0.00  0.00    +0.000 C 
BRANCH  22  23
ATOM     23  C   UNL     1       5.886   4.029  17.263  0.00  0.00    +0.000 C 
BRANCH  23  24
ATOM     24  C   UNL     1       7.135   4.636  16.624  0.00  0.00    +0.000 C 
BRANCH  24  25
ATOM     25  C   UNL     1       7.052   4.565  15.111  0.00  0.00    +0.000 C 
ATOM     26  O   UNL     1       6.413   3.716  14.493  0.00  0.00    +0.000 OA
ATOM     27  N   UNL     1       7.780   5.526  14.471  0.00  0.00    +0.000 N 
ATOM     28  H   UNL     1       8.138   6.375  14.907  0.00  0.00    +0.000 HD
BRANCH  27  29
ATOM     29  O   UNL     1       7.702   5.520  13.059  0.00  0.00    +0.000 OA
ATOM     30  H   UNL     1       7.207   6.350  12.879  0.00  0.00    +0.000 HD
ENDBRANCH  27  29
ENDBRANCH  24  25
ENDBRANCH  23  24
ENDBRANCH  22  23
ENDBRANCH  21  22
ENDBRANCH  20  21
ENDBRANCH  19  20
ENDBRANCH  16  19
ENDBRANCH   8  15
BRANCH  11  31
ATOM     31  N   UNL     1       0.329  13.003  18.009  0.00  0.00    +0.000 N 
ATOM     32  H   UNL     1       0.830  12.321  17.442  0.00  0.00    +0.000 HD
BRANCH  31  33
ATOM     33  C   UNL     1       1.220  13.905  18.614  0.00  0.00    +0.000 A 
ATOM     34  C   UNL     1       2.524  13.463  18.913  0.00  0.00    +0.000 A 
ATOM     35  C   UNL     1       3.462  14.314  19.514  0.00  0.00    +0.000 A 
ATOM     36  C   UNL     1       3.146  15.644  19.755  0.00  0.00    +0.000 A 
ATOM     37  C   UNL     1       1.885  16.115  19.416  0.00  0.00    +0.000 A 
ATOM     38  C   UNL     1       0.937  15.249  18.858  0.00  0.00    +0.000 A 
ENDBRANCH  31  33
ENDBRANCH  11  31
TORSDOF 11
ENDMDL
MODEL 6
REMARK VINA RESULT:      -6.9      3.539      5.397
REMARK  Name = 
REMARK  13 active torsions:
REMARK  status: ('A' for Active; 'I' for Inactive)
REMARK    1  A    between atoms: C_1  and  C_2
REMARK    2  A    between atoms: C_8  and  N_9
REMARK    3  A    between atoms: C_10  and  C_12
REMARK    4  A    between atoms: C_12  and  C_13
REMARK    5  A    between atoms: C_13  and  C_14
REMARK    6  A    between atoms: C_14  and  C_15
REMARK    7  A    between atoms: C_15  and  C_16
REMARK    8  A    between atoms: C_16  and  C_17
REMARK    9  A    between atoms: C_17  and  C_18
REMARK   10  A    between atoms: N_20  and  O_21
REMARK   11  A    between atoms: C_24  and  N_25
REMARK   12  A    between atoms: N_25  and  C_26
REMARK   13  A    between atoms: C_33  and  C_34
REMARK                            x       y       z     vdW  Elec       q    Type
REMARK                         _______ _______ _______ _____ _____    ______ ____
ROOT
ATOM      1  C   UNL     1      -2.036  11.596  23.444  0.00  0.00    +0.000 C 
ATOM      2  C   UNL     1      -0.978  10.695  22.875  0.00  0.00    +0.000 C 
ATOM      3  O   UNL     1      -0.393  10.020  23.710  0.00  0.00    +0.000 OA
ATOM      4  N   UNL     1      -0.718  10.703  21.494  0.00  0.00    +0.000 N 
ATOM      5  C   UNL     1       0.186   9.710  20.924  0.00  0.00    +0.000 A 
ATOM      6  C   UNL     1       0.421   8.535  21.639  0.00  0.00    +0.000 A 
ATOM      7  C   UNL     1       1.299   7.550  21.182  0.00  0.00    +0.000 A 
ATOM      8  C   UNL     1       1.954   7.684  19.983  0.00  0.00    +0.000 A 
ATOM      9  C   UNL     1       1.707   8.832  19.211  0.00  0.00    +0.000 A 
ATOM     10  C   UNL     1       0.829   9.860  19.678  0.00  0.00    +0.000 A 
ATOM     11  C   UNL     1       0.530  11.071  18.797  0.00  0.00    +0.000 C 
ATOM     12  C   UNL     1      -0.091  12.194  19.631  0.00  0.00    +0.000 C 
ATOM     13  C   UNL     1      -1.243  11.683  20.500  0.00  0.00    +0.000 C 
ATOM     14  C   UNL     1      -1.937  12.925  21.065  0.00  0.00    +0.000 C 
ENDROOT
BRANCH   8  15
ATOM     15  N   UNL     1       2.843   6.671  19.522  0.00  0.00    +0.000 N 
ATOM     16  C   UNL     1       2.997   5.420  20.124  0.00  0.00    +0.000 C 
ATOM     17  O   UNL     1       2.416   5.011  21.119  0.00  0.00    +0.000 OA
ATOM     18  H   UNL     1       3.398   6.889  18.704  0.00  0.00    +0.000 HD
BRANCH  16  19
ATOM     19  C   UNL     1       3.973   4.493  19.449  0.00  0.00    +0.000 C 
BRANCH  19  20
ATOM     20  C   UNL     1       3.172   3.438  18.681  0.00  0.00    +0.000 C 
BRANCH  20  21
ATOM     21  C   UNL     1       3.258   3.572  17.164  0.00  0.00    +0.000 C 
BRANCH  21  22
ATOM     22  C   UNL     1       4.156   4.737  16.748  0.00  0.00    +0.000 C 
BRANCH  22  23
ATOM     23  C   UNL     1       5.615   4.306  16.707  0.00  0.00    +0.000 C 
BRANCH  23  24
ATOM     24  C   UNL     1       6.561   5.441  17.098  0.00  0.00    +0.000 C 
BRANCH  24  25
ATOM     25  C   UNL     1       7.624   4.944  18.060  0.00  0.00    +0.000 C 
ATOM     26  O   UNL     1       8.485   4.114  17.770  0.00  0.00    +0.000 OA
ATOM     27  N   UNL     1       7.536   5.484  19.310  0.00  0.00    +0.000 N 
ATOM     28  H   UNL     1       7.007   6.322  19.548  0.00  0.00    +0.000 HD
BRANCH  27  29
ATOM     29  O   UNL     1       8.530   5.076  20.229  0.00  0.00    +0.000 OA
ATOM     30  H   UNL     1       9.293   5.637  19.966  0.00  0.00    +0.000 HD
ENDBRANCH  27  29
ENDBRANCH  24  25
ENDBRANCH  23  24
ENDBRANCH  22  23
ENDBRANCH  21  22
ENDBRANCH  20  21
ENDBRANCH  19  20
ENDBRANCH  16  19
ENDBRANCH   8  15
BRANCH  11  31
ATOM     31  N   UNL     1       1.732  11.571  18.099  0.00  0.00    +0.000 N 
ATOM     32  H   UNL     1       2.524  10.938  18.193  0.00  0.00    +0.000 HD
BRANCH  31  33
ATOM     33  C   UNL     1       2.139  12.909  18.237  0.00  0.00    +0.000 A 
ATOM     34  C   UNL     1       1.150  13.903  18.367  0.00  0.00    +0.000 A 
ATOM     35  C   UNL     1       1.490  15.256  18.511  0.00  0.00    +0.000 A 
ATOM     36  C   UNL     1       2.821  15.635  18.609  0.00  0.00    +0.000 A 
ATOM     37  C   UNL     1       3.812  14.665  18.539  0.00  0.00    +0.000 A 
ATOM     38  C   UNL     1       3.468  13.321  18.350  0.00  0.00    +0.000 A 
ENDBRANCH  31  33
ENDBRANCH  11  31
TORSDOF 11
ENDMDL
MODEL 7
REMARK VINA RESULT:      -6.8      2.939      3.865
REMARK  Name = 
REMARK  13 active torsions:
REMARK  status: ('A' for Active; 'I' for Inactive)
REMARK    1  A    between atoms: C_1  and  C_2
REMARK    2  A    between atoms: C_8  and  N_9
REMARK    3  A    between atoms: C_10  and  C_12
REMARK    4  A    between atoms: C_12  and  C_13
REMARK    5  A    between atoms: C_13  and  C_14
REMARK    6  A    between atoms: C_14  and  C_15
REMARK    7  A    between atoms: C_15  and  C_16
REMARK    8  A    between atoms: C_16  and  C_17
REMARK    9  A    between atoms: C_17  and  C_18
REMARK   10  A    between atoms: N_20  and  O_21
REMARK   11  A    between atoms: C_24  and  N_25
REMARK   12  A    between atoms: N_25  and  C_26
REMARK   13  A    between atoms: C_33  and  C_34
REMARK                            x       y       z     vdW  Elec       q    Type
REMARK                         _______ _______ _______ _____ _____    ______ ____
ROOT
ATOM      1  C   UNL     1      -2.435  11.693  23.819  0.00  0.00    +0.000 C 
ATOM      2  C   UNL     1      -1.384  11.225  22.855  0.00  0.00    +0.000 C 
ATOM      3  O   UNL     1      -0.421  10.688  23.384  0.00  0.00    +0.000 OA
ATOM      4  N   UNL     1      -1.549  11.445  21.476  0.00  0.00    +0.000 N 
ATOM      5  C   UNL     1      -0.614  10.841  20.533  0.00  0.00    +0.000 A 
ATOM      6  C   UNL     1       0.128   9.734  20.946  0.00  0.00    +0.000 A 
ATOM      7  C   UNL     1       1.069   9.120  20.117  0.00  0.00    +0.000 A 
ATOM      8  C   UNL     1       1.286   9.564  18.836  0.00  0.00    +0.000 A 
ATOM      9  C   UNL     1       0.522  10.647  18.368  0.00  0.00    +0.000 A 
ATOM     10  C   UNL     1      -0.427  11.302  19.213  0.00  0.00    +0.000 A 
ATOM     11  C   UNL     1      -1.287  12.438  18.664  0.00  0.00    +0.000 C 
ATOM     12  C   UNL     1      -1.920  13.227  19.812  0.00  0.00    +0.000 C 
ATOM     13  C   UNL     1      -2.586  12.303  20.835  0.00  0.00    +0.000 C 
ATOM     14  C   UNL     1      -3.396  13.209  21.766  0.00  0.00    +0.000 C 
ENDROOT
BRANCH   8  15
ATOM     15  N   UNL     1       2.243   8.927  17.997  0.00  0.00    +0.000 N 
ATOM     16  C   UNL     1       2.841   7.695  18.272  0.00  0.00    +0.000 C 
ATOM     17  O   UNL     1       2.650   6.993  19.255  0.00  0.00    +0.000 OA
ATOM     18  H   UNL     1       2.500   9.414  17.148  0.00  0.00    +0.000 HD
BRANCH  16  19
ATOM     19  C   UNL     1       3.805   7.196  17.229  0.00  0.00    +0.000 C 
BRANCH  19  20
ATOM     20  C   UNL     1       4.004   5.693  17.448  0.00  0.00    +0.000 C 
BRANCH  20  21
ATOM     21  C   UNL     1       5.365   5.323  18.028  0.00  0.00    +0.000 C 
BRANCH  21  22
ATOM     22  C   UNL     1       5.275   4.116  18.961  0.00  0.00    +0.000 C 
BRANCH  22  23
ATOM     23  C   UNL     1       3.942   3.403  18.793  0.00  0.00    +0.000 C 
BRANCH  23  24
ATOM     24  C   UNL     1       3.250   3.150  20.133  0.00  0.00    +0.000 C 
BRANCH  24  25
ATOM     25  C   UNL     1       1.815   2.707  19.920  0.00  0.00    +0.000 C 
ATOM     26  O   UNL     1       0.944   2.747  20.787  0.00  0.00    +0.000 OA
ATOM     27  N   UNL     1       1.564   2.226  18.668  0.00  0.00    +0.000 N 
ATOM     28  H   UNL     1       2.161   2.372  17.855  0.00  0.00    +0.000 HD
BRANCH  27  29
ATOM     29  O   UNL     1       0.228   1.835  18.415  0.00  0.00    +0.000 OA
ATOM     30  H   UNL     1       0.033   2.309  17.576  0.00  0.00    +0.000 HD
ENDBRANCH  27  29
ENDBRANCH  24  25
ENDBRANCH  23  24
ENDBRANCH  22  23
ENDBRANCH  21  22
ENDBRANCH  20  21
ENDBRANCH  19  20
ENDBRANCH  16  19
ENDBRANCH   8  15
BRANCH  11  31
ATOM     31  N   UNL     1      -0.522  13.352  17.790  0.00  0.00    +0.000 N 
ATOM     32  H   UNL     1       0.011  12.852  17.081  0.00  0.00    +0.000 HD
BRANCH  31  33
ATOM     33  C   UNL     1       0.230  14.406  18.334  0.00  0.00    +0.000 A 
ATOM     34  C   UNL     1       1.575  14.165  18.677  0.00  0.00    +0.000 A 
ATOM     35  C   UNL     1       2.380  15.176  19.221  0.00  0.00    +0.000 A 
ATOM     36  C   UNL     1       1.886  16.466  19.359  0.00  0.00    +0.000 A 
ATOM     37  C   UNL     1       0.581  16.738  18.974  0.00  0.00    +0.000 A 
ATOM     38  C   UNL     1      -0.233  15.715  18.474  0.00  0.00    +0.000 A 
ENDBRANCH  31  33
ENDBRANCH  11  31
TORSDOF 11
ENDMDL
MODEL 8
REMARK VINA RESULT:      -6.7      5.145     10.065
REMARK  Name = 
REMARK  13 active torsions:
REMARK  status: ('A' for Active; 'I' for Inactive)
REMARK    1  A    between atoms: C_1  and  C_2
REMARK    2  A    between atoms: C_8  and  N_9
REMARK    3  A    between atoms: C_10  and  C_12
REMARK    4  A    between atoms: C_12  and  C_13
REMARK    5  A    between atoms: C_13  and  C_14
REMARK    6  A    between atoms: C_14  and  C_15
REMARK    7  A    between atoms: C_15  and  C_16
REMARK    8  A    between atoms: C_16  and  C_17
REMARK    9  A    between atoms: C_17  and  C_18
REMARK   10  A    between atoms: N_20  and  O_21
REMARK   11  A    between atoms: C_24  and  N_25
REMARK   12  A    between atoms: N_25  and  C_26
REMARK   13  A    between atoms: C_33  and  C_34
REMARK                            x       y       z     vdW  Elec       q    Type
REMARK                         _______ _______ _______ _____ _____    ______ ____
ROOT
ATOM      1  C   UNL     1       2.195   1.113  18.597  0.00  0.00    +0.000 C 
ATOM      2  C   UNL     1       3.152   2.263  18.466  0.00  0.00    +0.000 C 
ATOM      3  O   UNL     1       4.319   1.929  18.319  0.00  0.00    +0.000 OA
ATOM      4  N   UNL     1       2.678   3.583  18.546  0.00  0.00    +0.000 N 
ATOM      5  C   UNL     1       3.578   4.692  18.250  0.00  0.00    +0.000 A 
ATOM      6  C   UNL     1       4.718   4.439  17.486  0.00  0.00    +0.000 A 
ATOM      7  C   UNL     1       5.649   5.437  17.188  0.00  0.00    +0.000 A 
ATOM      8  C   UNL     1       5.466   6.729  17.614  0.00  0.00    +0.000 A 
ATOM      9  C   UNL     1       4.305   7.033  18.345  0.00  0.00    +0.000 A 
ATOM     10  C   UNL     1       3.356   6.017  18.678  0.00  0.00    +0.000 A 
ATOM     11  C   UNL     1       2.072   6.382  19.423  0.00  0.00    +0.000 C 
ATOM     12  C   UNL     1       1.423   5.125  20.006  0.00  0.00    +0.000 C 
ATOM     13  C   UNL     1       1.311   4.009  18.964  0.00  0.00    +0.000 C 
ATOM     14  C   UNL     1       0.419   2.932  19.585  0.00  0.00    +0.000 C 
ENDROOT
BRANCH   8  15
ATOM     15  N   UNL     1       6.418   7.740  17.300  0.00  0.00    +0.000 N 
ATOM     16  C   UNL     1       7.687   7.839  17.876  0.00  0.00    +0.000 C 
ATOM     17  O   UNL     1       8.163   7.100  18.725  0.00  0.00    +0.000 OA
ATOM     18  H   UNL     1       6.141   8.430  16.612  0.00  0.00    +0.000 HD
BRANCH  16  19
ATOM     19  C   UNL     1       8.540   8.973  17.372  0.00  0.00    +0.000 C 
BRANCH  19  20
ATOM     20  C   UNL     1       9.056   9.753  18.584  0.00  0.00    +0.000 C 
BRANCH  20  21
ATOM     21  C   UNL     1       9.604  11.136  18.247  0.00  0.00    +0.000 C 
BRANCH  21  22
ATOM     22  C   UNL     1       9.366  12.132  19.380  0.00  0.00    +0.000 C 
BRANCH  22  23
ATOM     23  C   UNL     1      10.145  13.417  19.143  0.00  0.00    +0.000 C 
BRANCH  23  24
ATOM     24  C   UNL     1       9.713  14.125  17.859  0.00  0.00    +0.000 C 
BRANCH  24  25
ATOM     25  C   UNL     1       8.375  14.813  18.051  0.00  0.00    +0.000 C 
ATOM     26  O   UNL     1       8.220  15.861  18.675  0.00  0.00    +0.000 OA
ATOM     27  N   UNL     1       7.325  14.149  17.485  0.00  0.00    +0.000 N 
ATOM     28  H   UNL     1       7.408  13.418  16.780  0.00  0.00    +0.000 HD
BRANCH  27  29
ATOM     29  O   UNL     1       6.062  14.775  17.609  0.00  0.00    +0.000 OA
ATOM     30  H   UNL     1       6.192  15.340  18.403  0.00  0.00    +0.000 HD
ENDBRANCH  27  29
ENDBRANCH  24  25
ENDBRANCH  23  24
ENDBRANCH  22  23
ENDBRANCH  21  22
ENDBRANCH  20  21
ENDBRANCH  19  20
ENDBRANCH  16  19
ENDBRANCH   8  15
BRANCH  11  31
ATOM     31  N   UNL     1       2.305   7.370  20.496  0.00  0.00    +0.000 N 
ATOM     32  H   UNL     1       2.551   6.929  21.380  0.00  0.00    +0.000 HD
BRANCH  31  33
ATOM     33  C   UNL     1       1.413   8.437  20.697  0.00  0.00    +0.000 A 
ATOM     34  C   UNL     1       1.006   8.733  22.013  0.00  0.00    +0.000 A 
ATOM     35  C   UNL     1       0.120   9.787  22.282  0.00  0.00    +0.000 A 
ATOM     36  C   UNL     1      -0.313  10.615  21.255  0.00  0.00    +0.000 A 
ATOM     37  C   UNL     1       0.122  10.375  19.959  0.00  0.00    +0.000 A 
ATOM     38  C   UNL     1       0.969   9.294  19.690  0.00  0.00    +0.000 A 
ENDBRANCH  31  33
ENDBRANCH  11  31
TORSDOF 11
ENDMDL
MODEL 9
REMARK VINA RESULT:      -6.7      3.623      5.036
REMARK  Name = 
REMARK  13 active torsions:
REMARK  status: ('A' for Active; 'I' for Inactive)
REMARK    1  A    between atoms: C_1  and  C_2
REMARK    2  A    between atoms: C_8  and  N_9
REMARK    3  A    between atoms: C_10  and  C_12
REMARK    4  A    between atoms: C_12  and  C_13
REMARK    5  A    between atoms: C_13  and  C_14
REMARK    6  A    between atoms: C_14  and  C_15
REMARK    7  A    between atoms: C_15  and  C_16
REMARK    8  A    between atoms: C_16  and  C_17
REMARK    9  A    between atoms: C_17  and  C_18
REMARK   10  A    between atoms: N_20  and  O_21
REMARK   11  A    between atoms: C_24  and  N_25
REMARK   12  A    between atoms: N_25  and  C_26
REMARK   13  A    between atoms: C_33  and  C_34
REMARK                            x       y       z     vdW  Elec       q    Type
REMARK                         _______ _______ _______ _____ _____    ______ ____
ROOT
ATOM      1  C   UNL     1      -2.385  12.727  23.254  0.00  0.00    +0.000 C 
ATOM      2  C   UNL     1      -1.365  11.803  22.655  0.00  0.00    +0.000 C 
ATOM      3  O   UNL     1      -0.859  11.029  23.456  0.00  0.00    +0.000 OA
ATOM      4  N   UNL     1      -1.047  11.897  21.289  0.00  0.00    +0.000 N 
ATOM      5  C   UNL     1      -0.186  10.891  20.678  0.00  0.00    +0.000 A 
ATOM      6  C   UNL     1      -0.057   9.652  21.307  0.00  0.00    +0.000 A 
ATOM      7  C   UNL     1       0.774   8.648  20.807  0.00  0.00    +0.000 A 
ATOM      8  C   UNL     1       1.486   8.827  19.647  0.00  0.00    +0.000 A 
ATOM      9  C   UNL     1       1.345  10.044  18.959  0.00  0.00    +0.000 A 
ATOM     10  C   UNL     1       0.516  11.091  19.472  0.00  0.00    +0.000 A 
ATOM     11  C   UNL     1       0.332  12.382  18.677  0.00  0.00    +0.000 C 
ATOM     12  C   UNL     1      -0.249  13.478  19.573  0.00  0.00    +0.000 C 
ATOM     13  C   UNL     1      -1.467  12.982  20.356  0.00  0.00    +0.000 C 
ATOM     14  C   UNL     1      -2.102  14.222  20.990  0.00  0.00    +0.000 C 
ENDROOT
BRANCH   8  15
ATOM     15  N   UNL     1       2.327   7.795  19.142  0.00  0.00    +0.000 N 
ATOM     16  C   UNL     1       2.410   6.508  19.680  0.00  0.00    +0.000 C 
ATOM     17  O   UNL     1       1.798   6.080  20.648  0.00  0.00    +0.000 OA
ATOM     18  H   UNL     1       2.900   8.025  18.341  0.00  0.00    +0.000 HD
BRANCH  16  19
ATOM     19  C   UNL     1       3.344   5.568  18.966  0.00  0.00    +0.000 C 
BRANCH  19  20
ATOM     20  C   UNL     1       2.501   4.637  18.090  0.00  0.00    +0.000 C 
BRANCH  20  21
ATOM     21  C   UNL     1       3.297   3.906  17.012  0.00  0.00    +0.000 C 
BRANCH  21  22
ATOM     22  C   UNL     1       4.516   4.710  16.564  0.00  0.00    +0.000 C 
BRANCH  22  23
ATOM     23  C   UNL     1       5.600   3.791  16.021  0.00  0.00    +0.000 C 
BRANCH  23  24
ATOM     24  C   UNL     1       6.939   4.510  15.862  0.00  0.00    +0.000 C 
BRANCH  24  25
ATOM     25  C   UNL     1       7.425   5.039  17.198  0.00  0.00    +0.000 C 
ATOM     26  O   UNL     1       7.704   4.329  18.162  0.00  0.00    +0.000 OA
ATOM     27  N   UNL     1       7.508   6.400  17.258  0.00  0.00    +0.000 N 
ATOM     28  H   UNL     1       7.512   7.021  16.449  0.00  0.00    +0.000 HD
BRANCH  27  29
ATOM     29  O   UNL     1       7.992   6.935  18.474  0.00  0.00    +0.000 OA
ATOM     30  H   UNL     1       7.334   7.640  18.663  0.00  0.00    +0.000 HD
ENDBRANCH  27  29
ENDBRANCH  24  25
ENDBRANCH  23  24
ENDBRANCH  22  23
ENDBRANCH  21  22
ENDBRANCH  20  21
ENDBRANCH  19  20
ENDBRANCH  16  19
ENDBRANCH   8  15
BRANCH  11  31
ATOM     31  N   UNL     1       1.593  12.851  18.065  0.00  0.00    +0.000 N 
ATOM     32  H   UNL     1       2.310  12.129  18.055  0.00  0.00    +0.000 HD
BRANCH  31  33
ATOM     33  C   UNL     1       2.140  14.098  18.411  0.00  0.00    +0.000 A 
ATOM     34  C   UNL     1       3.535  14.197  18.579  0.00  0.00    +0.000 A 
ATOM     35  C   UNL     1       4.145  15.412  18.921  0.00  0.00    +0.000 A 
ATOM     36  C   UNL     1       3.385  16.570  19.025  0.00  0.00    +0.000 A 
ATOM     37  C   UNL     1       2.015  16.506  18.809  0.00  0.00    +0.000 A 
ATOM     38  C   UNL     1       1.407  15.281  18.512  0.00  0.00    +0.000 A 
ENDBRANCH  31  33
ENDBRANCH  11  31
TORSDOF 11
ENDMDL
