MODEL 1
REMARK VINA RESULT:      -7.3      0.000      0.000
REMARK  Name = 
REMARK  7 active torsions:
REMARK  status: ('A' for Active; 'I' for Inactive)
REMARK    1  A    between atoms: C_1  and  C_2
REMARK    2  A    between atoms: C_2  and  O_4
REMARK    3  A    between atoms: O_4  and  C_5
REMARK    4  A    between atoms: C_10  and  C_11
REMARK    5  A    between atoms: C_20  and  O_21
REMARK    6  A    between atoms: O_21  and  C_22
REMARK    7  A    between atoms: C_22  and  C_23
REMARK                            x       y       z     vdW  Elec       q    Type
REMARK                         _______ _______ _______ _____ _____    ______ ____
ROOT
ATOM      1  C   UNL     1       3.606   5.706  18.747  0.00  0.00    +0.000 A 
ATOM      2  C   UNL     1       3.663   6.617  17.680  0.00  0.00    +0.000 A 
ATOM      3  C   UNL     1       2.964   7.822  17.735  0.00  0.00    +0.000 A 
ATOM      4  C   UNL     1       2.164   8.107  18.840  0.00  0.00    +0.000 A 
ATOM      5  C   UNL     1       1.484   9.384  18.961  0.00  0.00    +0.000 A 
ATOM      6  C   UNL     1       0.716   9.642  20.027  0.00  0.00    +0.000 A 
ATOM      7  C   UNL     1       0.457   8.604  21.062  0.00  0.00    +0.000 A 
ATOM      8  O   UNL     1      -0.358   8.759  21.966  0.00  0.00    +0.000 OA
ATOM      9  O   UNL     1       1.198   7.425  20.957  0.00  0.00    +0.000 OA
ATOM     10  C   UNL     1       2.067   7.173  19.871  0.00  0.00    +0.000 A 
ATOM     11  C   UNL     1       2.797   5.976  19.851  0.00  0.00    +0.000 A 
ENDROOT
BRANCH   6  12
ATOM     12  C   UNL     1       0.195  10.959  20.184  0.00  0.00    +0.000 A 
ATOM     13  C   UNL     1       0.683  12.029  20.913  0.00  0.00    +0.000 A 
ATOM     14  C   UNL     1      -0.158  13.180  20.833  0.00  0.00    +0.000 A 
ATOM     15  C   UNL     1      -1.261  12.959  20.045  0.00  0.00    +0.000 A 
ATOM     16  S   UNL     1      -1.285  11.378  19.401  0.00  0.00    +0.000 S 
ENDBRANCH   6  12
BRANCH   1  17
ATOM     17  O   UNL     1       4.260   4.472  18.613  0.00  0.00    +0.000 OA
BRANCH  17  19
ATOM     18  C   UNL     1       2.692   3.216  17.380  0.00  0.00    +0.000 C 
ATOM     19  C   UNL     1       4.067   3.817  17.395  0.00  0.00    +0.000 C 
ATOM     20  O   UNL     1       4.845   3.762  16.454  0.00  0.00    +0.000 OA
ENDBRANCH  17  19
ENDBRANCH   1  17
BRANCH  11  21
ATOM     21  O   UNL     1       2.577   5.088  20.926  0.00  0.00    +0.000 OA
BRANCH  21  22
ATOM     22  C   UNL     1       1.693   4.013  20.831  0.00  0.00    +0.000 C 
ATOM     23  C   UNL     1       2.245   2.857  21.616  0.00  0.00    +0.000 C 
ATOM     24  O   UNL     1       0.634   3.984  20.218  0.00  0.00    +0.000 OA
ENDBRANCH  21  22
ENDBRANCH  11  21
TORSDOF 5
ENDMDL
MODEL 2
REMARK VINA RESULT:      -7.2      0.962      1.276
REMARK  Name = 
REMARK  7 active torsions:
REMARK  status: ('A' for Active; 'I' for Inactive)
REMARK    1  A    between atoms: C_1  and  C_2
REMARK    2  A    between atoms: C_2  and  O_4
REMARK    3  A    between atoms: O_4  and  C_5
REMARK    4  A    between atoms: C_10  and  C_11
REMARK    5  A    between atoms: C_20  and  O_21
REMARK    6  A    between atoms: O_21  and  C_22
REMARK    7  A    between atoms: C_22  and  C_23
REMARK                            x       y       z     vdW  Elec       q    Type
REMARK                         _______ _______ _______ _____ _____    ______ ____
ROOT
ATOM      1  C   UNL     1       3.722   5.939  18.598  0.00  0.00    +0.000 A 
ATOM      2  C   UNL     1       3.724   6.901  17.575  0.00  0.00    +0.000 A 
ATOM      3  C   UNL     1       2.953   8.057  17.684  0.00  0.00    +0.000 A 
ATOM      4  C   UNL     1       2.137   8.242  18.798  0.00  0.00    +0.000 A 
ATOM      5  C   UNL     1       1.381   9.468  18.976  0.00  0.00    +0.000 A 
ATOM      6  C   UNL     1       0.597   9.629  20.051  0.00  0.00    +0.000 A 
ATOM      7  C   UNL     1       0.401   8.529  21.035  0.00  0.00    +0.000 A 
ATOM      8  O   UNL     1      -0.422   8.592  21.942  0.00  0.00    +0.000 OA
ATOM      9  O   UNL     1       1.212   7.404  20.878  0.00  0.00    +0.000 OA
ATOM     10  C   UNL     1       2.095   7.256  19.784  0.00  0.00    +0.000 A 
ATOM     11  C   UNL     1       2.897   6.108  19.711  0.00  0.00    +0.000 A 
ENDROOT
BRANCH   6  12
ATOM     12  C   UNL     1      -0.003  10.903  20.267  0.00  0.00    +0.000 A 
ATOM     13  C   UNL     1       0.351  11.918  21.138  0.00  0.00    +0.000 A 
ATOM     14  C   UNL     1      -0.534  13.036  21.070  0.00  0.00    +0.000 A 
ATOM     15  C   UNL     1      -1.535  12.846  20.150  0.00  0.00    +0.000 A 
ATOM     16  S   UNL     1      -1.411  11.334  19.367  0.00  0.00    +0.000 S 
ENDBRANCH   6  12
BRANCH   1  17
ATOM     17  O   UNL     1       4.450   4.755  18.409  0.00  0.00    +0.000 OA
BRANCH  17  19
ATOM     18  C   UNL     1       6.573   4.585  17.398  0.00  0.00    +0.000 C 
ATOM     19  C   UNL     1       5.819   4.841  18.670  0.00  0.00    +0.000 C 
ATOM     20  O   UNL     1       6.351   5.122  19.734  0.00  0.00    +0.000 OA
ENDBRANCH  17  19
ENDBRANCH   1  17
BRANCH  11  21
ATOM     21  O   UNL     1       2.731   5.159  20.742  0.00  0.00    +0.000 OA
BRANCH  21  22
ATOM     22  C   UNL     1       1.815   4.110  20.644  0.00  0.00    +0.000 C 
ATOM     23  C   UNL     1       2.129   3.090  21.702  0.00  0.00    +0.000 C 
ATOM     24  O   UNL     1       0.897   4.008  19.843  0.00  0.00    +0.000 OA
ENDBRANCH  21  22
ENDBRANCH  11  21
TORSDOF 5
ENDMDL
MODEL 3
REMARK VINA RESULT:      -7.1      2.760      6.964
REMARK  Name = 
REMARK  7 active torsions:
REMARK  status: ('A' for Active; 'I' for Inactive)
REMARK    1  A    between atoms: C_1  and  C_2
REMARK    2  A    between atoms: C_2  and  O_4
REMARK    3  A    between atoms: O_4  and  C_5
REMARK    4  A    between atoms: C_10  and  C_11
REMARK    5  A    between atoms: C_20  and  O_21
REMARK    6  A    between atoms: O_21  and  C_22
REMARK    7  A    between atoms: C_22  and  C_23
REMARK                            x       y       z     vdW  Elec       q    Type
REMARK                         _______ _______ _______ _____ _____    ______ ____
ROOT
ATOM      1  C   UNL     1       1.231  10.361  19.428  0.00  0.00    +0.000 A 
ATOM      2  C   UNL     1       1.675  10.145  18.114  0.00  0.00    +0.000 A 
ATOM      3  C   UNL     1       2.081   8.878  17.698  0.00  0.00    +0.000 A 
ATOM      4  C   UNL     1       2.090   7.822  18.607  0.00  0.00    +0.000 A 
ATOM      5  C   UNL     1       2.436   6.477  18.186  0.00  0.00    +0.000 A 
ATOM      6  C   UNL     1       2.443   5.472  19.072  0.00  0.00    +0.000 A 
ATOM      7  C   UNL     1       2.198   5.718  20.520  0.00  0.00    +0.000 A 
ATOM      8  O   UNL     1       2.348   4.850  21.373  0.00  0.00    +0.000 OA
ATOM      9  O   UNL     1       1.783   7.005  20.869  0.00  0.00    +0.000 OA
ATOM     10  C   UNL     1       1.703   8.054  19.926  0.00  0.00    +0.000 A 
ATOM     11  C   UNL     1       1.250   9.313  20.350  0.00  0.00    +0.000 A 
ENDROOT
BRANCH   6  12
ATOM     12  C   UNL     1       2.634   4.145  18.590  0.00  0.00    +0.000 A 
ATOM     13  C   UNL     1       1.712   3.232  18.109  0.00  0.00    +0.000 A 
ATOM     14  C   UNL     1       2.308   1.986  17.749  0.00  0.00    +0.000 A 
ATOM     15  C   UNL     1       3.665   1.982  17.962  0.00  0.00    +0.000 A 
ATOM     16  S   UNL     1       4.222   3.469  18.588  0.00  0.00    +0.000 S 
ENDBRANCH   6  12
BRANCH   1  17
ATOM     17  O   UNL     1       0.910  11.667  19.824  0.00  0.00    +0.000 OA
BRANCH  17  19
ATOM     18  C   UNL     1      -1.430  11.628  19.543  0.00  0.00    +0.000 C 
ATOM     19  C   UNL     1      -0.139  12.268  19.124  0.00  0.00    +0.000 C 
ATOM     20  O   UNL     1      -0.063  13.195  18.332  0.00  0.00    +0.000 OA
ENDBRANCH  17  19
ENDBRANCH   1  17
BRANCH  11  21
ATOM     21  O   UNL     1       0.934   9.438  21.719  0.00  0.00    +0.000 OA
BRANCH  21  22
ATOM     22  C   UNL     1      -0.346   9.181  22.211  0.00  0.00    +0.000 C 
ATOM     23  C   UNL     1      -0.801  10.361  23.023  0.00  0.00    +0.000 C 
ATOM     24  O   UNL     1      -1.015   8.173  22.030  0.00  0.00    +0.000 OA
ENDBRANCH  21  22
ENDBRANCH  11  21
TORSDOF 5
ENDMDL
MODEL 4
REMARK VINA RESULT:      -7.1      1.086      1.211
REMARK  Name = 
REMARK  7 active torsions:
REMARK  status: ('A' for Active; 'I' for Inactive)
REMARK    1  A    between atoms: C_1  and  C_2
REMARK    2  A    between atoms: C_2  and  O_4
REMARK    3  A    between atoms: O_4  and  C_5
REMARK    4  A    between atoms: C_10  and  C_11
REMARK    5  A    between atoms: C_20  and  O_21
REMARK    6  A    between atoms: O_21  and  C_22
REMARK    7  A    between atoms: C_22  and  C_23
REMARK                            x       y       z     vdW  Elec       q    Type
REMARK                         _______ _______ _______ _____ _____    ______ ____
ROOT
ATOM      1  C   UNL     1       3.695   5.466  18.695  0.00  0.00    +0.000 A 
ATOM      2  C   UNL     1       3.842   6.264  17.549  0.00  0.00    +0.000 A 
ATOM      3  C   UNL     1       3.213   7.505  17.461  0.00  0.00    +0.000 A 
ATOM      4  C   UNL     1       2.394   7.941  18.500  0.00  0.00    +0.000 A 
ATOM      5  C   UNL     1       1.787   9.259  18.471  0.00  0.00    +0.000 A 
ATOM      6  C   UNL     1       0.999   9.663  19.477  0.00  0.00    +0.000 A 
ATOM      7  C   UNL     1       0.645   8.747  20.596  0.00  0.00    +0.000 A 
ATOM      8  O   UNL     1      -0.190   9.034  21.447  0.00  0.00    +0.000 OA
ATOM      9  O   UNL     1       1.318   7.524  20.634  0.00  0.00    +0.000 OA
ATOM     10  C   UNL     1       2.207   7.119  19.612  0.00  0.00    +0.000 A 
ATOM     11  C   UNL     1       2.866   5.888  19.736  0.00  0.00    +0.000 A 
ENDROOT
BRANCH   6  12
ATOM     12  C   UNL     1       0.552  11.015  19.486  0.00  0.00    +0.000 A 
ATOM     13  C   UNL     1      -0.461  11.622  18.765  0.00  0.00    +0.000 A 
ATOM     14  C   UNL     1      -0.575  13.018  19.042  0.00  0.00    +0.000 A 
ATOM     15  C   UNL     1       0.350  13.437  19.967  0.00  0.00    +0.000 A 
ATOM     16  S   UNL     1       1.347  12.160  20.503  0.00  0.00    +0.000 S 
ENDBRANCH   6  12
BRANCH   1  17
ATOM     17  O   UNL     1       4.280   4.192  18.706  0.00  0.00    +0.000 OA
BRANCH  17  19
ATOM     18  C   UNL     1       3.791   1.886  18.781  0.00  0.00    +0.000 C 
ATOM     19  C   UNL     1       3.545   3.186  18.073  0.00  0.00    +0.000 C 
ATOM     20  O   UNL     1       2.781   3.314  17.127  0.00  0.00    +0.000 OA
ENDBRANCH  17  19
ENDBRANCH   1  17
BRANCH  11  21
ATOM     21  O   UNL     1       2.558   5.123  20.881  0.00  0.00    +0.000 OA
BRANCH  21  22
ATOM     22  C   UNL     1       1.619   4.092  20.854  0.00  0.00    +0.000 C 
ATOM     23  C   UNL     1       2.047   3.017  21.813  0.00  0.00    +0.000 C 
ATOM     24  O   UNL     1       0.603   4.040  20.174  0.00  0.00    +0.000 OA
ENDBRANCH  21  22
ENDBRANCH  11  21
TORSDOF 5
ENDMDL
MODEL 5
REMARK VINA RESULT:      -7.0      3.720      7.532
REMARK  Name = 
REMARK  7 active torsions:
REMARK  status: ('A' for Active; 'I' for Inactive)
REMARK    1  A    between atoms: C_1  and  C_2
REMARK    2  A    between atoms: C_2  and  O_4
REMARK    3  A    between atoms: O_4  and  C_5
REMARK    4  A    between atoms: C_10  and  C_11
REMARK    5  A    between atoms: C_20  and  O_21
REMARK    6  A    between atoms: O_21  and  C_22
REMARK    7  A    between atoms: C_22  and  C_23
REMARK                            x       y       z     vdW  Elec       q    Type
REMARK                         _______ _______ _______ _____ _____    ______ ____
ROOT
ATOM      1  C   UNL     1       3.394   3.863  19.920  0.00  0.00    +0.000 A 
ATOM      2  C   UNL     1       3.502   2.607  19.302  0.00  0.00    +0.000 A 
ATOM      3  C   UNL     1       4.036   2.488  18.020  0.00  0.00    +0.000 A 
ATOM      4  C   UNL     1       4.427   3.631  17.325  0.00  0.00    +0.000 A 
ATOM      5  C   UNL     1       5.055   3.534  16.020  0.00  0.00    +0.000 A 
ATOM      6  C   UNL     1       5.422   4.642  15.363  0.00  0.00    +0.000 A 
ATOM      7  C   UNL     1       5.110   5.996  15.898  0.00  0.00    +0.000 A 
ATOM      8  O   UNL     1       5.296   7.022  15.251  0.00  0.00    +0.000 OA
ATOM      9  O   UNL     1       4.588   6.047  17.191  0.00  0.00    +0.000 OA
ATOM     10  C   UNL     1       4.264   4.881  17.922  0.00  0.00    +0.000 A 
ATOM     11  C   UNL     1       3.768   5.015  19.227  0.00  0.00    +0.000 A 
ENDROOT
BRANCH   6  12
ATOM     12  C   UNL     1       6.175   4.499  14.161  0.00  0.00    +0.000 A 
ATOM     13  C   UNL     1       7.374   5.078  13.788  0.00  0.00    +0.000 A 
ATOM     14  C   UNL     1       7.785   4.697  12.475  0.00  0.00    +0.000 A 
ATOM     15  C   UNL     1       6.892   3.837  11.885  0.00  0.00    +0.000 A 
ATOM     16  S   UNL     1       5.568   3.486  12.903  0.00  0.00    +0.000 S 
ENDBRANCH   6  12
BRANCH   1  17
ATOM     17  O   UNL     1       2.776   3.943  21.176  0.00  0.00    +0.000 OA
BRANCH  17  19
ATOM     18  C   UNL     1       0.646   3.526  20.255  0.00  0.00    +0.000 C 
ATOM     19  C   UNL     1       1.626   3.166  21.333  0.00  0.00    +0.000 C 
ATOM     20  O   UNL     1       1.432   2.294  22.167  0.00  0.00    +0.000 OA
ENDBRANCH  17  19
ENDBRANCH   1  17
BRANCH  11  21
ATOM     21  O   UNL     1       3.602   6.333  19.703  0.00  0.00    +0.000 OA
BRANCH  21  22
ATOM     22  C   UNL     1       2.352   6.950  19.754  0.00  0.00    +0.000 C 
ATOM     23  C   UNL     1       2.173   7.790  18.520  0.00  0.00    +0.000 C 
ATOM     24  O   UNL     1       1.515   6.846  20.640  0.00  0.00    +0.000 OA
ENDBRANCH  21  22
ENDBRANCH  11  21
TORSDOF 5
ENDMDL
MODEL 6
REMARK VINA RESULT:      -7.0      2.187      3.577
REMARK  Name = 
REMARK  7 active torsions:
REMARK  status: ('A' for Active; 'I' for Inactive)
REMARK    1  A    between atoms: C_1  and  C_2
REMARK    2  A    between atoms: C_2  and  O_4
REMARK    3  A    between atoms: O_4  and  C_5
REMARK    4  A    between atoms: C_10  and  C_11
REMARK    5  A    between atoms: C_20  and  O_21
REMARK    6  A    between atoms: O_21  and  C_22
REMARK    7  A    between atoms: C_22  and  C_23
REMARK                            x       y       z     vdW  Elec       q    Type
REMARK                         _______ _______ _______ _____ _____    ______ ____
ROOT
ATOM      1  C   UNL     1       3.712   4.715  18.864  0.00  0.00    +0.000 A 
ATOM      2  C   UNL     1       3.096   4.723  20.125  0.00  0.00    +0.000 A 
ATOM      3  C   UNL     1       2.343   5.820  20.542  0.00  0.00    +0.000 A 
ATOM      4  C   UNL     1       2.237   6.939  19.719  0.00  0.00    +0.000 A 
ATOM      5  C   UNL     1       1.400   8.065  20.092  0.00  0.00    +0.000 A 
ATOM      6  C   UNL     1       1.310   9.135  19.291  0.00  0.00    +0.000 A 
ATOM      7  C   UNL     1       2.134   9.247  18.056  0.00  0.00    +0.000 A 
ATOM      8  O   UNL     1       2.188  10.273  17.387  0.00  0.00    +0.000 OA
ATOM      9  O   UNL     1       2.855   8.110  17.687  0.00  0.00    +0.000 OA
ATOM     10  C   UNL     1       2.898   6.948  18.491  0.00  0.00    +0.000 A 
ATOM     11  C   UNL     1       3.624   5.836  18.038  0.00  0.00    +0.000 A 
ENDROOT
BRANCH   6  12
ATOM     12  C   UNL     1       0.361  10.147  19.616  0.00  0.00    +0.000 A 
ATOM     13  C   UNL     1      -0.909  10.370  19.114  0.00  0.00    +0.000 A 
ATOM     14  C   UNL     1      -1.533  11.519  19.685  0.00  0.00    +0.000 A 
ATOM     15  C   UNL     1      -0.727  12.139  20.608  0.00  0.00    +0.000 A 
ATOM     16  S   UNL     1       0.772  11.343  20.790  0.00  0.00    +0.000 S 
ENDBRANCH   6  12
BRANCH   1  17
ATOM     17  O   UNL     1       4.525   3.625  18.521  0.00  0.00    +0.000 OA
BRANCH  17  19
ATOM     18  C   UNL     1       3.267   1.632  18.493  0.00  0.00    +0.000 C 
ATOM     19  C   UNL     1       4.287   2.447  19.232  0.00  0.00    +0.000 C 
ATOM     20  O   UNL     1       4.834   2.084  20.263  0.00  0.00    +0.000 OA
ENDBRANCH  17  19
ENDBRANCH   1  17
BRANCH  11  21
ATOM     21  O   UNL     1       4.291   5.983  16.803  0.00  0.00    +0.000 OA
BRANCH  21  22
ATOM     22  C   UNL     1       5.656   6.262  16.726  0.00  0.00    +0.000 C 
ATOM     23  C   UNL     1       6.303   5.273  15.797  0.00  0.00    +0.000 C 
ATOM     24  O   UNL     1       6.258   7.155  17.305  0.00  0.00    +0.000 OA
ENDBRANCH  21  22
ENDBRANCH  11  21
TORSDOF 5
ENDMDL
MODEL 7
REMARK VINA RESULT:      -6.9      1.026      1.305
REMARK  Name = 
REMARK  7 active torsions:
REMARK  status: ('A' for Active; 'I' for Inactive)
REMARK    1  A    between atoms: C_1  and  C_2
REMARK    2  A    between atoms: C_2  and  O_4
REMARK    3  A    between atoms: O_4  and  C_5
REMARK    4  A    between atoms: C_10  and  C_11
REMARK    5  A    between atoms: C_20  and  O_21
REMARK    6  A    between atoms: O_21  and  C_22
REMARK    7  A    between atoms: C_22  and  C_23
REMARK                            x       y       z     vdW  Elec       q    Type
REMARK                         _______ _______ _______ _____ _____    ______ ____
ROOT
ATOM      1  C   UNL     1       3.610   5.824  18.717  0.00  0.00    +0.000 A 
ATOM      2  C   UNL     1       3.594   6.714  17.631  0.00  0.00    +0.000 A 
ATOM      3  C   UNL     1       2.849   7.891  17.687  0.00  0.00    +0.000 A 
ATOM      4  C   UNL     1       2.076   8.168  18.813  0.00  0.00    +0.000 A 
ATOM      5  C   UNL     1       1.350   9.419  18.933  0.00  0.00    +0.000 A 
ATOM      6  C   UNL     1       0.609   9.669  20.021  0.00  0.00    +0.000 A 
ATOM      7  C   UNL     1       0.427   8.642  21.084  0.00  0.00    +0.000 A 
ATOM      8  O   UNL     1      -0.362   8.784  22.012  0.00  0.00    +0.000 OA
ATOM      9  O   UNL     1       1.211   7.492  20.976  0.00  0.00    +0.000 OA
ATOM     10  C   UNL     1       2.051   7.252  19.865  0.00  0.00    +0.000 A 
ATOM     11  C   UNL     1       2.828   6.084  19.843  0.00  0.00    +0.000 A 
ENDROOT
BRANCH   6  12
ATOM     12  C   UNL     1       0.041  10.967  20.170  0.00  0.00    +0.000 A 
ATOM     13  C   UNL     1      -1.243  11.412  19.911  0.00  0.00    +0.000 A 
ATOM     14  C   UNL     1      -1.405  12.807  20.166  0.00  0.00    +0.000 A 
ATOM     15  C   UNL     1      -0.243  13.388  20.613  0.00  0.00    +0.000 A 
ATOM     16  S   UNL     1       1.035  12.262  20.730  0.00  0.00    +0.000 S 
ENDBRANCH   6  12
BRANCH   1  17
ATOM     17  O   UNL     1       4.307   4.614  18.584  0.00  0.00    +0.000 OA
BRANCH  17  19
ATOM     18  C   UNL     1       5.122   3.935  16.478  0.00  0.00    +0.000 C 
ATOM     19  C   UNL     1       3.987   3.854  17.456  0.00  0.00    +0.000 C 
ATOM     20  O   UNL     1       2.982   3.182  17.280  0.00  0.00    +0.000 OA
ENDBRANCH  17  19
ENDBRANCH   1  17
BRANCH  11  21
ATOM     21  O   UNL     1       2.680   5.211  20.942  0.00  0.00    +0.000 OA
BRANCH  21  22
ATOM     22  C   UNL     1       2.224   3.901  20.792  0.00  0.00    +0.000 C 
ATOM     23  C   UNL     1       0.858   3.931  20.165  0.00  0.00    +0.000 C 
ATOM     24  O   UNL     1       2.812   2.877  21.106  0.00  0.00    +0.000 OA
ENDBRANCH  21  22
ENDBRANCH  11  21
TORSDOF 5
ENDMDL
MODEL 8
REMARK VINA RESULT:      -6.8      1.755      2.065
REMARK  Name = 
REMARK  7 active torsions:
REMARK  status: ('A' for Active; 'I' for Inactive)
REMARK    1  A    between atoms: C_1  and  C_2
REMARK    2  A    between atoms: C_2  and  O_4
REMARK    3  A    between atoms: O_4  and  C_5
REMARK    4  A    between atoms: C_10  and  C_11
REMARK    5  A    between atoms: C_20  and  O_21
REMARK    6  A    between atoms: O_21  and  C_22
REMARK    7  A    between atoms: C_22  and  C_23
REMARK                            x       y       z     vdW  Elec       q    Type
REMARK                         _______ _______ _______ _____ _____    ______ ____
ROOT
ATOM      1  C   UNL     1       4.926   5.537  17.781  0.00  0.00    +0.000 A 
ATOM      2  C   UNL     1       4.789   6.442  16.716  0.00  0.00    +0.000 A 
ATOM      3  C   UNL     1       3.898   7.511  16.800  0.00  0.00    +0.000 A 
ATOM      4  C   UNL     1       3.101   7.659  17.934  0.00  0.00    +0.000 A 
ATOM      5  C   UNL     1       2.219   8.802  18.084  0.00  0.00    +0.000 A 
ATOM      6  C   UNL     1       1.457   8.929  19.178  0.00  0.00    +0.000 A 
ATOM      7  C   UNL     1       1.415   7.864  20.218  0.00  0.00    +0.000 A 
ATOM      8  O   UNL     1       0.618   7.880  21.150  0.00  0.00    +0.000 OA
ATOM      9  O   UNL     1       2.341   6.827  20.082  0.00  0.00    +0.000 OA
ATOM     10  C   UNL     1       3.200   6.724  18.965  0.00  0.00    +0.000 A 
ATOM     11  C   UNL     1       4.123   5.668  18.914  0.00  0.00    +0.000 A 
ENDROOT
BRANCH   6  12
ATOM     12  C   UNL     1       0.725  10.138  19.358  0.00  0.00    +0.000 A 
ATOM     13  C   UNL     1       0.982  11.219  20.182  0.00  0.00    +0.000 A 
ATOM     14  C   UNL     1      -0.020  12.232  20.091  0.00  0.00    +0.000 A 
ATOM     15  C   UNL     1      -1.010  11.899  19.199  0.00  0.00    +0.000 A 
ATOM     16  S   UNL     1      -0.736  10.379  18.472  0.00  0.00    +0.000 S 
ENDBRANCH   6  12
BRANCH   1  17
ATOM     17  O   UNL     1       5.774   4.432  17.619  0.00  0.00    +0.000 OA
BRANCH  17  19
ATOM     18  C   UNL     1       7.722   5.291  18.632  0.00  0.00    +0.000 C 
ATOM     19  C   UNL     1       7.117   4.733  17.378  0.00  0.00    +0.000 C 
ATOM     20  O   UNL     1       7.742   4.543  16.345  0.00  0.00    +0.000 OA
ENDBRANCH  17  19
ENDBRANCH   1  17
BRANCH  11  21
ATOM     21  O   UNL     1       4.095   4.759  19.993  0.00  0.00    +0.000 OA
BRANCH  21  22
ATOM     22  C   UNL     1       3.334   3.589  19.957  0.00  0.00    +0.000 C 
ATOM     23  C   UNL     1       4.255   2.407  20.070  0.00  0.00    +0.000 C 
ATOM     24  O   UNL     1       2.119   3.506  19.853  0.00  0.00    +0.000 OA
ENDBRANCH  21  22
ENDBRANCH  11  21
TORSDOF 5
ENDMDL
MODEL 9
REMARK VINA RESULT:      -6.8      1.844      2.305
REMARK  Name = 
REMARK  7 active torsions:
REMARK  status: ('A' for Active; 'I' for Inactive)
REMARK    1  A    between atoms: C_1  and  C_2
REMARK    2  A    between atoms: C_2  and  O_4
REMARK    3  A    between atoms: O_4  and  C_5
REMARK    4  A    between atoms: C_10  and  C_11
REMARK    5  A    between atoms: C_20  and  O_21
REMARK    6  A    between atoms: O_21  and  C_22
REMARK    7  A    between atoms: C_22  and  C_23
REMARK                            x       y       z     vdW  Elec       q    Type
REMARK                         _______ _______ _______ _____ _____    ______ ____
ROOT
ATOM      1  C   UNL     1       4.979   5.470  17.848  0.00  0.00    +0.000 A 
ATOM      2  C   UNL     1       4.857   6.318  16.737  0.00  0.00    +0.000 A 
ATOM      3  C   UNL     1       3.949   7.376  16.745  0.00  0.00    +0.000 A 
ATOM      4  C   UNL     1       3.122   7.568  17.850  0.00  0.00    +0.000 A 
ATOM      5  C   UNL     1       2.220   8.704  17.920  0.00  0.00    +0.000 A 
ATOM      6  C   UNL     1       1.428   8.873  18.988  0.00  0.00    +0.000 A 
ATOM      7  C   UNL     1       1.375   7.860  20.078  0.00  0.00    +0.000 A 
ATOM      8  O   UNL     1       0.555   7.911  20.989  0.00  0.00    +0.000 OA
ATOM      9  O   UNL     1       2.319   6.833  20.017  0.00  0.00    +0.000 OA
ATOM     10  C   UNL     1       3.208   6.688  18.928  0.00  0.00    +0.000 A 
ATOM     11  C   UNL     1       4.146   5.645  18.954  0.00  0.00    +0.000 A 
ENDROOT
BRANCH   6  12
ATOM     12  C   UNL     1       0.676  10.079  19.089  0.00  0.00    +0.000 A 
ATOM     13  C   UNL     1      -0.509  10.442  18.475  0.00  0.00    +0.000 A 
ATOM     14  C   UNL     1      -0.926  11.763  18.820  0.00  0.00    +0.000 A 
ATOM     15  C   UNL     1      -0.051  12.370  19.687  0.00  0.00    +0.000 A 
ATOM     16  S   UNL     1       1.263  11.357  20.089  0.00  0.00    +0.000 S 
ENDBRANCH   6  12
BRANCH   1  17
ATOM     17  O   UNL     1       5.847   4.371  17.763  0.00  0.00    +0.000 OA
BRANCH  17  19
ATOM     18  C   UNL     1       7.737   5.395  18.731  0.00  0.00    +0.000 C 
ATOM     19  C   UNL     1       7.189   4.680  17.531  0.00  0.00    +0.000 C 
ATOM     20  O   UNL     1       7.854   4.390  16.547  0.00  0.00    +0.000 OA
ENDBRANCH  17  19
ENDBRANCH   1  17
BRANCH  11  21
ATOM     21  O   UNL     1       4.103   4.790  20.075  0.00  0.00    +0.000 OA
BRANCH  21  22
ATOM     22  C   UNL     1       3.359   3.610  20.080  0.00  0.00    +0.000 C 
ATOM     23  C   UNL     1       2.325   3.691  21.169  0.00  0.00    +0.000 C 
ATOM     24  O   UNL     1       3.497   2.650  19.336  0.00  0.00    +0.000 OA
ENDBRANCH  21  22
ENDBRANCH  11  21
TORSDOF 5
ENDMDL
