MODEL 1
REMARK VINA RESULT:      -7.8      0.000      0.000
REMARK  Name = 
REMARK  4 active torsions:
REMARK  status: ('A' for Active; 'I' for Inactive)
REMARK    1  A    between atoms: C_2  and  C_3
REMARK    2  A    between atoms: C_7  and  C_8
REMARK    3  A    between atoms: C_10  and  C_11
REMARK    4  A    between atoms: C_10  and  C_18
REMARK                            x       y       z     vdW  Elec       q    Type
REMARK                         _______ _______ _______ _____ _____    ______ ____
ROOT
ATOM      1  C   UNL     1       1.601   8.349  19.460  0.00  0.00    +0.000 C 
ATOM      2  N   UNL     1       1.196   9.221  18.573  0.00  0.00    +0.000 NA
ATOM      3  C   UNL     1       0.429  10.292  19.346  0.00  0.00    +0.000 C 
ATOM      4  C   UNL     1       0.251   9.649  20.780  0.00  0.00    +0.000 C 
ATOM      5  N   UNL     1       1.110   8.499  20.724  0.00  0.00    +0.000 N 
ATOM      6  H   UNL     1       1.653   8.177  21.518  0.00  0.00    +0.000 HD
ENDROOT
BRANCH   3   7
ATOM      7  C   UNL     1      -0.925  10.584  18.669  0.00  0.00    +0.000 A 
ATOM      8  C   UNL     1      -1.834  11.518  19.206  0.00  0.00    +0.000 A 
ATOM      9  C   UNL     1      -3.061  11.770  18.585  0.00  0.00    +0.000 A 
ATOM     10  C   UNL     1      -3.380  11.112  17.406  0.00  0.00    +0.000 A 
ATOM     11  F   UNL     1      -4.554  11.360  16.811  0.00  0.00    +0.000 F 
ATOM     12  C   UNL     1      -2.498  10.206  16.836  0.00  0.00    +0.000 A 
ATOM     13  C   UNL     1      -1.276   9.944  17.462  0.00  0.00    +0.000 A 
ENDBRANCH   3   7
BRANCH   3  14
ATOM     14  C   UNL     1       1.288  11.585  19.378  0.00  0.00    +0.000 A 
ATOM     15  C   UNL     1       1.392  12.338  20.567  0.00  0.00    +0.000 A 
ATOM     16  C   UNL     1       2.138  13.518  20.618  0.00  0.00    +0.000 A 
ATOM     17  C   UNL     1       2.800  13.954  19.482  0.00  0.00    +0.000 A 
ATOM     18  F   UNL     1       3.505  15.092  19.521  0.00  0.00    +0.000 F 
ATOM     19  C   UNL     1       2.749  13.220  18.304  0.00  0.00    +0.000 A 
ATOM     20  C   UNL     1       2.010  12.033  18.256  0.00  0.00    +0.000 A 
ENDBRANCH   3  14
BRANCH   1  25
ATOM     21  C   UNL     1       4.091   6.400  17.640  0.00  0.00    +0.000 A 
ATOM     22  C   UNL     1       4.279   5.262  18.419  0.00  0.00    +0.000 A 
ATOM     23  C   UNL     1       3.548   5.136  19.597  0.00  0.00    +0.000 A 
ATOM     24  C   UNL     1       2.667   6.147  19.963  0.00  0.00    +0.000 A 
ATOM     25  C   UNL     1       2.545   7.247  19.124  0.00  0.00    +0.000 A 
ATOM     26  N   UNL     1       3.229   7.394  17.958  0.00  0.00    +0.000 NA
BRANCH  21  28
ATOM     27  N   UNL     1       5.445   6.688  15.440  0.00  0.00    +0.000 NA
ATOM     28  C   UNL     1       4.834   6.579  16.422  0.00  0.00    +0.000 C 
ENDBRANCH  21  28
ENDBRANCH   1  25
TORSDOF 4
ENDMDL
MODEL 2
REMARK VINA RESULT:      -7.8      0.058      1.314
REMARK  Name = 
REMARK  4 active torsions:
REMARK  status: ('A' for Active; 'I' for Inactive)
REMARK    1  A    between atoms: C_2  and  C_3
REMARK    2  A    between atoms: C_7  and  C_8
REMARK    3  A    between atoms: C_10  and  C_11
REMARK    4  A    between atoms: C_10  and  C_18
REMARK                            x       y       z     vdW  Elec       q    Type
REMARK                         _______ _______ _______ _____ _____    ______ ____
ROOT
ATOM      1  C   UNL     1       1.592   8.357  19.456  0.00  0.00    +0.000 C 
ATOM      2  N   UNL     1       1.202   9.241  18.574  0.00  0.00    +0.000 NA
ATOM      3  C   UNL     1       0.427  10.305  19.348  0.00  0.00    +0.000 C 
ATOM      4  C   UNL     1       0.227   9.646  20.772  0.00  0.00    +0.000 C 
ATOM      5  N   UNL     1       1.083   8.493  20.715  0.00  0.00    +0.000 N 
ATOM      6  H   UNL     1       1.614   8.160  21.512  0.00  0.00    +0.000 HD
ENDROOT
BRANCH   3   7
ATOM      7  C   UNL     1      -0.916  10.610  18.656  0.00  0.00    +0.000 A 
ATOM      8  C   UNL     1      -1.294   9.969  17.459  0.00  0.00    +0.000 A 
ATOM      9  C   UNL     1      -2.513  10.258  16.840  0.00  0.00    +0.000 A 
ATOM     10  C   UNL     1      -3.379  11.171  17.424  0.00  0.00    +0.000 A 
ATOM     11  F   UNL     1      -4.549  11.441  16.830  0.00  0.00    +0.000 F 
ATOM     12  C   UNL     1      -3.051  11.800  18.615  0.00  0.00    +0.000 A 
ATOM     13  C   UNL     1      -1.827  11.522  19.230  0.00  0.00    +0.000 A 
ENDBRANCH   3   7
BRANCH   3  14
ATOM     14  C   UNL     1       1.291  11.595  19.408  0.00  0.00    +0.000 A 
ATOM     15  C   UNL     1       1.963  12.052  18.254  0.00  0.00    +0.000 A 
ATOM     16  C   UNL     1       2.766  13.195  18.286  0.00  0.00    +0.000 A 
ATOM     17  C   UNL     1       2.899  13.902  19.470  0.00  0.00    +0.000 A 
ATOM     18  F   UNL     1       3.679  14.989  19.510  0.00  0.00    +0.000 F 
ATOM     19  C   UNL     1       2.224  13.500  20.616  0.00  0.00    +0.000 A 
ATOM     20  C   UNL     1       1.412  12.361  20.582  0.00  0.00    +0.000 A 
ENDBRANCH   3  14
BRANCH   1  25
ATOM     21  C   UNL     1       4.090   6.415  17.640  0.00  0.00    +0.000 A 
ATOM     22  C   UNL     1       4.273   5.273  18.415  0.00  0.00    +0.000 A 
ATOM     23  C   UNL     1       3.535   5.142  19.588  0.00  0.00    +0.000 A 
ATOM     24  C   UNL     1       2.653   6.152  19.954  0.00  0.00    +0.000 A 
ATOM     25  C   UNL     1       2.536   7.256  19.120  0.00  0.00    +0.000 A 
ATOM     26  N   UNL     1       3.226   7.408  17.958  0.00  0.00    +0.000 NA
BRANCH  21  28
ATOM     27  N   UNL     1       5.426   6.720  15.431  0.00  0.00    +0.000 NA
ATOM     28  C   UNL     1       4.839   6.599  16.427  0.00  0.00    +0.000 C 
ENDBRANCH  21  28
ENDBRANCH   1  25
TORSDOF 4
ENDMDL
MODEL 3
REMARK VINA RESULT:      -7.6      1.138      1.821
REMARK  Name = 
REMARK  4 active torsions:
REMARK  status: ('A' for Active; 'I' for Inactive)
REMARK    1  A    between atoms: C_2  and  C_3
REMARK    2  A    between atoms: C_7  and  C_8
REMARK    3  A    between atoms: C_10  and  C_11
REMARK    4  A    between atoms: C_10  and  C_18
REMARK                            x       y       z     vdW  Elec       q    Type
REMARK                         _______ _______ _______ _____ _____    ______ ____
ROOT
ATOM      1  C   UNL     1       1.666   8.384  19.244  0.00  0.00    +0.000 C 
ATOM      2  N   UNL     1       1.208   9.301  18.430  0.00  0.00    +0.000 NA
ATOM      3  C   UNL     1       0.486  10.325  19.303  0.00  0.00    +0.000 C 
ATOM      4  C   UNL     1       0.395   9.606  20.708  0.00  0.00    +0.000 C 
ATOM      5  N   UNL     1       1.250   8.464  20.540  0.00  0.00    +0.000 N 
ATOM      6  H   UNL     1       1.840   8.103  21.283  0.00  0.00    +0.000 HD
ENDROOT
BRANCH   3   7
ATOM      7  C   UNL     1      -0.906  10.647  18.723  0.00  0.00    +0.000 A 
ATOM      8  C   UNL     1      -1.768  11.575  19.343  0.00  0.00    +0.000 A 
ATOM      9  C   UNL     1      -3.029  11.854  18.810  0.00  0.00    +0.000 A 
ATOM     10  C   UNL     1      -3.432  11.230  17.638  0.00  0.00    +0.000 A 
ATOM     11  F   UNL     1      -4.639  11.505  17.127  0.00  0.00    +0.000 F 
ATOM     12  C   UNL     1      -2.598  10.332  16.987  0.00  0.00    +0.000 A 
ATOM     13  C   UNL     1      -1.341  10.043  17.526  0.00  0.00    +0.000 A 
ENDBRANCH   3   7
BRANCH   3  14
ATOM     14  C   UNL     1       1.345  11.618  19.354  0.00  0.00    +0.000 A 
ATOM     15  C   UNL     1       1.474  12.336  20.563  0.00  0.00    +0.000 A 
ATOM     16  C   UNL     1       2.220  13.516  20.632  0.00  0.00    +0.000 A 
ATOM     17  C   UNL     1       2.855  13.987  19.495  0.00  0.00    +0.000 A 
ATOM     18  F   UNL     1       3.559  15.125  19.551  0.00  0.00    +0.000 F 
ATOM     19  C   UNL     1       2.778  13.288  18.297  0.00  0.00    +0.000 A 
ATOM     20  C   UNL     1       2.039  12.102  18.230  0.00  0.00    +0.000 A 
ENDBRANCH   3  14
BRANCH   1  25
ATOM     21  C   UNL     1       3.371   5.161  19.111  0.00  0.00    +0.000 A 
ATOM     22  C   UNL     1       4.265   5.284  18.051  0.00  0.00    +0.000 A 
ATOM     23  C   UNL     1       4.304   6.488  17.352  0.00  0.00    +0.000 A 
ATOM     24  C   UNL     1       3.448   7.519  17.724  0.00  0.00    +0.000 A 
ATOM     25  C   UNL     1       2.590   7.306  18.794  0.00  0.00    +0.000 A 
ATOM     26  N   UNL     1       2.538   6.151  19.510  0.00  0.00    +0.000 NA
BRANCH  21  28
ATOM     27  N   UNL     1       3.235   2.922  20.424  0.00  0.00    +0.000 NA
ATOM     28  C   UNL     1       3.287   3.933  19.853  0.00  0.00    +0.000 C 
ENDBRANCH  21  28
ENDBRANCH   1  25
TORSDOF 4
ENDMDL
MODEL 4
REMARK VINA RESULT:      -7.6      1.129      2.234
REMARK  Name = 
REMARK  4 active torsions:
REMARK  status: ('A' for Active; 'I' for Inactive)
REMARK    1  A    between atoms: C_2  and  C_3
REMARK    2  A    between atoms: C_7  and  C_8
REMARK    3  A    between atoms: C_10  and  C_11
REMARK    4  A    between atoms: C_10  and  C_18
REMARK                            x       y       z     vdW  Elec       q    Type
REMARK                         _______ _______ _______ _____ _____    ______ ____
ROOT
ATOM      1  C   UNL     1       1.666   8.407  19.222  0.00  0.00    +0.000 C 
ATOM      2  N   UNL     1       1.218   9.340  18.421  0.00  0.00    +0.000 NA
ATOM      3  C   UNL     1       0.477  10.342  19.303  0.00  0.00    +0.000 C 
ATOM      4  C   UNL     1       0.364   9.591  20.690  0.00  0.00    +0.000 C 
ATOM      5  N   UNL     1       1.228   8.456  20.513  0.00  0.00    +0.000 N 
ATOM      6  H   UNL     1       1.806   8.081  21.257  0.00  0.00    +0.000 HD
ENDROOT
BRANCH   3   7
ATOM      7  C   UNL     1      -0.906  10.670  18.707  0.00  0.00    +0.000 A 
ATOM      8  C   UNL     1      -1.370  10.050  17.529  0.00  0.00    +0.000 A 
ATOM      9  C   UNL     1      -2.625  10.360  16.997  0.00  0.00    +0.000 A 
ATOM     10  C   UNL     1      -3.440  11.274  17.649  0.00  0.00    +0.000 A 
ATOM     11  F   UNL     1      -4.644  11.564  17.139  0.00  0.00    +0.000 F 
ATOM     12  C   UNL     1      -3.026  11.883  18.825  0.00  0.00    +0.000 A 
ATOM     13  C   UNL     1      -1.767  11.582  19.352  0.00  0.00    +0.000 A 
ENDBRANCH   3   7
BRANCH   3  14
ATOM     14  C   UNL     1       1.328  11.637  19.397  0.00  0.00    +0.000 A 
ATOM     15  C   UNL     1       1.994  12.133  18.255  0.00  0.00    +0.000 A 
ATOM     16  C   UNL     1       2.787  13.281  18.318  0.00  0.00    +0.000 A 
ATOM     17  C   UNL     1       2.915  13.956  19.521  0.00  0.00    +0.000 A 
ATOM     18  F   UNL     1       3.686  15.049  19.590  0.00  0.00    +0.000 F 
ATOM     19  C   UNL     1       2.247  13.516  20.656  0.00  0.00    +0.000 A 
ATOM     20  C   UNL     1       1.445  12.371  20.592  0.00  0.00    +0.000 A 
ENDBRANCH   3  14
BRANCH   1  25
ATOM     21  C   UNL     1       3.412   5.207  19.070  0.00  0.00    +0.000 A 
ATOM     22  C   UNL     1       4.301   5.346  18.009  0.00  0.00    +0.000 A 
ATOM     23  C   UNL     1       4.323   6.553  17.315  0.00  0.00    +0.000 A 
ATOM     24  C   UNL     1       3.455   7.571  17.694  0.00  0.00    +0.000 A 
ATOM     25  C   UNL     1       2.602   7.343  18.765  0.00  0.00    +0.000 A 
ATOM     26  N   UNL     1       2.568   6.184  19.476  0.00  0.00    +0.000 NA
BRANCH  21  28
ATOM     27  N   UNL     1       3.277   2.961  20.373  0.00  0.00    +0.000 NA
ATOM     28  C   UNL     1       3.346   3.974  19.808  0.00  0.00    +0.000 C 
ENDBRANCH  21  28
ENDBRANCH   1  25
TORSDOF 4
ENDMDL
MODEL 5
REMARK VINA RESULT:      -7.4      2.177      4.923
REMARK  Name = 
REMARK  4 active torsions:
REMARK  status: ('A' for Active; 'I' for Inactive)
REMARK    1  A    between atoms: C_2  and  C_3
REMARK    2  A    between atoms: C_7  and  C_8
REMARK    3  A    between atoms: C_10  and  C_11
REMARK    4  A    between atoms: C_10  and  C_18
REMARK                            x       y       z     vdW  Elec       q    Type
REMARK                         _______ _______ _______ _____ _____    ______ ____
ROOT
ATOM      1  C   UNL     1       1.517   9.548  18.827  0.00  0.00    +0.000 C 
ATOM      2  N   UNL     1       0.438   9.681  19.556  0.00  0.00    +0.000 NA
ATOM      3  C   UNL     1      -0.093  11.086  19.282  0.00  0.00    +0.000 C 
ATOM      4  C   UNL     1       1.093  11.776  18.495  0.00  0.00    +0.000 C 
ATOM      5  N   UNL     1       1.970  10.674  18.206  0.00  0.00    +0.000 N 
ATOM      6  H   UNL     1       2.492  10.598  17.340  0.00  0.00    +0.000 HD
ENDROOT
BRANCH   3   7
ATOM      7  C   UNL     1      -0.412  11.813  20.604  0.00  0.00    +0.000 A 
ATOM      8  C   UNL     1      -0.919  11.123  21.724  0.00  0.00    +0.000 A 
ATOM      9  C   UNL     1      -1.208  11.795  22.915  0.00  0.00    +0.000 A 
ATOM     10  C   UNL     1      -0.969  13.158  23.008  0.00  0.00    +0.000 A 
ATOM     11  F   UNL     1      -1.241  13.798  24.153  0.00  0.00    +0.000 F 
ATOM     12  C   UNL     1      -0.445  13.864  21.935  0.00  0.00    +0.000 A 
ATOM     13  C   UNL     1      -0.166  13.195  20.739  0.00  0.00    +0.000 A 
ENDBRANCH   3   7
BRANCH   3  14
ATOM     14  C   UNL     1      -1.382  10.966  18.426  0.00  0.00    +0.000 A 
ATOM     15  C   UNL     1      -1.443  10.039  17.363  0.00  0.00    +0.000 A 
ATOM     16  C   UNL     1      -2.582   9.928  16.560  0.00  0.00    +0.000 A 
ATOM     17  C   UNL     1      -3.678  10.734  16.817  0.00  0.00    +0.000 A 
ATOM     18  F   UNL     1      -4.766  10.642  16.042  0.00  0.00    +0.000 F 
ATOM     19  C   UNL     1      -3.666  11.633  17.876  0.00  0.00    +0.000 A 
ATOM     20  C   UNL     1      -2.530  11.738  18.686  0.00  0.00    +0.000 A 
ENDBRANCH   3  14
BRANCH   1  25
ATOM     21  C   UNL     1       2.606   6.135  19.520  0.00  0.00    +0.000 A 
ATOM     22  C   UNL     1       3.493   5.838  18.489  0.00  0.00    +0.000 A 
ATOM     23  C   UNL     1       3.740   6.811  17.525  0.00  0.00    +0.000 A 
ATOM     24  C   UNL     1       3.091   8.037  17.613  0.00  0.00    +0.000 A 
ATOM     25  C   UNL     1       2.223   8.245  18.676  0.00  0.00    +0.000 A 
ATOM     26  N   UNL     1       1.972   7.325  19.646  0.00  0.00    +0.000 NA
BRANCH  21  28
ATOM     27  N   UNL     1       2.034   4.371  21.342  0.00  0.00    +0.000 NA
ATOM     28  C   UNL     1       2.310   5.156  20.531  0.00  0.00    +0.000 C 
ENDBRANCH  21  28
ENDBRANCH   1  25
TORSDOF 4
ENDMDL
MODEL 6
REMARK VINA RESULT:      -7.4      1.654      2.515
REMARK  Name = 
REMARK  4 active torsions:
REMARK  status: ('A' for Active; 'I' for Inactive)
REMARK    1  A    between atoms: C_2  and  C_3
REMARK    2  A    between atoms: C_7  and  C_8
REMARK    3  A    between atoms: C_10  and  C_11
REMARK    4  A    between atoms: C_10  and  C_18
REMARK                            x       y       z     vdW  Elec       q    Type
REMARK                         _______ _______ _______ _____ _____    ______ ____
ROOT
ATOM      1  C   UNL     1       1.247   8.613  20.157  0.00  0.00    +0.000 C 
ATOM      2  N   UNL     1       0.797   9.434  19.243  0.00  0.00    +0.000 NA
ATOM      3  C   UNL     1       0.292  10.669  19.986  0.00  0.00    +0.000 C 
ATOM      4  C   UNL     1       0.288  10.206  21.499  0.00  0.00    +0.000 C 
ATOM      5  N   UNL     1       0.993   8.955  21.454  0.00  0.00    +0.000 N 
ATOM      6  H   UNL     1       1.623   8.650  22.188  0.00  0.00    +0.000 HD
ENDROOT
BRANCH   3   7
ATOM      7  C   UNL     1      -1.115  11.061  19.495  0.00  0.00    +0.000 A 
ATOM      8  C   UNL     1      -1.877  12.051  20.148  0.00  0.00    +0.000 A 
ATOM      9  C   UNL     1      -3.154  12.394  19.695  0.00  0.00    +0.000 A 
ATOM     10  C   UNL     1      -3.673  11.770  18.569  0.00  0.00    +0.000 A 
ATOM     11  F   UNL     1      -4.894  12.106  18.135  0.00  0.00    +0.000 F 
ATOM     12  C   UNL     1      -2.939  10.811  17.887  0.00  0.00    +0.000 A 
ATOM     13  C   UNL     1      -1.667  10.458  18.346  0.00  0.00    +0.000 A 
ENDBRANCH   3   7
BRANCH   3  14
ATOM     14  C   UNL     1       1.282  11.837  19.727  0.00  0.00    +0.000 A 
ATOM     15  C   UNL     1       1.829  12.030  18.440  0.00  0.00    +0.000 A 
ATOM     16  C   UNL     1       2.742  13.057  18.185  0.00  0.00    +0.000 A 
ATOM     17  C   UNL     1       3.109  13.912  19.211  0.00  0.00    +0.000 A 
ATOM     18  F   UNL     1       3.994  14.889  18.976  0.00  0.00    +0.000 F 
ATOM     19  C   UNL     1       2.565  13.772  20.481  0.00  0.00    +0.000 A 
ATOM     20  C   UNL     1       1.644  12.750  20.735  0.00  0.00    +0.000 A 
ENDBRANCH   3  14
BRANCH   1  25
ATOM     21  C   UNL     1       2.496   5.192  20.380  0.00  0.00    +0.000 A 
ATOM     22  C   UNL     1       3.343   5.060  19.284  0.00  0.00    +0.000 A 
ATOM     23  C   UNL     1       3.507   6.152  18.436  0.00  0.00    +0.000 A 
ATOM     24  C   UNL     1       2.817   7.330  18.701  0.00  0.00    +0.000 A 
ATOM     25  C   UNL     1       1.993   7.370  19.818  0.00  0.00    +0.000 A 
ATOM     26  N   UNL     1       1.824   6.330  20.677  0.00  0.00    +0.000 NA
BRANCH  21  28
ATOM     27  N   UNL     1       2.113   3.172  21.970  0.00  0.00    +0.000 NA
ATOM     28  C   UNL     1       2.286   4.087  21.276  0.00  0.00    +0.000 C 
ENDBRANCH  21  28
ENDBRANCH   1  25
TORSDOF 4
ENDMDL
MODEL 7
REMARK VINA RESULT:      -7.4      1.618      2.490
REMARK  Name = 
REMARK  4 active torsions:
REMARK  status: ('A' for Active; 'I' for Inactive)
REMARK    1  A    between atoms: C_2  and  C_3
REMARK    2  A    between atoms: C_7  and  C_8
REMARK    3  A    between atoms: C_10  and  C_11
REMARK    4  A    between atoms: C_10  and  C_18
REMARK                            x       y       z     vdW  Elec       q    Type
REMARK                         _______ _______ _______ _____ _____    ______ ____
ROOT
ATOM      1  C   UNL     1       1.271   8.598  20.095  0.00  0.00    +0.000 C 
ATOM      2  N   UNL     1       0.841   9.415  19.168  0.00  0.00    +0.000 NA
ATOM      3  C   UNL     1       0.320  10.652  19.897  0.00  0.00    +0.000 C 
ATOM      4  C   UNL     1       0.283  10.194  21.410  0.00  0.00    +0.000 C 
ATOM      5  N   UNL     1       0.990   8.943  21.384  0.00  0.00    +0.000 N 
ATOM      6  H   UNL     1       1.604   8.641  22.133  0.00  0.00    +0.000 HD
ENDROOT
BRANCH   3   7
ATOM      7  C   UNL     1      -1.078  11.041  19.374  0.00  0.00    +0.000 A 
ATOM      8  C   UNL     1      -1.621  10.458  18.211  0.00  0.00    +0.000 A 
ATOM      9  C   UNL     1      -2.887  10.824  17.745  0.00  0.00    +0.000 A 
ATOM     10  C   UNL     1      -3.634  11.756  18.451  0.00  0.00    +0.000 A 
ATOM     11  F   UNL     1      -4.850  12.099  18.005  0.00  0.00    +0.000 F 
ATOM     12  C   UNL     1      -3.141  12.329  19.614  0.00  0.00    +0.000 A 
ATOM     13  C   UNL     1      -1.870  11.974  20.074  0.00  0.00    +0.000 A 
ENDBRANCH   3   7
BRANCH   3  14
ATOM     14  C   UNL     1       1.314  11.820  19.655  0.00  0.00    +0.000 A 
ATOM     15  C   UNL     1       1.650  12.695  20.711  0.00  0.00    +0.000 A 
ATOM     16  C   UNL     1       2.522  13.769  20.515  0.00  0.00    +0.000 A 
ATOM     17  C   UNL     1       3.080  13.974  19.264  0.00  0.00    +0.000 A 
ATOM     18  F   UNL     1       3.905  15.010  19.067  0.00  0.00    +0.000 F 
ATOM     19  C   UNL     1       2.800  13.112  18.212  0.00  0.00    +0.000 A 
ATOM     20  C   UNL     1       1.934  12.031  18.409  0.00  0.00    +0.000 A 
ENDBRANCH   3  14
BRANCH   1  25
ATOM     21  C   UNL     1       2.533   5.185  20.366  0.00  0.00    +0.000 A 
ATOM     22  C   UNL     1       3.389   5.044  19.278  0.00  0.00    +0.000 A 
ATOM     23  C   UNL     1       3.556   6.127  18.419  0.00  0.00    +0.000 A 
ATOM     24  C   UNL     1       2.859   7.304  18.666  0.00  0.00    +0.000 A 
ATOM     25  C   UNL     1       2.026   7.354  19.775  0.00  0.00    +0.000 A 
ATOM     26  N   UNL     1       1.854   6.323  20.645  0.00  0.00    +0.000 NA
BRANCH  21  28
ATOM     27  N   UNL     1       2.131   3.185  21.977  0.00  0.00    +0.000 NA
ATOM     28  C   UNL     1       2.320   4.089  21.273  0.00  0.00    +0.000 C 
ENDBRANCH  21  28
ENDBRANCH   1  25
TORSDOF 4
ENDMDL
MODEL 8
REMARK VINA RESULT:      -7.3      3.081      6.748
REMARK  Name = 
REMARK  4 active torsions:
REMARK  status: ('A' for Active; 'I' for Inactive)
REMARK    1  A    between atoms: C_2  and  C_3
REMARK    2  A    between atoms: C_7  and  C_8
REMARK    3  A    between atoms: C_10  and  C_11
REMARK    4  A    between atoms: C_10  and  C_18
REMARK                            x       y       z     vdW  Elec       q    Type
REMARK                         _______ _______ _______ _____ _____    ______ ____
ROOT
ATOM      1  C   UNL     1       1.645  12.865  19.363  0.00  0.00    +0.000 C 
ATOM      2  N   UNL     1       1.501  11.787  18.635  0.00  0.00    +0.000 NA
ATOM      3  C   UNL     1       0.586  10.855  19.426  0.00  0.00    +0.000 C 
ATOM      4  C   UNL     1       0.521  11.534  20.853  0.00  0.00    +0.000 C 
ATOM      5  N   UNL     1       1.141  12.811  20.629  0.00  0.00    +0.000 N 
ATOM      6  H   UNL     1       0.830  13.662  21.085  0.00  0.00    +0.000 HD
ENDROOT
BRANCH   3   7
ATOM      7  C   UNL     1       1.180   9.433  19.486  0.00  0.00    +0.000 A 
ATOM      8  C   UNL     1       1.895   8.884  18.402  0.00  0.00    +0.000 A 
ATOM      9  C   UNL     1       2.424   7.592  18.468  0.00  0.00    +0.000 A 
ATOM     10  C   UNL     1       2.267   6.845  19.627  0.00  0.00    +0.000 A 
ATOM     11  F   UNL     1       2.781   5.610  19.688  0.00  0.00    +0.000 F 
ATOM     12  C   UNL     1       1.593   7.365  20.722  0.00  0.00    +0.000 A 
ATOM     13  C   UNL     1       1.053   8.652  20.654  0.00  0.00    +0.000 A 
ENDBRANCH   3   7
BRANCH   3  14
ATOM     14  C   UNL     1      -0.799  10.816  18.725  0.00  0.00    +0.000 A 
ATOM     15  C   UNL     1      -1.850  11.638  19.186  0.00  0.00    +0.000 A 
ATOM     16  C   UNL     1      -3.113  11.604  18.590  0.00  0.00    +0.000 A 
ATOM     17  C   UNL     1      -3.338  10.757  17.517  0.00  0.00    +0.000 A 
ATOM     18  F   UNL     1      -4.551  10.710  16.952  0.00  0.00    +0.000 F 
ATOM     19  C   UNL     1      -2.318   9.959  17.016  0.00  0.00    +0.000 A 
ATOM     20  C   UNL     1      -1.050   9.999  17.606  0.00  0.00    +0.000 A 
ENDBRANCH   3  14
BRANCH   1  25
ATOM     21  C   UNL     1       4.275  15.071  18.128  0.00  0.00    +0.000 A 
ATOM     22  C   UNL     1       3.640  16.293  17.932  0.00  0.00    +0.000 A 
ATOM     23  C   UNL     1       2.282  16.390  18.224  0.00  0.00    +0.000 A 
ATOM     24  C   UNL     1       1.604  15.268  18.687  0.00  0.00    +0.000 A 
ATOM     25  C   UNL     1       2.319  14.090  18.851  0.00  0.00    +0.000 A 
ATOM     26  N   UNL     1       3.649  13.965  18.595  0.00  0.00    +0.000 NA
BRANCH  21  28
ATOM     27  N   UNL     1       6.807  14.775  17.615  0.00  0.00    +0.000 NA
ATOM     28  C   UNL     1       5.674  14.920  17.828  0.00  0.00    +0.000 C 
ENDBRANCH  21  28
ENDBRANCH   1  25
TORSDOF 4
ENDMDL
MODEL 9
REMARK VINA RESULT:      -7.3      1.946      4.522
REMARK  Name = 
REMARK  4 active torsions:
REMARK  status: ('A' for Active; 'I' for Inactive)
REMARK    1  A    between atoms: C_2  and  C_3
REMARK    2  A    between atoms: C_7  and  C_8
REMARK    3  A    between atoms: C_10  and  C_11
REMARK    4  A    between atoms: C_10  and  C_18
REMARK                            x       y       z     vdW  Elec       q    Type
REMARK                         _______ _______ _______ _____ _____    ______ ____
ROOT
ATOM      1  C   UNL     1       1.521   9.499  18.932  0.00  0.00    +0.000 C 
ATOM      2  N   UNL     1       0.436   9.666  19.644  0.00  0.00    +0.000 NA
ATOM      3  C   UNL     1      -0.075  11.069  19.323  0.00  0.00    +0.000 C 
ATOM      4  C   UNL     1       1.127  11.721  18.528  0.00  0.00    +0.000 C 
ATOM      5  N   UNL     1       1.994  10.601  18.283  0.00  0.00    +0.000 N 
ATOM      6  H   UNL     1       2.525  10.493  17.425  0.00  0.00    +0.000 HD
ENDROOT
BRANCH   3   7
ATOM      7  C   UNL     1      -0.400  11.839  20.619  0.00  0.00    +0.000 A 
ATOM      8  C   UNL     1      -0.937  11.190  21.749  0.00  0.00    +0.000 A 
ATOM      9  C   UNL     1      -1.231  11.901  22.916  0.00  0.00    +0.000 A 
ATOM     10  C   UNL     1      -0.967  13.262  22.975  0.00  0.00    +0.000 A 
ATOM     11  F   UNL     1      -1.244  13.939  24.097  0.00  0.00    +0.000 F 
ATOM     12  C   UNL     1      -0.413  13.926  21.890  0.00  0.00    +0.000 A 
ATOM     13  C   UNL     1      -0.130  13.219  20.718  0.00  0.00    +0.000 A 
ENDBRANCH   3   7
BRANCH   3  14
ATOM     14  C   UNL     1      -1.356  10.938  18.456  0.00  0.00    +0.000 A 
ATOM     15  C   UNL     1      -1.400  10.013  17.390  0.00  0.00    +0.000 A 
ATOM     16  C   UNL     1      -2.530   9.892  16.578  0.00  0.00    +0.000 A 
ATOM     17  C   UNL     1      -3.637  10.686  16.829  0.00  0.00    +0.000 A 
ATOM     18  F   UNL     1      -4.718  10.585  16.045  0.00  0.00    +0.000 F 
ATOM     19  C   UNL     1      -3.643  11.582  17.891  0.00  0.00    +0.000 A 
ATOM     20  C   UNL     1      -2.514  11.697  18.710  0.00  0.00    +0.000 A 
ENDBRANCH   3  14
BRANCH   1  25
ATOM     21  C   UNL     1       3.689   6.854  17.660  0.00  0.00    +0.000 A 
ATOM     22  C   UNL     1       3.506   5.799  18.548  0.00  0.00    +0.000 A 
ATOM     23  C   UNL     1       2.626   5.971  19.613  0.00  0.00    +0.000 A 
ATOM     24  C   UNL     1       1.969   7.187  19.762  0.00  0.00    +0.000 A 
ATOM     25  C   UNL     1       2.213   8.184  18.828  0.00  0.00    +0.000 A 
ATOM     26  N   UNL     1       3.051   8.044  17.766  0.00  0.00    +0.000 NA
BRANCH  21  28
ATOM     27  N   UNL     1       5.360   6.618  15.682  0.00  0.00    +0.000 NA
ATOM     28  C   UNL     1       4.597   6.727  16.553  0.00  0.00    +0.000 C 
ENDBRANCH  21  28
ENDBRANCH   1  25
TORSDOF 4
ENDMDL
