MODEL 1
REMARK VINA RESULT:      -8.1      0.000      0.000
REMARK  Name = 
REMARK  4 active torsions:
REMARK  status: ('A' for Active; 'I' for Inactive)
REMARK    1  A    between atoms: C_4  and  C_5
REMARK    2  A    between atoms: C_11  and  C_12
REMARK    3  A    between atoms: N_14  and  C_15
REMARK    4  A    between atoms: C_15  and  C_16
REMARK                            x       y       z     vdW  Elec       q    Type
REMARK                         _______ _______ _______ _____ _____    ______ ____
ROOT
ATOM      1  C   UNL     1      -2.846  10.425  15.724  0.00  0.00    +0.000 C 
ATOM      2  C   UNL     1      -2.278  10.630  16.921  0.00  0.00    +0.000 C 
ATOM      3  C   UNL     1      -2.934  11.511  17.887  0.00  0.00    +0.000 C 
ATOM      4  C   UNL     1      -2.379  11.749  19.094  0.00  0.00    +0.000 C 
ATOM      5  N   UNL     1      -1.171  11.130  19.431  0.00  0.00    +0.000 N 
ATOM      6  N   UNL     1      -0.487  11.213  20.603  0.00  0.00    +0.000 NA
ATOM      7  C   UNL     1       0.589  10.449  20.419  0.00  0.00    +0.000 A 
ATOM      8  C   UNL     1       0.649   9.832  19.149  0.00  0.00    +0.000 A 
ATOM      9  C   UNL     1      -0.509  10.276  18.539  0.00  0.00    +0.000 A 
ATOM     10  N   UNL     1      -1.080  10.050  17.319  0.00  0.00    +0.000 N 
ATOM     11  H   UNL     1      -0.624   9.433  16.647  0.00  0.00    +0.000 HD
ENDROOT
BRANCH   8  12
ATOM     12  C   UNL     1       1.646   8.925  18.592  0.00  0.00    +0.000 C 
ATOM     13  O   UNL     1       2.070   9.047  17.447  0.00  0.00    +0.000 OA
ATOM     14  N   UNL     1       2.060   7.913  19.438  0.00  0.00    +0.000 N 
ATOM     15  H   UNL     1       1.725   7.873  20.385  0.00  0.00    +0.000 HD
BRANCH  14  16
ATOM     16  C   UNL     1       2.975   6.871  19.023  0.00  0.00    +0.000 C 
BRANCH  16  17
ATOM     17  C   UNL     1       2.328   5.509  18.972  0.00  0.00    +0.000 A 
ATOM     18  C   UNL     1       1.639   4.985  20.078  0.00  0.00    +0.000 A 
ATOM     19  C   UNL     1       1.014   3.736  19.997  0.00  0.00    +0.000 A 
ATOM     20  C   UNL     1       1.082   3.007  18.816  0.00  0.00    +0.000 A 
ATOM     21  F   UNL     1       0.474   1.818  18.737  0.00  0.00    +0.000 F 
ATOM     22  C   UNL     1       1.768   3.502  17.713  0.00  0.00    +0.000 A 
ATOM     23  C   UNL     1       2.395   4.747  17.793  0.00  0.00    +0.000 A 
ENDBRANCH  16  17
ENDBRANCH  14  16
ENDBRANCH   8  12
BRANCH   4  24
ATOM     24  C   UNL     1      -2.995  12.628  20.122  0.00  0.00    +0.000 C 
ATOM     25  F   UNL     1      -2.336  13.817  20.199  0.00  0.00    +0.000 F 
ATOM     26  F   UNL     1      -4.280  12.947  19.791  0.00  0.00    +0.000 F 
ENDBRANCH   4  24
TORSDOF 4
ENDMDL
MODEL 2
REMARK VINA RESULT:      -7.8      0.446      1.188
REMARK  Name = 
REMARK  4 active torsions:
REMARK  status: ('A' for Active; 'I' for Inactive)
REMARK    1  A    between atoms: C_4  and  C_5
REMARK    2  A    between atoms: C_11  and  C_12
REMARK    3  A    between atoms: N_14  and  C_15
REMARK    4  A    between atoms: C_15  and  C_16
REMARK                            x       y       z     vdW  Elec       q    Type
REMARK                         _______ _______ _______ _____ _____    ______ ____
ROOT
ATOM      1  C   UNL     1      -2.848  10.528  15.732  0.00  0.00    +0.000 C 
ATOM      2  C   UNL     1      -2.276  10.732  16.927  0.00  0.00    +0.000 C 
ATOM      3  C   UNL     1      -2.909  11.644  17.881  0.00  0.00    +0.000 C 
ATOM      4  C   UNL     1      -2.349  11.881  19.086  0.00  0.00    +0.000 C 
ATOM      5  N   UNL     1      -1.158  11.235  19.432  0.00  0.00    +0.000 N 
ATOM      6  N   UNL     1      -0.473  11.314  20.603  0.00  0.00    +0.000 NA
ATOM      7  C   UNL     1       0.582  10.519  20.430  0.00  0.00    +0.000 A 
ATOM      8  C   UNL     1       0.627   9.884  19.169  0.00  0.00    +0.000 A 
ATOM      9  C   UNL     1      -0.518  10.352  18.551  0.00  0.00    +0.000 A 
ATOM     10  N   UNL     1      -1.094  10.126  17.334  0.00  0.00    +0.000 N 
ATOM     11  H   UNL     1      -0.655   9.489  16.670  0.00  0.00    +0.000 HD
ENDROOT
BRANCH   8  12
ATOM     12  C   UNL     1       1.599   8.945  18.625  0.00  0.00    +0.000 C 
ATOM     13  O   UNL     1       1.984   9.006  17.461  0.00  0.00    +0.000 OA
ATOM     14  N   UNL     1       2.037   7.974  19.505  0.00  0.00    +0.000 N 
ATOM     15  H   UNL     1       1.735   7.983  20.465  0.00  0.00    +0.000 HD
BRANCH  14  16
ATOM     16  C   UNL     1       2.932   6.906  19.113  0.00  0.00    +0.000 C 
BRANCH  16  17
ATOM     17  C   UNL     1       2.247   5.565  19.033  0.00  0.00    +0.000 A 
ATOM     18  C   UNL     1       2.186   4.846  17.827  0.00  0.00    +0.000 A 
ATOM     19  C   UNL     1       1.579   3.587  17.784  0.00  0.00    +0.000 A 
ATOM     20  C   UNL     1       1.027   3.047  18.939  0.00  0.00    +0.000 A 
ATOM     21  F   UNL     1       0.457   1.837  18.897  0.00  0.00    +0.000 F 
ATOM     22  C   UNL     1       1.067   3.746  20.139  0.00  0.00    +0.000 A 
ATOM     23  C   UNL     1       1.669   5.005  20.185  0.00  0.00    +0.000 A 
ENDBRANCH  16  17
ENDBRANCH  14  16
ENDBRANCH   8  12
BRANCH   4  24
ATOM     24  C   UNL     1      -2.942  12.790  20.101  0.00  0.00    +0.000 C 
ATOM     25  F   UNL     1      -3.074  12.156  21.299  0.00  0.00    +0.000 F 
ATOM     26  F   UNL     1      -2.125  13.857  20.343  0.00  0.00    +0.000 F 
ENDBRANCH   4  24
TORSDOF 4
ENDMDL
MODEL 3
REMARK VINA RESULT:      -7.7      2.173      8.199
REMARK  Name = 
REMARK  4 active torsions:
REMARK  status: ('A' for Active; 'I' for Inactive)
REMARK    1  A    between atoms: C_4  and  C_5
REMARK    2  A    between atoms: C_11  and  C_12
REMARK    3  A    between atoms: N_14  and  C_15
REMARK    4  A    between atoms: C_15  and  C_16
REMARK                            x       y       z     vdW  Elec       q    Type
REMARK                         _______ _______ _______ _____ _____    ______ ____
ROOT
ATOM      1  C   UNL     1       5.366   4.785  15.780  0.00  0.00    +0.000 C 
ATOM      2  C   UNL     1       4.656   4.890  16.912  0.00  0.00    +0.000 C 
ATOM      3  C   UNL     1       4.642   3.774  17.859  0.00  0.00    +0.000 C 
ATOM      4  C   UNL     1       3.925   3.845  19.000  0.00  0.00    +0.000 C 
ATOM      5  N   UNL     1       3.200   5.006  19.288  0.00  0.00    +0.000 N 
ATOM      6  N   UNL     1       2.460   5.277  20.395  0.00  0.00    +0.000 NA
ATOM      7  C   UNL     1       1.977   6.501  20.186  0.00  0.00    +0.000 A 
ATOM      8  C   UNL     1       2.385   7.082  18.964  0.00  0.00    +0.000 A 
ATOM      9  C   UNL     1       3.187   6.100  18.412  0.00  0.00    +0.000 A 
ATOM     10  N   UNL     1       3.913   6.011  17.259  0.00  0.00    +0.000 N 
ATOM     11  H   UNL     1       3.926   6.790  16.601  0.00  0.00    +0.000 HD
ENDROOT
BRANCH   8  12
ATOM     12  C   UNL     1       2.083   8.392  18.400  0.00  0.00    +0.000 C 
ATOM     13  O   UNL     1       2.567   8.771  17.337  0.00  0.00    +0.000 OA
ATOM     14  N   UNL     1       1.233   9.177  19.155  0.00  0.00    +0.000 N 
ATOM     15  H   UNL     1       0.819   8.815  19.998  0.00  0.00    +0.000 HD
BRANCH  14  16
ATOM     16  C   UNL     1       0.897  10.538  18.795  0.00  0.00    +0.000 C 
BRANCH  16  17
ATOM     17  C   UNL     1      -0.578  10.730  18.541  0.00  0.00    +0.000 A 
ATOM     18  C   UNL     1      -1.314  11.716  19.221  0.00  0.00    +0.000 A 
ATOM     19  C   UNL     1      -2.672  11.903  18.942  0.00  0.00    +0.000 A 
ATOM     20  C   UNL     1      -3.298  11.104  17.993  0.00  0.00    +0.000 A 
ATOM     21  F   UNL     1      -4.594  11.293  17.721  0.00  0.00    +0.000 F 
ATOM     22  C   UNL     1      -2.591  10.117  17.317  0.00  0.00    +0.000 A 
ATOM     23  C   UNL     1      -1.236   9.926  17.595  0.00  0.00    +0.000 A 
ENDBRANCH  16  17
ENDBRANCH  14  16
ENDBRANCH   8  12
BRANCH   4  24
ATOM     24  C   UNL     1       3.871   2.752  20.005  0.00  0.00    +0.000 C 
ATOM     25  F   UNL     1       2.688   2.084  19.930  0.00  0.00    +0.000 F 
ATOM     26  F   UNL     1       4.834   1.814  19.763  0.00  0.00    +0.000 F 
ENDBRANCH   4  24
TORSDOF 4
ENDMDL
MODEL 4
REMARK VINA RESULT:      -7.6      2.503      8.218
REMARK  Name = 
REMARK  4 active torsions:
REMARK  status: ('A' for Active; 'I' for Inactive)
REMARK    1  A    between atoms: C_4  and  C_5
REMARK    2  A    between atoms: C_11  and  C_12
REMARK    3  A    between atoms: N_14  and  C_15
REMARK    4  A    between atoms: C_15  and  C_16
REMARK                            x       y       z     vdW  Elec       q    Type
REMARK                         _______ _______ _______ _____ _____    ______ ____
ROOT
ATOM      1  C   UNL     1       2.110   3.242  21.728  0.00  0.00    +0.000 C 
ATOM      2  C   UNL     1       2.517   4.023  20.718  0.00  0.00    +0.000 C 
ATOM      3  C   UNL     1       3.412   3.473  19.699  0.00  0.00    +0.000 C 
ATOM      4  C   UNL     1       3.851   4.240  18.678  0.00  0.00    +0.000 C 
ATOM      5  N   UNL     1       3.432   5.571  18.586  0.00  0.00    +0.000 N 
ATOM      6  N   UNL     1       3.731   6.476  17.617  0.00  0.00    +0.000 NA
ATOM      7  C   UNL     1       3.093   7.586  17.986  0.00  0.00    +0.000 A 
ATOM      8  C   UNL     1       2.350   7.456  19.181  0.00  0.00    +0.000 A 
ATOM      9  C   UNL     1       2.573   6.138  19.537  0.00  0.00    +0.000 A 
ATOM     10  N   UNL     1       2.142   5.352  20.566  0.00  0.00    +0.000 N 
ATOM     11  H   UNL     1       1.516   5.734  21.275  0.00  0.00    +0.000 HD
ENDROOT
BRANCH   8  12
ATOM     12  C   UNL     1       1.519   8.428  19.881  0.00  0.00    +0.000 C 
ATOM     13  O   UNL     1       1.244   8.312  21.072  0.00  0.00    +0.000 OA
ATOM     14  N   UNL     1       1.053   9.472  19.106  0.00  0.00    +0.000 N 
ATOM     15  H   UNL     1       1.338   9.559  18.145  0.00  0.00    +0.000 HD
BRANCH  14  16
ATOM     16  C   UNL     1       0.144  10.478  19.612  0.00  0.00    +0.000 C 
BRANCH  16  17
ATOM     17  C   UNL     1      -1.087  10.641  18.755  0.00  0.00    +0.000 A 
ATOM     18  C   UNL     1      -1.268   9.886  17.584  0.00  0.00    +0.000 A 
ATOM     19  C   UNL     1      -2.435  10.024  16.826  0.00  0.00    +0.000 A 
ATOM     20  C   UNL     1      -3.418  10.919  17.230  0.00  0.00    +0.000 A 
ATOM     21  F   UNL     1      -4.538  11.041  16.508  0.00  0.00    +0.000 F 
ATOM     22  C   UNL     1      -3.255  11.683  18.379  0.00  0.00    +0.000 A 
ATOM     23  C   UNL     1      -2.089  11.549  19.137  0.00  0.00    +0.000 A 
ENDBRANCH  16  17
ENDBRANCH  14  16
ENDBRANCH   8  12
BRANCH   4  24
ATOM     24  C   UNL     1       4.755   3.743  17.609  0.00  0.00    +0.000 C 
ATOM     25  F   UNL     1       4.211   3.951  16.379  0.00  0.00    +0.000 F 
ATOM     26  F   UNL     1       5.936   4.429  17.604  0.00  0.00    +0.000 F 
ENDBRANCH   4  24
TORSDOF 4
ENDMDL
MODEL 5
REMARK VINA RESULT:      -7.5      2.290      8.248
REMARK  Name = 
REMARK  4 active torsions:
REMARK  status: ('A' for Active; 'I' for Inactive)
REMARK    1  A    between atoms: C_4  and  C_5
REMARK    2  A    between atoms: C_11  and  C_12
REMARK    3  A    between atoms: N_14  and  C_15
REMARK    4  A    between atoms: C_15  and  C_16
REMARK                            x       y       z     vdW  Elec       q    Type
REMARK                         _______ _______ _______ _____ _____    ______ ____
ROOT
ATOM      1  C   UNL     1       1.724   3.096  21.730  0.00  0.00    +0.000 C 
ATOM      2  C   UNL     1       2.165   3.907  20.758  0.00  0.00    +0.000 C 
ATOM      3  C   UNL     1       2.992   3.359  19.683  0.00  0.00    +0.000 C 
ATOM      4  C   UNL     1       3.463   4.153  18.699  0.00  0.00    +0.000 C 
ATOM      5  N   UNL     1       3.142   5.515  18.699  0.00  0.00    +0.000 N 
ATOM      6  N   UNL     1       3.484   6.455  17.780  0.00  0.00    +0.000 NA
ATOM      7  C   UNL     1       2.940   7.583  18.234  0.00  0.00    +0.000 A 
ATOM      8  C   UNL     1       2.217   7.432  19.438  0.00  0.00    +0.000 A 
ATOM      9  C   UNL     1       2.350   6.083  19.707  0.00  0.00    +0.000 A 
ATOM     10  N   UNL     1       1.886   5.267  20.698  0.00  0.00    +0.000 N 
ATOM     11  H   UNL     1       1.307   5.648  21.447  0.00  0.00    +0.000 HD
ENDROOT
BRANCH   8  12
ATOM     12  C   UNL     1       1.478   8.417  20.220  0.00  0.00    +0.000 C 
ATOM     13  O   UNL     1       1.169   8.220  21.392  0.00  0.00    +0.000 OA
ATOM     14  N   UNL     1       1.138   9.572  19.542  0.00  0.00    +0.000 N 
ATOM     15  H   UNL     1       1.449   9.718  18.597  0.00  0.00    +0.000 HD
BRANCH  14  16
ATOM     16  C   UNL     1       0.328  10.616  20.133  0.00  0.00    +0.000 C 
BRANCH  16  17
ATOM     17  C   UNL     1      -0.939  10.886  19.359  0.00  0.00    +0.000 A 
ATOM     18  C   UNL     1      -1.888  11.817  19.812  0.00  0.00    +0.000 A 
ATOM     19  C   UNL     1      -3.037  12.080  19.059  0.00  0.00    +0.000 A 
ATOM     20  C   UNL     1      -3.244  11.410  17.859  0.00  0.00    +0.000 A 
ATOM     21  F   UNL     1      -4.338  11.672  17.136  0.00  0.00    +0.000 F 
ATOM     22  C   UNL     1      -2.322  10.478  17.398  0.00  0.00    +0.000 A 
ATOM     23  C   UNL     1      -1.176  10.211  18.149  0.00  0.00    +0.000 A 
ENDBRANCH  16  17
ENDBRANCH  14  16
ENDBRANCH   8  12
BRANCH   4  24
ATOM     24  C   UNL     1       4.302   3.660  17.576  0.00  0.00    +0.000 C 
ATOM     25  F   UNL     1       5.625   3.809  17.859  0.00  0.00    +0.000 F 
ATOM     26  F   UNL     1       4.121   2.321  17.378  0.00  0.00    +0.000 F 
ENDBRANCH   4  24
TORSDOF 4
ENDMDL
MODEL 6
REMARK VINA RESULT:      -7.5      2.194      8.315
REMARK  Name = 
REMARK  4 active torsions:
REMARK  status: ('A' for Active; 'I' for Inactive)
REMARK    1  A    between atoms: C_4  and  C_5
REMARK    2  A    between atoms: C_11  and  C_12
REMARK    3  A    between atoms: N_14  and  C_15
REMARK    4  A    between atoms: C_15  and  C_16
REMARK                            x       y       z     vdW  Elec       q    Type
REMARK                         _______ _______ _______ _____ _____    ______ ____
ROOT
ATOM      1  C   UNL     1       5.481   4.507  15.931  0.00  0.00    +0.000 C 
ATOM      2  C   UNL     1       4.716   4.645  17.023  0.00  0.00    +0.000 C 
ATOM      3  C   UNL     1       4.604   3.534  17.969  0.00  0.00    +0.000 C 
ATOM      4  C   UNL     1       3.829   3.639  19.069  0.00  0.00    +0.000 C 
ATOM      5  N   UNL     1       3.139   4.830  19.316  0.00  0.00    +0.000 N 
ATOM      6  N   UNL     1       2.352   5.135  20.381  0.00  0.00    +0.000 NA
ATOM      7  C   UNL     1       1.934   6.378  20.145  0.00  0.00    +0.000 A 
ATOM      8  C   UNL     1       2.431   6.937  18.946  0.00  0.00    +0.000 A 
ATOM      9  C   UNL     1       3.220   5.921  18.440  0.00  0.00    +0.000 A 
ATOM     10  N   UNL     1       4.003   5.798  17.328  0.00  0.00    +0.000 N 
ATOM     11  H   UNL     1       4.084   6.574  16.670  0.00  0.00    +0.000 HD
ENDROOT
BRANCH   8  12
ATOM     12  C   UNL     1       2.215   8.257  18.365  0.00  0.00    +0.000 C 
ATOM     13  O   UNL     1       2.812   8.632  17.360  0.00  0.00    +0.000 OA
ATOM     14  N   UNL     1       1.310   9.056  19.038  0.00  0.00    +0.000 N 
ATOM     15  H   UNL     1       0.806   8.698  19.831  0.00  0.00    +0.000 HD
BRANCH  14  16
ATOM     16  C   UNL     1       1.041  10.426  18.656  0.00  0.00    +0.000 C 
BRANCH  16  17
ATOM     17  C   UNL     1      -0.426  10.692  18.422  0.00  0.00    +0.000 A 
ATOM     18  C   UNL     1      -1.164   9.948  17.486  0.00  0.00    +0.000 A 
ATOM     19  C   UNL     1      -2.531  10.185  17.312  0.00  0.00    +0.000 A 
ATOM     20  C   UNL     1      -3.162  11.168  18.065  0.00  0.00    +0.000 A 
ATOM     21  F   UNL     1      -4.472  11.385  17.904  0.00  0.00    +0.000 F 
ATOM     22  C   UNL     1      -2.448  11.923  18.989  0.00  0.00    +0.000 A 
ATOM     23  C   UNL     1      -1.082  11.690  19.162  0.00  0.00    +0.000 A 
ENDBRANCH  16  17
ENDBRANCH  14  16
ENDBRANCH   8  12
BRANCH   4  24
ATOM     24  C   UNL     1       3.675   2.552  20.070  0.00  0.00    +0.000 C 
ATOM     25  F   UNL     1       2.674   1.702  19.712  0.00  0.00    +0.000 F 
ATOM     26  F   UNL     1       4.800   1.780  20.136  0.00  0.00    +0.000 F 
ENDBRANCH   4  24
TORSDOF 4
ENDMDL
MODEL 7
REMARK VINA RESULT:      -7.5      1.877      2.291
REMARK  Name = 
REMARK  4 active torsions:
REMARK  status: ('A' for Active; 'I' for Inactive)
REMARK    1  A    between atoms: C_4  and  C_5
REMARK    2  A    between atoms: C_11  and  C_12
REMARK    3  A    between atoms: N_14  and  C_15
REMARK    4  A    between atoms: C_15  and  C_16
REMARK                            x       y       z     vdW  Elec       q    Type
REMARK                         _______ _______ _______ _____ _____    ______ ____
ROOT
ATOM      1  C   UNL     1      -0.898  12.846  18.228  0.00  0.00    +0.000 C 
ATOM      2  C   UNL     1      -0.637  12.123  19.327  0.00  0.00    +0.000 C 
ATOM      3  C   UNL     1      -1.176  12.553  20.617  0.00  0.00    +0.000 C 
ATOM      4  C   UNL     1      -0.917  11.854  21.742  0.00  0.00    +0.000 C 
ATOM      5  N   UNL     1      -0.137  10.696  21.670  0.00  0.00    +0.000 N 
ATOM      6  N   UNL     1       0.193   9.846  22.678  0.00  0.00    +0.000 NA
ATOM      7  C   UNL     1       0.942   8.910  22.097  0.00  0.00    +0.000 A 
ATOM      8  C   UNL     1       1.120   9.092  20.707  0.00  0.00    +0.000 A 
ATOM      9  C   UNL     1       0.397  10.244  20.456  0.00  0.00    +0.000 A 
ATOM     10  N   UNL     1       0.131  10.965  19.327  0.00  0.00    +0.000 N 
ATOM     11  H   UNL     1       0.504  10.664  18.427  0.00  0.00    +0.000 HD
ENDROOT
BRANCH   8  12
ATOM     12  C   UNL     1       1.847   8.281  19.738  0.00  0.00    +0.000 C 
ATOM     13  O   UNL     1       1.843   8.539  18.538  0.00  0.00    +0.000 OA
ATOM     14  N   UNL     1       2.522   7.197  20.266  0.00  0.00    +0.000 N 
ATOM     15  H   UNL     1       2.541   7.044  21.260  0.00  0.00    +0.000 HD
BRANCH  14  16
ATOM     16  C   UNL     1       3.221   6.233  19.444  0.00  0.00    +0.000 C 
BRANCH  16  17
ATOM     17  C   UNL     1       2.439   4.960  19.237  0.00  0.00    +0.000 A 
ATOM     18  C   UNL     1       1.502   4.516  20.185  0.00  0.00    +0.000 A 
ATOM     19  C   UNL     1       0.760   3.353  19.956  0.00  0.00    +0.000 A 
ATOM     20  C   UNL     1       0.955   2.629  18.786  0.00  0.00    +0.000 A 
ATOM     21  F   UNL     1       0.236   1.523  18.564  0.00  0.00    +0.000 F 
ATOM     22  C   UNL     1       1.885   3.045  17.840  0.00  0.00    +0.000 A 
ATOM     23  C   UNL     1       2.630   4.204  18.068  0.00  0.00    +0.000 A 
ENDBRANCH  16  17
ENDBRANCH  14  16
ENDBRANCH   8  12
BRANCH   4  24
ATOM     24  C   UNL     1      -1.437  12.234  23.082  0.00  0.00    +0.000 C 
ATOM     25  F   UNL     1      -1.996  13.475  23.050  0.00  0.00    +0.000 F 
ATOM     26  F   UNL     1      -2.440  11.394  23.476  0.00  0.00    +0.000 F 
ENDBRANCH   4  24
TORSDOF 4
ENDMDL
MODEL 8
REMARK VINA RESULT:      -7.5      2.689      8.159
REMARK  Name = 
REMARK  4 active torsions:
REMARK  status: ('A' for Active; 'I' for Inactive)
REMARK    1  A    between atoms: C_4  and  C_5
REMARK    2  A    between atoms: C_11  and  C_12
REMARK    3  A    between atoms: N_14  and  C_15
REMARK    4  A    between atoms: C_15  and  C_16
REMARK                            x       y       z     vdW  Elec       q    Type
REMARK                         _______ _______ _______ _____ _____    ______ ____
ROOT
ATOM      1  C   UNL     1       1.109   2.426  18.729  0.00  0.00    +0.000 C 
ATOM      2  C   UNL     1       1.921   3.420  18.341  0.00  0.00    +0.000 C 
ATOM      3  C   UNL     1       3.004   3.139  17.399  0.00  0.00    +0.000 C 
ATOM      4  C   UNL     1       3.847   4.116  17.002  0.00  0.00    +0.000 C 
ATOM      5  N   UNL     1       3.671   5.416  17.486  0.00  0.00    +0.000 N 
ATOM      6  N   UNL     1       4.385   6.529  17.173  0.00  0.00    +0.000 NA
ATOM      7  C   UNL     1       3.827   7.501  17.893  0.00  0.00    +0.000 A 
ATOM      8  C   UNL     1       2.734   7.080  18.683  0.00  0.00    +0.000 A 
ATOM      9  C   UNL     1       2.645   5.732  18.387  0.00  0.00    +0.000 A 
ATOM     10  N   UNL     1       1.804   4.732  18.783  0.00  0.00    +0.000 N 
ATOM     11  H   UNL     1       1.047   4.929  19.438  0.00  0.00    +0.000 HD
ENDROOT
BRANCH   8  12
ATOM     12  C   UNL     1       1.871   7.844  19.575  0.00  0.00    +0.000 C 
ATOM     13  O   UNL     1       1.539   7.423  20.680  0.00  0.00    +0.000 OA
ATOM     14  N   UNL     1       1.442   9.061  19.081  0.00  0.00    +0.000 N 
ATOM     15  H   UNL     1       1.772   9.394  18.191  0.00  0.00    +0.000 HD
BRANCH  14  16
ATOM     16  C   UNL     1       0.510   9.910  19.792  0.00  0.00    +0.000 C 
BRANCH  16  17
ATOM     17  C   UNL     1      -0.660  10.339  18.940  0.00  0.00    +0.000 A 
ATOM     18  C   UNL     1      -1.518  11.375  19.346  0.00  0.00    +0.000 A 
ATOM     19  C   UNL     1      -2.573  11.783  18.524  0.00  0.00    +0.000 A 
ATOM     20  C   UNL     1      -2.778  11.154  17.302  0.00  0.00    +0.000 A 
ATOM     21  F   UNL     1      -3.782  11.554  16.513  0.00  0.00    +0.000 F 
ATOM     22  C   UNL     1      -1.948  10.121  16.886  0.00  0.00    +0.000 A 
ATOM     23  C   UNL     1      -0.895   9.709  17.706  0.00  0.00    +0.000 A 
ENDBRANCH  16  17
ENDBRANCH  14  16
ENDBRANCH   8  12
BRANCH   4  24
ATOM     24  C   UNL     1       4.963   3.898  16.046  0.00  0.00    +0.000 C 
ATOM     25  F   UNL     1       4.908   4.798  15.026  0.00  0.00    +0.000 F 
ATOM     26  F   UNL     1       6.172   4.102  16.645  0.00  0.00    +0.000 F 
ENDBRANCH   4  24
TORSDOF 4
ENDMDL
MODEL 9
REMARK VINA RESULT:      -7.4      2.648      8.282
REMARK  Name = 
REMARK  4 active torsions:
REMARK  status: ('A' for Active; 'I' for Inactive)
REMARK    1  A    between atoms: C_4  and  C_5
REMARK    2  A    between atoms: C_11  and  C_12
REMARK    3  A    between atoms: N_14  and  C_15
REMARK    4  A    between atoms: C_15  and  C_16
REMARK                            x       y       z     vdW  Elec       q    Type
REMARK                         _______ _______ _______ _____ _____    ______ ____
ROOT
ATOM      1  C   UNL     1       1.490   2.458  18.688  0.00  0.00    +0.000 C 
ATOM      2  C   UNL     1       2.222   3.505  18.284  0.00  0.00    +0.000 C 
ATOM      3  C   UNL     1       3.313   3.297  17.331  0.00  0.00    +0.000 C 
ATOM      4  C   UNL     1       4.077   4.331  16.918  0.00  0.00    +0.000 C 
ATOM      5  N   UNL     1       3.811   5.618  17.394  0.00  0.00    +0.000 N 
ATOM      6  N   UNL     1       4.437   6.778  17.064  0.00  0.00    +0.000 NA
ATOM      7  C   UNL     1       3.817   7.713  17.784  0.00  0.00    +0.000 A 
ATOM      8  C   UNL     1       2.766   7.218  18.589  0.00  0.00    +0.000 A 
ATOM      9  C   UNL     1       2.774   5.865  18.305  0.00  0.00    +0.000 A 
ATOM     10  N   UNL     1       2.014   4.809  18.718  0.00  0.00    +0.000 N 
ATOM     11  H   UNL     1       1.251   4.954  19.380  0.00  0.00    +0.000 HD
ENDROOT
BRANCH   8  12
ATOM     12  C   UNL     1       1.859   7.924  19.487  0.00  0.00    +0.000 C 
ATOM     13  O   UNL     1       1.482   7.436  20.548  0.00  0.00    +0.000 OA
ATOM     14  N   UNL     1       1.444   9.166  19.047  0.00  0.00    +0.000 N 
ATOM     15  H   UNL     1       1.811   9.554  18.194  0.00  0.00    +0.000 HD
BRANCH  14  16
ATOM     16  C   UNL     1       0.475   9.967  19.764  0.00  0.00    +0.000 C 
BRANCH  16  17
ATOM     17  C   UNL     1      -0.690  10.389  18.904  0.00  0.00    +0.000 A 
ATOM     18  C   UNL     1      -0.946   9.774  17.667  0.00  0.00    +0.000 A 
ATOM     19  C   UNL     1      -2.054  10.154  16.903  0.00  0.00    +0.000 A 
ATOM     20  C   UNL     1      -2.903  11.151  17.367  0.00  0.00    +0.000 A 
ATOM     21  F   UNL     1      -3.969  11.504  16.639  0.00  0.00    +0.000 F 
ATOM     22  C   UNL     1      -2.663  11.779  18.583  0.00  0.00    +0.000 A 
ATOM     23  C   UNL     1      -1.555  11.404  19.347  0.00  0.00    +0.000 A 
ENDBRANCH  16  17
ENDBRANCH  14  16
ENDBRANCH   8  12
BRANCH   4  24
ATOM     24  C   UNL     1       5.195   4.189  15.950  0.00  0.00    +0.000 C 
ATOM     25  F   UNL     1       5.670   2.913  15.943  0.00  0.00    +0.000 F 
ATOM     26  F   UNL     1       4.774   4.427  14.673  0.00  0.00    +0.000 F 
ENDBRANCH   4  24
TORSDOF 4
ENDMDL
