MODEL 1
REMARK VINA RESULT:      -6.6      0.000      0.000
REMARK  Name = 
REMARK  9 active torsions:
REMARK  status: ('A' for Active; 'I' for Inactive)
REMARK    1  A    between atoms: C_1  and  O_2
REMARK    2  A    between atoms: O_2  and  C_3
REMARK    3  A    between atoms: C_3  and  C_4
REMARK    4  A    between atoms: C_10  and  S_11
REMARK    5  A    between atoms: S_11  and  C_12
REMARK    6  A    between atoms: C_17  and  C_18
REMARK    7  A    between atoms: C_18  and  N_19
REMARK    8  A    between atoms: N_19  and  C_20
REMARK    9  A    between atoms: N_19  and  C_21
REMARK                            x       y       z     vdW  Elec       q    Type
REMARK                         _______ _______ _______ _____ _____    ______ ____
ROOT
ATOM      1  S   UNL     1       5.362   4.383  18.797  0.00  0.00    +0.000 S 
ENDROOT
BRANCH   1   8
ATOM      2  C   UNL     1       6.879   5.635  16.792  0.00  0.00    +0.000 A 
ATOM      3  C   UNL     1       7.342   5.706  15.460  0.00  0.00    +0.000 A 
ATOM      4  C   UNL     1       6.894   4.808  14.496  0.00  0.00    +0.000 A 
ATOM      5 BR   UNL     1       7.537   4.933  12.724  0.00  0.00    +0.000 Br
ATOM      6  C   UNL     1       5.974   3.821  14.832  0.00  0.00    +0.000 A 
ATOM      7  C   UNL     1       5.514   3.727  16.148  0.00  0.00    +0.000 A 
ATOM      8  C   UNL     1       5.979   4.605  17.147  0.00  0.00    +0.000 A 
BRANCH   2   9
ATOM      9  C   UNL     1       7.417   6.655  17.769  0.00  0.00    +0.000 C 
BRANCH   9  11
ATOM     10  C   UNL     1       8.043   8.919  17.912  0.00  0.00    +0.000 C 
ATOM     11  O   UNL     1       7.861   7.806  17.046  0.00  0.00    +0.000 OA
ENDBRANCH   9  11
ENDBRANCH   2   9
ENDBRANCH   1   8
BRANCH   1  12
ATOM     12  C   UNL     1       3.650   3.824  18.764  0.00  0.00    +0.000 A 
ATOM     13  C   UNL     1       3.536   2.488  19.236  0.00  0.00    +0.000 A 
ATOM     14  C   UNL     1       2.306   1.822  19.334  0.00  0.00    +0.000 A 
ATOM     15  C   UNL     1       1.153   2.470  18.957  0.00  0.00    +0.000 A 
ATOM     16  C   UNL     1       1.241   3.770  18.448  0.00  0.00    +0.000 A 
ATOM     17  C   UNL     1       2.467   4.478  18.357  0.00  0.00    +0.000 A 
BRANCH  17  18
ATOM     18  C   UNL     1       2.376   5.872  17.758  0.00  0.00    +0.000 C 
BRANCH  18  19
ATOM     19  N   UNL     1       2.817   6.957  18.664  0.00  0.00    +0.000 NA
ATOM     20  C   UNL     1       2.581   8.284  18.085  0.00  0.00    +0.000 C 
ATOM     21  C   UNL     1       2.151   6.856  19.963  0.00  0.00    +0.000 C 
ENDBRANCH  18  19
ENDBRANCH  17  18
ENDBRANCH   1  12
TORSDOF 6
ENDMDL
MODEL 2
REMARK VINA RESULT:      -6.3      3.778      6.566
REMARK  Name = 
REMARK  9 active torsions:
REMARK  status: ('A' for Active; 'I' for Inactive)
REMARK    1  A    between atoms: C_1  and  O_2
REMARK    2  A    between atoms: O_2  and  C_3
REMARK    3  A    between atoms: C_3  and  C_4
REMARK    4  A    between atoms: C_10  and  S_11
REMARK    5  A    between atoms: S_11  and  C_12
REMARK    6  A    between atoms: C_17  and  C_18
REMARK    7  A    between atoms: C_18  and  N_19
REMARK    8  A    between atoms: N_19  and  C_20
REMARK    9  A    between atoms: N_19  and  C_21
REMARK                            x       y       z     vdW  Elec       q    Type
REMARK                         _______ _______ _______ _____ _____    ______ ____
ROOT
ATOM      1  S   UNL     1       3.390   4.611  18.148  0.00  0.00    +0.000 S 
ENDROOT
BRANCH   1   8
ATOM      2  C   UNL     1       2.126   6.111  20.158  0.00  0.00    +0.000 A 
ATOM      3  C   UNL     1       1.591   7.327  20.636  0.00  0.00    +0.000 A 
ATOM      4  C   UNL     1       1.535   8.455  19.822  0.00  0.00    +0.000 A 
ATOM      5 BR   UNL     1       0.812  10.065  20.497  0.00  0.00    +0.000 Br
ATOM      6  C   UNL     1       2.008   8.401  18.516  0.00  0.00    +0.000 A 
ATOM      7  C   UNL     1       2.553   7.210  18.029  0.00  0.00    +0.000 A 
ATOM      8  C   UNL     1       2.649   6.065  18.846  0.00  0.00    +0.000 A 
BRANCH   2   9
ATOM      9  C   UNL     1       2.140   4.938  21.110  0.00  0.00    +0.000 C 
BRANCH   9  11
ATOM     10  C   UNL     1       1.314   2.736  21.205  0.00  0.00    +0.000 C 
ATOM     11  O   UNL     1       1.044   4.073  20.804  0.00  0.00    +0.000 OA
ENDBRANCH   9  11
ENDBRANCH   2   9
ENDBRANCH   1   8
BRANCH   1  12
ATOM     12  C   UNL     1       5.183   4.778  18.089  0.00  0.00    +0.000 A 
ATOM     13  C   UNL     1       5.677   5.431  19.250  0.00  0.00    +0.000 A 
ATOM     14  C   UNL     1       7.043   5.666  19.463  0.00  0.00    +0.000 A 
ATOM     15  C   UNL     1       7.956   5.259  18.518  0.00  0.00    +0.000 A 
ATOM     16  C   UNL     1       7.494   4.651  17.346  0.00  0.00    +0.000 A 
ATOM     17  C   UNL     1       6.121   4.381  17.111  0.00  0.00    +0.000 A 
BRANCH  17  18
ATOM     18  C   UNL     1       5.799   3.736  15.773  0.00  0.00    +0.000 C 
BRANCH  18  19
ATOM     19  N   UNL     1       5.690   4.689  14.645  0.00  0.00    +0.000 NA
ATOM     20  C   UNL     1       5.357   6.043  15.102  0.00  0.00    +0.000 C 
ATOM     21  C   UNL     1       6.927   4.718  13.864  0.00  0.00    +0.000 C 
ENDBRANCH  18  19
ENDBRANCH  17  18
ENDBRANCH   1  12
TORSDOF 6
ENDMDL
MODEL 3
REMARK VINA RESULT:      -6.3      1.300      1.613
REMARK  Name = 
REMARK  9 active torsions:
REMARK  status: ('A' for Active; 'I' for Inactive)
REMARK    1  A    between atoms: C_1  and  O_2
REMARK    2  A    between atoms: O_2  and  C_3
REMARK    3  A    between atoms: C_3  and  C_4
REMARK    4  A    between atoms: C_10  and  S_11
REMARK    5  A    between atoms: S_11  and  C_12
REMARK    6  A    between atoms: C_17  and  C_18
REMARK    7  A    between atoms: C_18  and  N_19
REMARK    8  A    between atoms: N_19  and  C_20
REMARK    9  A    between atoms: N_19  and  C_21
REMARK                            x       y       z     vdW  Elec       q    Type
REMARK                         _______ _______ _______ _____ _____    ______ ____
ROOT
ATOM      1  S   UNL     1       5.325   4.936  19.458  0.00  0.00    +0.000 S 
ENDROOT
BRANCH   1   8
ATOM      2  C   UNL     1       6.677   5.433  17.048  0.00  0.00    +0.000 A 
ATOM      3  C   UNL     1       6.885   5.175  15.675  0.00  0.00    +0.000 A 
ATOM      4  C   UNL     1       6.073   4.280  14.983  0.00  0.00    +0.000 A 
ATOM      5 BR   UNL     1       6.382   3.959  13.146  0.00  0.00    +0.000 Br
ATOM      6  C   UNL     1       5.037   3.624  15.637  0.00  0.00    +0.000 A 
ATOM      7  C   UNL     1       4.824   3.857  16.998  0.00  0.00    +0.000 A 
ATOM      8  C   UNL     1       5.654   4.734  17.726  0.00  0.00    +0.000 A 
BRANCH   2   9
ATOM      9  C   UNL     1       7.603   6.423  17.715  0.00  0.00    +0.000 C 
BRANCH   9  11
ATOM     10  C   UNL     1       7.964   8.748  17.782  0.00  0.00    +0.000 C 
ATOM     11  O   UNL     1       7.607   7.640  16.965  0.00  0.00    +0.000 OA
ENDBRANCH   9  11
ENDBRANCH   2   9
ENDBRANCH   1   8
BRANCH   1  12
ATOM     12  C   UNL     1       3.571   4.707  19.803  0.00  0.00    +0.000 A 
ATOM     13  C   UNL     1       3.274   3.343  20.067  0.00  0.00    +0.000 A 
ATOM     14  C   UNL     1       1.983   2.898  20.387  0.00  0.00    +0.000 A 
ATOM     15  C   UNL     1       0.949   3.804  20.447  0.00  0.00    +0.000 A 
ATOM     16  C   UNL     1       1.206   5.146  20.150  0.00  0.00    +0.000 A 
ATOM     17  C   UNL     1       2.505   5.630  19.844  0.00  0.00    +0.000 A 
BRANCH  17  18
ATOM     18  C   UNL     1       2.593   7.114  19.524  0.00  0.00    +0.000 C 
BRANCH  18  19
ATOM     19  N   UNL     1       1.434   7.909  19.990  0.00  0.00    +0.000 NA
ATOM     20  C   UNL     1       1.537   8.246  21.414  0.00  0.00    +0.000 C 
ATOM     21  C   UNL     1       1.289   9.132  19.200  0.00  0.00    +0.000 C 
ENDBRANCH  18  19
ENDBRANCH  17  18
ENDBRANCH   1  12
TORSDOF 6
ENDMDL
MODEL 4
REMARK VINA RESULT:      -6.3      1.748      3.306
REMARK  Name = 
REMARK  9 active torsions:
REMARK  status: ('A' for Active; 'I' for Inactive)
REMARK    1  A    between atoms: C_1  and  O_2
REMARK    2  A    between atoms: O_2  and  C_3
REMARK    3  A    between atoms: C_3  and  C_4
REMARK    4  A    between atoms: C_10  and  S_11
REMARK    5  A    between atoms: S_11  and  C_12
REMARK    6  A    between atoms: C_17  and  C_18
REMARK    7  A    between atoms: C_18  and  N_19
REMARK    8  A    between atoms: N_19  and  C_20
REMARK    9  A    between atoms: N_19  and  C_21
REMARK                            x       y       z     vdW  Elec       q    Type
REMARK                         _______ _______ _______ _____ _____    ______ ____
ROOT
ATOM      1  S   UNL     1       4.631   4.338  18.311  0.00  0.00    +0.000 S 
ENDROOT
BRANCH   1   8
ATOM      2  C   UNL     1       6.693   5.310  16.671  0.00  0.00    +0.000 A 
ATOM      3  C   UNL     1       7.327   5.404  15.413  0.00  0.00    +0.000 A 
ATOM      4  C   UNL     1       6.766   4.817  14.282  0.00  0.00    +0.000 A 
ATOM      5 BR   UNL     1       7.643   4.964  12.614  0.00  0.00    +0.000 Br
ATOM      6  C   UNL     1       5.563   4.126  14.374  0.00  0.00    +0.000 A 
ATOM      7  C   UNL     1       4.929   4.011  15.614  0.00  0.00    +0.000 A 
ATOM      8  C   UNL     1       5.495   4.570  16.777  0.00  0.00    +0.000 A 
BRANCH   2   9
ATOM      9  C   UNL     1       7.373   5.982  17.841  0.00  0.00    +0.000 C 
BRANCH   9  11
ATOM     10  C   UNL     1       8.111   5.457  20.014  0.00  0.00    +0.000 C 
ATOM     11  O   UNL     1       7.955   4.983  18.682  0.00  0.00    +0.000 OA
ENDBRANCH   9  11
ENDBRANCH   2   9
ENDBRANCH   1   8
BRANCH   1  12
ATOM     12  C   UNL     1       3.575   5.755  18.665  0.00  0.00    +0.000 A 
ATOM     13  C   UNL     1       3.752   6.782  17.699  0.00  0.00    +0.000 A 
ATOM     14  C   UNL     1       3.031   7.985  17.732  0.00  0.00    +0.000 A 
ATOM     15  C   UNL     1       2.115   8.198  18.736  0.00  0.00    +0.000 A 
ATOM     16  C   UNL     1       1.952   7.222  19.724  0.00  0.00    +0.000 A 
ATOM     17  C   UNL     1       2.651   5.987  19.706  0.00  0.00    +0.000 A 
BRANCH  17  18
ATOM     18  C   UNL     1       2.365   5.055  20.873  0.00  0.00    +0.000 C 
BRANCH  18  19
ATOM     19  N   UNL     1       2.132   3.645  20.486  0.00  0.00    +0.000 NA
ATOM     20  C   UNL     1       2.263   2.735  21.630  0.00  0.00    +0.000 C 
ATOM     21  C   UNL     1       0.814   3.483  19.871  0.00  0.00    +0.000 C 
ENDBRANCH  18  19
ENDBRANCH  17  18
ENDBRANCH   1  12
TORSDOF 6
ENDMDL
MODEL 5
REMARK VINA RESULT:      -6.3      3.446      6.349
REMARK  Name = 
REMARK  9 active torsions:
REMARK  status: ('A' for Active; 'I' for Inactive)
REMARK    1  A    between atoms: C_1  and  O_2
REMARK    2  A    between atoms: O_2  and  C_3
REMARK    3  A    between atoms: C_3  and  C_4
REMARK    4  A    between atoms: C_10  and  S_11
REMARK    5  A    between atoms: S_11  and  C_12
REMARK    6  A    between atoms: C_17  and  C_18
REMARK    7  A    between atoms: C_18  and  N_19
REMARK    8  A    between atoms: N_19  and  C_20
REMARK    9  A    between atoms: N_19  and  C_21
REMARK                            x       y       z     vdW  Elec       q    Type
REMARK                         _______ _______ _______ _____ _____    ______ ____
ROOT
ATOM      1  S   UNL     1       4.424   3.702  18.361  0.00  0.00    +0.000 S 
ENDROOT
BRANCH   1   8
ATOM      2  C   UNL     1       2.580   5.009  20.028  0.00  0.00    +0.000 A 
ATOM      3  C   UNL     1       1.895   6.175  20.431  0.00  0.00    +0.000 A 
ATOM      4  C   UNL     1       2.052   7.374  19.741  0.00  0.00    +0.000 A 
ATOM      5 BR   UNL     1       1.118   8.915  20.311  0.00  0.00    +0.000 Br
ATOM      6  C   UNL     1       2.892   7.442  18.636  0.00  0.00    +0.000 A 
ATOM      7  C   UNL     1       3.590   6.301  18.230  0.00  0.00    +0.000 A 
ATOM      8  C   UNL     1       3.469   5.085  18.933  0.00  0.00    +0.000 A 
BRANCH   2   9
ATOM      9  C   UNL     1       2.344   3.752  20.833  0.00  0.00    +0.000 C 
BRANCH   9  11
ATOM     10  C   UNL     1       0.709   2.775  19.450  0.00  0.00    +0.000 C 
ATOM     11  O   UNL     1       0.971   3.372  20.714  0.00  0.00    +0.000 OA
ENDBRANCH   9  11
ENDBRANCH   2   9
ENDBRANCH   1   8
BRANCH   1  12
ATOM     12  C   UNL     1       5.350   4.138  16.878  0.00  0.00    +0.000 A 
ATOM     13  C   UNL     1       4.552   3.993  15.712  0.00  0.00    +0.000 A 
ATOM     14  C   UNL     1       5.028   4.290  14.427  0.00  0.00    +0.000 A 
ATOM     15  C   UNL     1       6.319   4.737  14.269  0.00  0.00    +0.000 A 
ATOM     16  C   UNL     1       7.140   4.848  15.396  0.00  0.00    +0.000 A 
ATOM     17  C   UNL     1       6.682   4.575  16.711  0.00  0.00    +0.000 A 
BRANCH  17  18
ATOM     18  C   UNL     1       7.719   4.728  17.811  0.00  0.00    +0.000 C 
BRANCH  18  19
ATOM     19  N   UNL     1       7.441   5.825  18.766  0.00  0.00    +0.000 NA
ATOM     20  C   UNL     1       8.059   5.582  20.075  0.00  0.00    +0.000 C 
ATOM     21  C   UNL     1       7.897   7.109  18.232  0.00  0.00    +0.000 C 
ENDBRANCH  18  19
ENDBRANCH  17  18
ENDBRANCH   1  12
TORSDOF 6
ENDMDL
MODEL 6
REMARK VINA RESULT:      -6.2      3.941      6.346
REMARK  Name = 
REMARK  9 active torsions:
REMARK  status: ('A' for Active; 'I' for Inactive)
REMARK    1  A    between atoms: C_1  and  O_2
REMARK    2  A    between atoms: O_2  and  C_3
REMARK    3  A    between atoms: C_3  and  C_4
REMARK    4  A    between atoms: C_10  and  S_11
REMARK    5  A    between atoms: S_11  and  C_12
REMARK    6  A    between atoms: C_17  and  C_18
REMARK    7  A    between atoms: C_18  and  N_19
REMARK    8  A    between atoms: N_19  and  C_20
REMARK    9  A    between atoms: N_19  and  C_21
REMARK                            x       y       z     vdW  Elec       q    Type
REMARK                         _______ _______ _______ _____ _____    ______ ____
ROOT
ATOM      1  S   UNL     1       3.177   7.136  17.896  0.00  0.00    +0.000 S 
ENDROOT
BRANCH   1   8
ATOM      2  C   UNL     1       1.659   9.152  19.127  0.00  0.00    +0.000 A 
ATOM      3  C   UNL     1       0.853   9.613  20.191  0.00  0.00    +0.000 A 
ATOM      4  C   UNL     1       0.617   8.816  21.308  0.00  0.00    +0.000 A 
ATOM      5 BR   UNL     1      -0.467   9.466  22.713  0.00  0.00    +0.000 Br
ATOM      6  C   UNL     1       1.176   7.546  21.394  0.00  0.00    +0.000 A 
ATOM      7  C   UNL     1       1.964   7.068  20.344  0.00  0.00    +0.000 A 
ATOM      8  C   UNL     1       2.191   7.845  19.190  0.00  0.00    +0.000 A 
BRANCH   2   9
ATOM      9  C   UNL     1       1.865  10.088  17.958  0.00  0.00    +0.000 C 
BRANCH   9  11
ATOM     10  C   UNL     1       2.519  12.345  18.098  0.00  0.00    +0.000 C 
ATOM     11  O   UNL     1       1.476  11.409  18.342  0.00  0.00    +0.000 OA
ENDBRANCH   9  11
ENDBRANCH   2   9
ENDBRANCH   1   8
BRANCH   1  12
ATOM     12  C   UNL     1       3.288   5.348  18.089  0.00  0.00    +0.000 A 
ATOM     13  C   UNL     1       2.052   4.720  17.780  0.00  0.00    +0.000 A 
ATOM     14  C   UNL     1       1.876   3.329  17.830  0.00  0.00    +0.000 A 
ATOM     15  C   UNL     1       2.931   2.525  18.195  0.00  0.00    +0.000 A 
ATOM     16  C   UNL     1       4.147   3.120  18.546  0.00  0.00    +0.000 A 
ATOM     17  C   UNL     1       4.362   4.522  18.485  0.00  0.00    +0.000 A 
BRANCH  17  18
ATOM     18  C   UNL     1       5.739   4.993  18.925  0.00  0.00    +0.000 C 
BRANCH  18  19
ATOM     19  N   UNL     1       6.558   5.584  17.842  0.00  0.00    +0.000 NA
ATOM     20  C   UNL     1       7.565   6.515  18.363  0.00  0.00    +0.000 C 
ATOM     21  C   UNL     1       7.209   4.539  17.052  0.00  0.00    +0.000 C 
ENDBRANCH  18  19
ENDBRANCH  17  18
ENDBRANCH   1  12
TORSDOF 6
ENDMDL
MODEL 7
REMARK VINA RESULT:      -6.2      1.096      1.419
REMARK  Name = 
REMARK  9 active torsions:
REMARK  status: ('A' for Active; 'I' for Inactive)
REMARK    1  A    between atoms: C_1  and  O_2
REMARK    2  A    between atoms: O_2  and  C_3
REMARK    3  A    between atoms: C_3  and  C_4
REMARK    4  A    between atoms: C_10  and  S_11
REMARK    5  A    between atoms: S_11  and  C_12
REMARK    6  A    between atoms: C_17  and  C_18
REMARK    7  A    between atoms: C_18  and  N_19
REMARK    8  A    between atoms: N_19  and  C_20
REMARK    9  A    between atoms: N_19  and  C_21
REMARK                            x       y       z     vdW  Elec       q    Type
REMARK                         _______ _______ _______ _____ _____    ______ ____
ROOT
ATOM      1  S   UNL     1       5.180   5.274  19.385  0.00  0.00    +0.000 S 
ENDROOT
BRANCH   1   8
ATOM      2  C   UNL     1       6.592   5.545  16.972  0.00  0.00    +0.000 A 
ATOM      3  C   UNL     1       6.808   5.187  15.624  0.00  0.00    +0.000 A 
ATOM      4  C   UNL     1       5.963   4.289  14.976  0.00  0.00    +0.000 A 
ATOM      5 BR   UNL     1       6.284   3.834  13.170  0.00  0.00    +0.000 Br
ATOM      6  C   UNL     1       4.885   3.729  15.652  0.00  0.00    +0.000 A 
ATOM      7  C   UNL     1       4.664   4.061  16.991  0.00  0.00    +0.000 A 
ATOM      8  C   UNL     1       5.525   4.943  17.675  0.00  0.00    +0.000 A 
BRANCH   2   9
ATOM      9  C   UNL     1       7.556   6.530  17.591  0.00  0.00    +0.000 C 
BRANCH   9  11
ATOM     10  C   UNL     1       8.052   8.823  17.780  0.00  0.00    +0.000 C 
ATOM     11  O   UNL     1       7.177   7.856  17.213  0.00  0.00    +0.000 OA
ENDBRANCH   9  11
ENDBRANCH   2   9
ENDBRANCH   1   8
BRANCH   1  12
ATOM     12  C   UNL     1       3.539   4.678  19.829  0.00  0.00    +0.000 A 
ATOM     13  C   UNL     1       3.498   3.258  19.857  0.00  0.00    +0.000 A 
ATOM     14  C   UNL     1       2.342   2.541  20.197  0.00  0.00    +0.000 A 
ATOM     15  C   UNL     1       1.190   3.222  20.514  0.00  0.00    +0.000 A 
ATOM     16  C   UNL     1       1.190   4.619  20.452  0.00  0.00    +0.000 A 
ATOM     17  C   UNL     1       2.349   5.374  20.132  0.00  0.00    +0.000 A 
BRANCH  17  18
ATOM     18  C   UNL     1       2.159   6.881  20.090  0.00  0.00    +0.000 C 
BRANCH  18  19
ATOM     19  N   UNL     1       2.487   7.503  18.787  0.00  0.00    +0.000 NA
ATOM     20  C   UNL     1       2.125   6.637  17.660  0.00  0.00    +0.000 C 
ATOM     21  C   UNL     1       1.828   8.802  18.647  0.00  0.00    +0.000 C 
ENDBRANCH  18  19
ENDBRANCH  17  18
ENDBRANCH   1  12
TORSDOF 6
ENDMDL
MODEL 8
REMARK VINA RESULT:      -6.1      3.230      6.150
REMARK  Name = 
REMARK  9 active torsions:
REMARK  status: ('A' for Active; 'I' for Inactive)
REMARK    1  A    between atoms: C_1  and  O_2
REMARK    2  A    between atoms: O_2  and  C_3
REMARK    3  A    between atoms: C_3  and  C_4
REMARK    4  A    between atoms: C_10  and  S_11
REMARK    5  A    between atoms: S_11  and  C_12
REMARK    6  A    between atoms: C_17  and  C_18
REMARK    7  A    between atoms: C_18  and  N_19
REMARK    8  A    between atoms: N_19  and  C_20
REMARK    9  A    between atoms: N_19  and  C_21
REMARK                            x       y       z     vdW  Elec       q    Type
REMARK                         _______ _______ _______ _____ _____    ______ ____
ROOT
ATOM      1  S   UNL     1       4.228   3.885  17.719  0.00  0.00    +0.000 S 
ENDROOT
BRANCH   1   8
ATOM      2  C   UNL     1       2.295   5.427  19.049  0.00  0.00    +0.000 A 
ATOM      3  C   UNL     1       1.715   6.676  19.359  0.00  0.00    +0.000 A 
ATOM      4  C   UNL     1       2.174   7.848  18.764  0.00  0.00    +0.000 A 
ATOM      5 BR   UNL     1       1.373   9.502  19.205  0.00  0.00    +0.000 Br
ATOM      6  C   UNL     1       3.218   7.806  17.847  0.00  0.00    +0.000 A 
ATOM      7  C   UNL     1       3.814   6.580  17.537  0.00  0.00    +0.000 A 
ATOM      8  C   UNL     1       3.385   5.386  18.152  0.00  0.00    +0.000 A 
BRANCH   2   9
ATOM      9  C   UNL     1       1.727   4.208  19.739  0.00  0.00    +0.000 C 
BRANCH   9  11
ATOM     10  C   UNL     1       2.581   2.803  21.423  0.00  0.00    +0.000 C 
ATOM     11  O   UNL     1       2.246   4.140  21.069  0.00  0.00    +0.000 OA
ENDBRANCH   9  11
ENDBRANCH   2   9
ENDBRANCH   1   8
BRANCH   1  12
ATOM     12  C   UNL     1       5.396   4.176  16.378  0.00  0.00    +0.000 A 
ATOM     13  C   UNL     1       4.778   3.999  15.111  0.00  0.00    +0.000 A 
ATOM     14  C   UNL     1       5.463   4.187  13.901  0.00  0.00    +0.000 A 
ATOM     15  C   UNL     1       6.788   4.555  13.923  0.00  0.00    +0.000 A 
ATOM     16  C   UNL     1       7.433   4.694  15.157  0.00  0.00    +0.000 A 
ATOM     17  C   UNL     1       6.762   4.531  16.397  0.00  0.00    +0.000 A 
BRANCH  17  18
ATOM     18  C   UNL     1       7.626   4.698  17.636  0.00  0.00    +0.000 C 
BRANCH  18  19
ATOM     19  N   UNL     1       7.250   5.845  18.494  0.00  0.00    +0.000 NA
ATOM     20  C   UNL     1       7.818   5.731  19.841  0.00  0.00    +0.000 C 
ATOM     21  C   UNL     1       7.664   7.110  17.885  0.00  0.00    +0.000 C 
ENDBRANCH  18  19
ENDBRANCH  17  18
ENDBRANCH   1  12
TORSDOF 6
ENDMDL
MODEL 9
REMARK VINA RESULT:      -6.1      3.495      6.289
REMARK  Name = 
REMARK  9 active torsions:
REMARK  status: ('A' for Active; 'I' for Inactive)
REMARK    1  A    between atoms: C_1  and  O_2
REMARK    2  A    between atoms: O_2  and  C_3
REMARK    3  A    between atoms: C_3  and  C_4
REMARK    4  A    between atoms: C_10  and  S_11
REMARK    5  A    between atoms: S_11  and  C_12
REMARK    6  A    between atoms: C_17  and  C_18
REMARK    7  A    between atoms: C_18  and  N_19
REMARK    8  A    between atoms: N_19  and  C_20
REMARK    9  A    between atoms: N_19  and  C_21
REMARK                            x       y       z     vdW  Elec       q    Type
REMARK                         _______ _______ _______ _____ _____    ______ ____
ROOT
ATOM      1  S   UNL     1       3.961   4.241  18.018  0.00  0.00    +0.000 S 
ENDROOT
BRANCH   1   8
ATOM      2  C   UNL     1       2.496   5.814  19.826  0.00  0.00    +0.000 A 
ATOM      3  C   UNL     1       1.873   7.032  20.176  0.00  0.00    +0.000 A 
ATOM      4  C   UNL     1       1.818   8.093  19.278  0.00  0.00    +0.000 A 
ATOM      5 BR   UNL     1       0.976   9.708  19.783  0.00  0.00    +0.000 Br
ATOM      6  C   UNL     1       2.377   7.970  18.012  0.00  0.00    +0.000 A 
ATOM      7  C   UNL     1       3.010   6.777  17.651  0.00  0.00    +0.000 A 
ATOM      8  C   UNL     1       3.106   5.701  18.557  0.00  0.00    +0.000 A 
BRANCH   2   9
ATOM      9  C   UNL     1       2.504   4.715  20.863  0.00  0.00    +0.000 C 
BRANCH   9  11
ATOM     10  C   UNL     1       1.360   2.766  21.521  0.00  0.00    +0.000 C 
ATOM     11  O   UNL     1       1.292   3.965  20.759  0.00  0.00    +0.000 OA
ENDBRANCH   9  11
ENDBRANCH   2   9
ENDBRANCH   1   8
BRANCH   1  12
ATOM     12  C   UNL     1       5.152   4.643  16.727  0.00  0.00    +0.000 A 
ATOM     13  C   UNL     1       5.051   3.738  15.635  0.00  0.00    +0.000 A 
ATOM     14  C   UNL     1       5.851   3.843  14.489  0.00  0.00    +0.000 A 
ATOM     15  C   UNL     1       6.781   4.853  14.402  0.00  0.00    +0.000 A 
ATOM     16  C   UNL     1       6.932   5.731  15.480  0.00  0.00    +0.000 A 
ATOM     17  C   UNL     1       6.122   5.664  16.644  0.00  0.00    +0.000 A 
BRANCH  17  18
ATOM     18  C   UNL     1       6.442   6.685  17.724  0.00  0.00    +0.000 C 
BRANCH  18  19
ATOM     19  N   UNL     1       7.836   6.635  18.219  0.00  0.00    +0.000 NA
ATOM     20  C   UNL     1       8.371   7.976  18.485  0.00  0.00    +0.000 C 
ATOM     21  C   UNL     1       7.933   5.814  19.426  0.00  0.00    +0.000 C 
ENDBRANCH  18  19
ENDBRANCH  17  18
ENDBRANCH   1  12
TORSDOF 6
ENDMDL
