MODEL 1
REMARK VINA RESULT:      -9.4      0.000      0.000
REMARK  Name = 
REMARK  6 active torsions:
REMARK  status: ('A' for Active; 'I' for Inactive)
REMARK    1  A    between atoms: C_1  and  N_2
REMARK    2  A    between atoms: C_3  and  C_4
REMARK    3  A    between atoms: C_4  and  C_5
REMARK    4  A    between atoms: C_5  and  C_6
REMARK    5  A    between atoms: C_9  and  N_10
REMARK    6  A    between atoms: N_13  and  C_14
REMARK                            x       y       z     vdW  Elec       q    Type
REMARK                         _______ _______ _______ _____ _____    ______ ____
ROOT
ATOM      1  C   UNL     1       6.993   5.250  16.999  0.00  0.00    +0.000 A 
ATOM      2  C   UNL     1       7.054   6.540  16.465  0.00  0.00    +0.000 A 
ATOM      3  C   UNL     1       7.659   7.579  17.166  0.00  0.00    +0.000 A 
ATOM      4  C   UNL     1       8.188   7.379  18.442  0.00  0.00    +0.000 A 
ATOM      5  C   UNL     1       8.157   6.091  18.982  0.00  0.00    +0.000 A 
ATOM      6  C   UNL     1       7.552   5.041  18.271  0.00  0.00    +0.000 A 
ENDROOT
BRANCH   4   7
ATOM      7  N   UNL     1       8.753   8.440  19.186  0.00  0.00    +0.000 N 
ATOM      8  C   UNL     1       8.811   9.745  18.726  0.00  0.00    +0.000 C 
ATOM      9  O   UNL     1       8.268  10.151  17.703  0.00  0.00    +0.000 OA
ATOM     10  N   UNL     1       9.581  10.552  19.547  0.00  0.00    +0.000 N 
ATOM     11  H   UNL     1       8.842   8.317  20.184  0.00  0.00    +0.000 HD
ATOM     12  H   UNL     1      10.402  10.095  19.926  0.00  0.00    +0.000 HD
BRANCH  10  13
ATOM     13  C   UNL     1       9.751  11.924  19.227  0.00  0.00    +0.000 A 
ATOM     14  C   UNL     1       8.945  12.918  19.793  0.00  0.00    +0.000 A 
ATOM     15  C   UNL     1       9.080  14.249  19.389  0.00  0.00    +0.000 A 
ATOM     16  C   UNL     1      10.016  14.592  18.415  0.00  0.00    +0.000 A 
ATOM     17  C   UNL     1      10.840  13.609  17.863  0.00  0.00    +0.000 A 
ATOM     18  C   UNL     1      10.716  12.288  18.288  0.00  0.00    +0.000 A 
ATOM     19  F   UNL     1      11.489  11.345  17.727  0.00  0.00    +0.000 F 
ENDBRANCH  10  13
ENDBRANCH   4   7
BRANCH   1  20
ATOM     20  C   UNL     1       6.305   4.118  16.262  0.00  0.00    +0.000 C 
BRANCH  20  21
ATOM     21  C   UNL     1       4.814   4.362  15.986  0.00  0.00    +0.000 C 
BRANCH  21  24
ATOM     22  C   UNL     1       3.633   6.555  17.898  0.00  0.00    +0.000 C 
ATOM     23  N   UNL     1       3.433   5.131  17.992  0.00  0.00    +0.000 N 
ATOM     24  C   UNL     1       3.960   4.139  17.191  0.00  0.00    +0.000 A 
ATOM     25  N   UNL     1       3.551   2.952  17.590  0.00  0.00    +0.000 NA
ATOM     26  C   UNL     1       2.710   3.176  18.647  0.00  0.00    +0.000 A 
ATOM     27  C   UNL     1       1.978   2.259  19.414  0.00  0.00    +0.000 A 
ATOM     28  C   UNL     1       1.172   2.740  20.453  0.00  0.00    +0.000 A 
ATOM     29  C   UNL     1       1.098   4.107  20.723  0.00  0.00    +0.000 A 
ATOM     30  C   UNL     1       1.819   5.038  19.965  0.00  0.00    +0.000 A 
ATOM     31  C   UNL     1       2.616   4.533  18.929  0.00  0.00    +0.000 A 
ENDBRANCH  21  24
ENDBRANCH  20  21
ENDBRANCH   1  20
TORSDOF 5
ENDMDL
MODEL 2
REMARK VINA RESULT:      -9.4      0.867      1.519
REMARK  Name = 
REMARK  6 active torsions:
REMARK  status: ('A' for Active; 'I' for Inactive)
REMARK    1  A    between atoms: C_1  and  N_2
REMARK    2  A    between atoms: C_3  and  C_4
REMARK    3  A    between atoms: C_4  and  C_5
REMARK    4  A    between atoms: C_5  and  C_6
REMARK    5  A    between atoms: C_9  and  N_10
REMARK    6  A    between atoms: N_13  and  C_14
REMARK                            x       y       z     vdW  Elec       q    Type
REMARK                         _______ _______ _______ _____ _____    ______ ____
ROOT
ATOM      1  C   UNL     1       6.896   5.167  17.015  0.00  0.00    +0.000 A 
ATOM      2  C   UNL     1       7.390   4.985  18.310  0.00  0.00    +0.000 A 
ATOM      3  C   UNL     1       7.983   6.036  19.005  0.00  0.00    +0.000 A 
ATOM      4  C   UNL     1       8.142   7.292  18.418  0.00  0.00    +0.000 A 
ATOM      5  C   UNL     1       7.634   7.498  17.134  0.00  0.00    +0.000 A 
ATOM      6  C   UNL     1       7.030   6.439  16.435  0.00  0.00    +0.000 A 
ENDROOT
BRANCH   4   7
ATOM      7  N   UNL     1       8.794   8.349  19.094  0.00  0.00    +0.000 N 
ATOM      8  C   UNL     1       8.764   9.663  18.660  0.00  0.00    +0.000 C 
ATOM      9  O   UNL     1       8.071  10.079  17.735  0.00  0.00    +0.000 OA
ATOM     10  N   UNL     1       9.634  10.469  19.377  0.00  0.00    +0.000 N 
ATOM     11  H   UNL     1       9.030   8.209  20.066  0.00  0.00    +0.000 HD
ATOM     12  H   UNL     1      10.509  10.020  19.622  0.00  0.00    +0.000 HD
BRANCH  10  13
ATOM     13  C   UNL     1       9.734  11.850  19.065  0.00  0.00    +0.000 A 
ATOM     14  C   UNL     1      10.420  12.302  17.932  0.00  0.00    +0.000 A 
ATOM     15  C   UNL     1      10.576  13.671  17.703  0.00  0.00    +0.000 A 
ATOM     16  C   UNL     1      10.053  14.594  18.607  0.00  0.00    +0.000 A 
ATOM     17  C   UNL     1       9.347  14.151  19.727  0.00  0.00    +0.000 A 
ATOM     18  C   UNL     1       9.176  12.785  19.937  0.00  0.00    +0.000 A 
ATOM     19  F   UNL     1       8.526  12.367  21.034  0.00  0.00    +0.000 F 
ENDBRANCH  10  13
ENDBRANCH   4   7
BRANCH   1  20
ATOM     20  C   UNL     1       6.282   4.022  16.234  0.00  0.00    +0.000 C 
BRANCH  20  21
ATOM     21  C   UNL     1       4.780   4.184  15.957  0.00  0.00    +0.000 C 
BRANCH  21  24
ATOM     22  C   UNL     1       3.638   6.442  17.817  0.00  0.00    +0.000 C 
ATOM     23  N   UNL     1       3.435   5.022  17.959  0.00  0.00    +0.000 N 
ATOM     24  C   UNL     1       3.944   4.004  17.183  0.00  0.00    +0.000 A 
ATOM     25  N   UNL     1       3.537   2.831  17.626  0.00  0.00    +0.000 NA
ATOM     26  C   UNL     1       2.715   3.093  18.689  0.00  0.00    +0.000 A 
ATOM     27  C   UNL     1       1.991   2.203  19.496  0.00  0.00    +0.000 A 
ATOM     28  C   UNL     1       1.205   2.721  20.532  0.00  0.00    +0.000 A 
ATOM     29  C   UNL     1       1.140   4.096  20.759  0.00  0.00    +0.000 A 
ATOM     30  C   UNL     1       1.852   5.000  19.960  0.00  0.00    +0.000 A 
ATOM     31  C   UNL     1       2.631   4.458  18.929  0.00  0.00    +0.000 A 
ENDBRANCH  21  24
ENDBRANCH  20  21
ENDBRANCH   1  20
TORSDOF 5
ENDMDL
MODEL 3
REMARK VINA RESULT:      -9.2      0.575      1.730
REMARK  Name = 
REMARK  6 active torsions:
REMARK  status: ('A' for Active; 'I' for Inactive)
REMARK    1  A    between atoms: C_1  and  N_2
REMARK    2  A    between atoms: C_3  and  C_4
REMARK    3  A    between atoms: C_4  and  C_5
REMARK    4  A    between atoms: C_5  and  C_6
REMARK    5  A    between atoms: C_9  and  N_10
REMARK    6  A    between atoms: N_13  and  C_14
REMARK                            x       y       z     vdW  Elec       q    Type
REMARK                         _______ _______ _______ _____ _____    ______ ____
ROOT
ATOM      1  C   UNL     1       6.907   5.159  17.107  0.00  0.00    +0.000 A 
ATOM      2  C   UNL     1       7.430   4.996  18.393  0.00  0.00    +0.000 A 
ATOM      3  C   UNL     1       8.016   6.062  19.070  0.00  0.00    +0.000 A 
ATOM      4  C   UNL     1       8.138   7.317  18.473  0.00  0.00    +0.000 A 
ATOM      5  C   UNL     1       7.600   7.505  17.199  0.00  0.00    +0.000 A 
ATOM      6  C   UNL     1       7.003   6.430  16.518  0.00  0.00    +0.000 A 
ENDROOT
BRANCH   4   7
ATOM      7  N   UNL     1       8.782   8.391  19.130  0.00  0.00    +0.000 N 
ATOM      8  C   UNL     1       8.761   9.693  18.660  0.00  0.00    +0.000 C 
ATOM      9  O   UNL     1       8.082  10.085  17.715  0.00  0.00    +0.000 OA
ATOM     10  N   UNL     1       9.622  10.517  19.367  0.00  0.00    +0.000 N 
ATOM     11  H   UNL     1       9.004   8.277  20.108  0.00  0.00    +0.000 HD
ATOM     12  H   UNL     1      10.492  10.073  19.637  0.00  0.00    +0.000 HD
BRANCH  10  13
ATOM     13  C   UNL     1       9.729  11.889  19.020  0.00  0.00    +0.000 A 
ATOM     14  C   UNL     1       8.933  12.867  19.627  0.00  0.00    +0.000 A 
ATOM     15  C   UNL     1       9.001  14.195  19.198  0.00  0.00    +0.000 A 
ATOM     16  C   UNL     1       9.859  14.551  18.160  0.00  0.00    +0.000 A 
ATOM     17  C   UNL     1      10.674  13.584  17.565  0.00  0.00    +0.000 A 
ATOM     18  C   UNL     1      10.618  12.267  18.013  0.00  0.00    +0.000 A 
ATOM     19  F   UNL     1      11.379  11.338  17.414  0.00  0.00    +0.000 F 
ENDBRANCH  10  13
ENDBRANCH   4   7
BRANCH   1  20
ATOM     20  C   UNL     1       6.299   3.998  16.345  0.00  0.00    +0.000 C 
BRANCH  20  21
ATOM     21  C   UNL     1       4.826   4.199  15.961  0.00  0.00    +0.000 C 
BRANCH  21  24
ATOM     22  C   UNL     1       3.553   1.892  17.670  0.00  0.00    +0.000 C 
ATOM     23  N   UNL     1       3.417   3.310  17.895  0.00  0.00    +0.000 N 
ATOM     24  C   UNL     1       3.934   4.347  17.150  0.00  0.00    +0.000 A 
ATOM     25  N   UNL     1       3.592   5.510  17.668  0.00  0.00    +0.000 NA
ATOM     26  C   UNL     1       2.871   5.224  18.797  0.00  0.00    +0.000 A 
ATOM     27  C   UNL     1       2.303   6.096  19.736  0.00  0.00    +0.000 A 
ATOM     28  C   UNL     1       1.607   5.554  20.823  0.00  0.00    +0.000 A 
ATOM     29  C   UNL     1       1.480   4.172  20.972  0.00  0.00    +0.000 A 
ATOM     30  C   UNL     1       2.045   3.287  20.046  0.00  0.00    +0.000 A 
ATOM     31  C   UNL     1       2.738   3.852  18.967  0.00  0.00    +0.000 A 
ENDBRANCH  21  24
ENDBRANCH  20  21
ENDBRANCH   1  20
TORSDOF 5
ENDMDL
MODEL 4
REMARK VINA RESULT:      -9.1      4.856      7.788
REMARK  Name = 
REMARK  6 active torsions:
REMARK  status: ('A' for Active; 'I' for Inactive)
REMARK    1  A    between atoms: C_1  and  N_2
REMARK    2  A    between atoms: C_3  and  C_4
REMARK    3  A    between atoms: C_4  and  C_5
REMARK    4  A    between atoms: C_5  and  C_6
REMARK    5  A    between atoms: C_9  and  N_10
REMARK    6  A    between atoms: N_13  and  C_14
REMARK                            x       y       z     vdW  Elec       q    Type
REMARK                         _______ _______ _______ _____ _____    ______ ____
ROOT
ATOM      1  C   UNL     1       2.170   4.473  18.624  0.00  0.00    +0.000 A 
ATOM      2  C   UNL     1       1.813   4.376  19.972  0.00  0.00    +0.000 A 
ATOM      3  C   UNL     1       1.684   5.513  20.763  0.00  0.00    +0.000 A 
ATOM      4  C   UNL     1       1.947   6.784  20.251  0.00  0.00    +0.000 A 
ATOM      5  C   UNL     1       2.282   6.903  18.901  0.00  0.00    +0.000 A 
ATOM      6  C   UNL     1       2.406   5.755  18.100  0.00  0.00    +0.000 A 
ENDROOT
BRANCH   4   7
ATOM      7  N   UNL     1       1.875   7.940  21.062  0.00  0.00    +0.000 N 
ATOM      8  C   UNL     1       0.737   8.722  21.172  0.00  0.00    +0.000 C 
ATOM      9  O   UNL     1      -0.358   8.434  20.699  0.00  0.00    +0.000 OA
ATOM     10  N   UNL     1       0.978   9.898  21.865  0.00  0.00    +0.000 N 
ATOM     11  H   UNL     1       2.550   8.034  21.806  0.00  0.00    +0.000 HD
ATOM     12  H   UNL     1       1.881  10.314  21.674  0.00  0.00    +0.000 HD
BRANCH  10  13
ATOM     13  C   UNL     1      -0.078  10.822  22.073  0.00  0.00    +0.000 A 
ATOM     14  C   UNL     1      -0.987  10.678  23.128  0.00  0.00    +0.000 A 
ATOM     15  C   UNL     1      -2.068  11.555  23.250  0.00  0.00    +0.000 A 
ATOM     16  C   UNL     1      -2.248  12.576  22.319  0.00  0.00    +0.000 A 
ATOM     17  C   UNL     1      -1.332  12.740  21.278  0.00  0.00    +0.000 A 
ATOM     18  C   UNL     1      -0.244  11.877  21.175  0.00  0.00    +0.000 A 
ATOM     19  F   UNL     1       0.612  12.021  20.152  0.00  0.00    +0.000 F 
ENDBRANCH  10  13
ENDBRANCH   4   7
BRANCH   1  20
ATOM     20  C   UNL     1       2.349   3.240  17.760  0.00  0.00    +0.000 C 
BRANCH  20  21
ATOM     21  C   UNL     1       3.739   2.594  17.866  0.00  0.00    +0.000 C 
BRANCH  21  24
ATOM     22  C   UNL     1       4.790   4.370  15.499  0.00  0.00    +0.000 C 
ATOM     23  N   UNL     1       5.256   4.387  16.863  0.00  0.00    +0.000 N 
ATOM     24  C   UNL     1       4.841   3.602  17.918  0.00  0.00    +0.000 A 
ATOM     25  N   UNL     1       5.504   3.907  19.015  0.00  0.00    +0.000 NA
ATOM     26  C   UNL     1       6.340   4.938  18.678  0.00  0.00    +0.000 A 
ATOM     27  C   UNL     1       7.236   5.657  19.482  0.00  0.00    +0.000 A 
ATOM     28  C   UNL     1       7.988   6.685  18.899  0.00  0.00    +0.000 A 
ATOM     29  C   UNL     1       7.849   6.990  17.544  0.00  0.00    +0.000 A 
ATOM     30  C   UNL     1       6.956   6.284  16.728  0.00  0.00    +0.000 A 
ATOM     31  C   UNL     1       6.214   5.262  17.333  0.00  0.00    +0.000 A 
ENDBRANCH  21  24
ENDBRANCH  20  21
ENDBRANCH   1  20
TORSDOF 5
ENDMDL
MODEL 5
REMARK VINA RESULT:      -9.0      5.109      7.778
REMARK  Name = 
REMARK  6 active torsions:
REMARK  status: ('A' for Active; 'I' for Inactive)
REMARK    1  A    between atoms: C_1  and  N_2
REMARK    2  A    between atoms: C_3  and  C_4
REMARK    3  A    between atoms: C_4  and  C_5
REMARK    4  A    between atoms: C_5  and  C_6
REMARK    5  A    between atoms: C_9  and  N_10
REMARK    6  A    between atoms: N_13  and  C_14
REMARK                            x       y       z     vdW  Elec       q    Type
REMARK                         _______ _______ _______ _____ _____    ______ ____
ROOT
ATOM      1  C   UNL     1       2.168   4.584  18.509  0.00  0.00    +0.000 A 
ATOM      2  C   UNL     1       1.795   4.446  19.849  0.00  0.00    +0.000 A 
ATOM      3  C   UNL     1       1.665   5.558  20.676  0.00  0.00    +0.000 A 
ATOM      4  C   UNL     1       1.944   6.843  20.208  0.00  0.00    +0.000 A 
ATOM      5  C   UNL     1       2.296   7.002  18.867  0.00  0.00    +0.000 A 
ATOM      6  C   UNL     1       2.421   5.880  18.030  0.00  0.00    +0.000 A 
ENDROOT
BRANCH   4   7
ATOM      7  N   UNL     1       1.872   7.973  21.055  0.00  0.00    +0.000 N 
ATOM      8  C   UNL     1       0.852   8.908  20.990  0.00  0.00    +0.000 C 
ATOM      9  O   UNL     1      -0.157   8.795  20.301  0.00  0.00    +0.000 OA
ATOM     10  N   UNL     1       1.109  10.015  21.783  0.00  0.00    +0.000 N 
ATOM     11  H   UNL     1       2.394   7.946  21.919  0.00  0.00    +0.000 HD
ATOM     12  H   UNL     1       2.081  10.301  21.792  0.00  0.00    +0.000 HD
BRANCH  10  13
ATOM     13  C   UNL     1       0.169  11.076  21.838  0.00  0.00    +0.000 A 
ATOM     14  C   UNL     1       0.265  12.190  20.996  0.00  0.00    +0.000 A 
ATOM     15  C   UNL     1      -0.625  13.258  21.138  0.00  0.00    +0.000 A 
ATOM     16  C   UNL     1      -1.610  13.220  22.123  0.00  0.00    +0.000 A 
ATOM     17  C   UNL     1      -1.726  12.101  22.951  0.00  0.00    +0.000 A 
ATOM     18  C   UNL     1      -0.851  11.031  22.789  0.00  0.00    +0.000 A 
ATOM     19  F   UNL     1      -0.948   9.975  23.612  0.00  0.00    +0.000 F 
ENDBRANCH  10  13
ENDBRANCH   4   7
BRANCH   1  20
ATOM     20  C   UNL     1       2.348   3.378  17.608  0.00  0.00    +0.000 C 
BRANCH  20  21
ATOM     21  C   UNL     1       3.730   2.716  17.712  0.00  0.00    +0.000 C 
BRANCH  21  24
ATOM     22  C   UNL     1       4.863   4.504  15.392  0.00  0.00    +0.000 C 
ATOM     23  N   UNL     1       5.293   4.501  16.768  0.00  0.00    +0.000 N 
ATOM     24  C   UNL     1       4.841   3.710  17.803  0.00  0.00    +0.000 A 
ATOM     25  N   UNL     1       5.478   3.996  18.921  0.00  0.00    +0.000 NA
ATOM     26  C   UNL     1       6.334   5.020  18.617  0.00  0.00    +0.000 A 
ATOM     27  C   UNL     1       7.217   5.721  19.452  0.00  0.00    +0.000 A 
ATOM     28  C   UNL     1       7.995   6.747  18.901  0.00  0.00    +0.000 A 
ATOM     29  C   UNL     1       7.895   7.067  17.546  0.00  0.00    +0.000 A 
ATOM     30  C   UNL     1       7.017   6.381  16.699  0.00  0.00    +0.000 A 
ATOM     31  C   UNL     1       6.247   5.360  17.273  0.00  0.00    +0.000 A 
ENDBRANCH  21  24
ENDBRANCH  20  21
ENDBRANCH   1  20
TORSDOF 5
ENDMDL
MODEL 6
REMARK VINA RESULT:      -8.9      1.126      1.428
REMARK  Name = 
REMARK  6 active torsions:
REMARK  status: ('A' for Active; 'I' for Inactive)
REMARK    1  A    between atoms: C_1  and  N_2
REMARK    2  A    between atoms: C_3  and  C_4
REMARK    3  A    between atoms: C_4  and  C_5
REMARK    4  A    between atoms: C_5  and  C_6
REMARK    5  A    between atoms: C_9  and  N_10
REMARK    6  A    between atoms: N_13  and  C_14
REMARK                            x       y       z     vdW  Elec       q    Type
REMARK                         _______ _______ _______ _____ _____    ______ ____
ROOT
ATOM      1  C   UNL     1       6.634   5.025  16.794  0.00  0.00    +0.000 A 
ATOM      2  C   UNL     1       6.558   6.384  16.475  0.00  0.00    +0.000 A 
ATOM      3  C   UNL     1       7.236   7.337  17.229  0.00  0.00    +0.000 A 
ATOM      4  C   UNL     1       7.979   6.974  18.353  0.00  0.00    +0.000 A 
ATOM      5  C   UNL     1       8.085   5.620  18.674  0.00  0.00    +0.000 A 
ATOM      6  C   UNL     1       7.405   4.657  17.908  0.00  0.00    +0.000 A 
ENDROOT
BRANCH   4   7
ATOM      7  N   UNL     1       8.624   7.940  19.160  0.00  0.00    +0.000 N 
ATOM      8  C   UNL     1       8.753   9.270  18.797  0.00  0.00    +0.000 C 
ATOM      9  O   UNL     1       8.215   9.785  17.821  0.00  0.00    +0.000 OA
ATOM     10  N   UNL     1       9.589   9.966  19.657  0.00  0.00    +0.000 N 
ATOM     11  H   UNL     1       8.726   7.737  20.143  0.00  0.00    +0.000 HD
ATOM     12  H   UNL     1      10.388   9.433  19.980  0.00  0.00    +0.000 HD
BRANCH  10  13
ATOM     13  C   UNL     1       9.837  11.345  19.436  0.00  0.00    +0.000 A 
ATOM     14  C   UNL     1      10.630  11.790  18.372  0.00  0.00    +0.000 A 
ATOM     15  C   UNL     1      10.927  13.149  18.236  0.00  0.00    +0.000 A 
ATOM     16  C   UNL     1      10.438  14.067  19.163  0.00  0.00    +0.000 A 
ATOM     17  C   UNL     1       9.628  13.633  20.214  0.00  0.00    +0.000 A 
ATOM     18  C   UNL     1       9.316  12.281  20.330  0.00  0.00    +0.000 A 
ATOM     19  F   UNL     1       8.565  11.868  21.363  0.00  0.00    +0.000 F 
ENDBRANCH  10  13
ENDBRANCH   4   7
BRANCH   1  20
ATOM     20  C   UNL     1       5.871   3.981  16.002  0.00  0.00    +0.000 C 
BRANCH  20  21
ATOM     21  C   UNL     1       4.344   4.125  16.080  0.00  0.00    +0.000 C 
BRANCH  21  24
ATOM     22  C   UNL     1       2.927   6.281  17.871  0.00  0.00    +0.000 C 
ATOM     23  N   UNL     1       3.172   4.902  18.212  0.00  0.00    +0.000 N 
ATOM     24  C   UNL     1       3.816   3.938  17.465  0.00  0.00    +0.000 A 
ATOM     25  N   UNL     1       3.849   2.791  18.113  0.00  0.00    +0.000 NA
ATOM     26  C   UNL     1       3.177   3.000  19.288  0.00  0.00    +0.000 A 
ATOM     27  C   UNL     1       2.891   2.100  20.323  0.00  0.00    +0.000 A 
ATOM     28  C   UNL     1       2.175   2.557  21.436  0.00  0.00    +0.000 A 
ATOM     29  C   UNL     1       1.753   3.885  21.515  0.00  0.00    +0.000 A 
ATOM     30  C   UNL     1       2.026   4.798  20.489  0.00  0.00    +0.000 A 
ATOM     31  C   UNL     1       2.742   4.316  19.385  0.00  0.00    +0.000 A 
ENDBRANCH  21  24
ENDBRANCH  20  21
ENDBRANCH   1  20
TORSDOF 5
ENDMDL
MODEL 7
REMARK VINA RESULT:      -8.8      3.097     10.653
REMARK  Name = 
REMARK  6 active torsions:
REMARK  status: ('A' for Active; 'I' for Inactive)
REMARK    1  A    between atoms: C_1  and  N_2
REMARK    2  A    between atoms: C_3  and  C_4
REMARK    3  A    between atoms: C_4  and  C_5
REMARK    4  A    between atoms: C_5  and  C_6
REMARK    5  A    between atoms: C_9  and  N_10
REMARK    6  A    between atoms: N_13  and  C_14
REMARK                            x       y       z     vdW  Elec       q    Type
REMARK                         _______ _______ _______ _____ _____    ______ ____
ROOT
ATOM      1  C   UNL     1       8.219   8.544  18.113  0.00  0.00    +0.000 A 
ATOM      2  C   UNL     1       8.559   7.534  19.017  0.00  0.00    +0.000 A 
ATOM      3  C   UNL     1       7.912   6.302  18.992  0.00  0.00    +0.000 A 
ATOM      4  C   UNL     1       6.875   6.048  18.094  0.00  0.00    +0.000 A 
ATOM      5  C   UNL     1       6.538   7.036  17.168  0.00  0.00    +0.000 A 
ATOM      6  C   UNL     1       7.196   8.278  17.188  0.00  0.00    +0.000 A 
ENDROOT
BRANCH   4   7
ATOM      7  N   UNL     1       6.173   4.820  18.099  0.00  0.00    +0.000 N 
ATOM      8  C   UNL     1       4.881   4.685  18.576  0.00  0.00    +0.000 C 
ATOM      9  O   UNL     1       4.159   5.618  18.915  0.00  0.00    +0.000 OA
ATOM     10  N   UNL     1       4.490   3.358  18.654  0.00  0.00    +0.000 N 
ATOM     11  H   UNL     1       6.493   4.095  17.474  0.00  0.00    +0.000 HD
ATOM     12  H   UNL     1       5.225   2.726  18.950  0.00  0.00    +0.000 HD
BRANCH  10  13
ATOM     13  C   UNL     1       3.192   3.031  19.124  0.00  0.00    +0.000 A 
ATOM     14  C   UNL     1       2.915   2.894  20.489  0.00  0.00    +0.000 A 
ATOM     15  C   UNL     1       1.648   2.484  20.912  0.00  0.00    +0.000 A 
ATOM     16  C   UNL     1       0.654   2.206  19.975  0.00  0.00    +0.000 A 
ATOM     17  C   UNL     1       0.917   2.364  18.612  0.00  0.00    +0.000 A 
ATOM     18  C   UNL     1       2.174   2.794  18.198  0.00  0.00    +0.000 A 
ATOM     19  F   UNL     1       2.428   2.910  16.886  0.00  0.00    +0.000 F 
ENDBRANCH  10  13
ENDBRANCH   4   7
BRANCH   1  20
ATOM     20  C   UNL     1       8.891   9.903  18.153  0.00  0.00    +0.000 C 
BRANCH  20  21
ATOM     21  C   UNL     1       9.346  10.339  19.553  0.00  0.00    +0.000 C 
BRANCH  21  24
ATOM     22  C   UNL     1       9.066  12.457  21.855  0.00  0.00    +0.000 C 
ATOM     23  N   UNL     1       9.788  12.618  20.617  0.00  0.00    +0.000 N 
ATOM     24  C   UNL     1       9.905  11.724  19.574  0.00  0.00    +0.000 A 
ATOM     25  N   UNL     1      10.645  12.229  18.607  0.00  0.00    +0.000 NA
ATOM     26  C   UNL     1      11.050  13.462  19.046  0.00  0.00    +0.000 A 
ATOM     27  C   UNL     1      11.881  14.401  18.419  0.00  0.00    +0.000 A 
ATOM     28  C   UNL     1      12.157  15.604  19.081  0.00  0.00    +0.000 A 
ATOM     29  C   UNL     1      11.615  15.865  20.341  0.00  0.00    +0.000 A 
ATOM     30  C   UNL     1      10.786  14.937  20.982  0.00  0.00    +0.000 A 
ATOM     31  C   UNL     1      10.526  13.740  20.302  0.00  0.00    +0.000 A 
ENDBRANCH  21  24
ENDBRANCH  20  21
ENDBRANCH   1  20
TORSDOF 5
ENDMDL
MODEL 8
REMARK VINA RESULT:      -8.7      3.058     10.586
REMARK  Name = 
REMARK  6 active torsions:
REMARK  status: ('A' for Active; 'I' for Inactive)
REMARK    1  A    between atoms: C_1  and  N_2
REMARK    2  A    between atoms: C_3  and  C_4
REMARK    3  A    between atoms: C_4  and  C_5
REMARK    4  A    between atoms: C_5  and  C_6
REMARK    5  A    between atoms: C_9  and  N_10
REMARK    6  A    between atoms: N_13  and  C_14
REMARK                            x       y       z     vdW  Elec       q    Type
REMARK                         _______ _______ _______ _____ _____    ______ ____
ROOT
ATOM      1  C   UNL     1       8.112   8.140  17.921  0.00  0.00    +0.000 A 
ATOM      2  C   UNL     1       8.455   7.281  18.969  0.00  0.00    +0.000 A 
ATOM      3  C   UNL     1       7.849   6.036  19.104  0.00  0.00    +0.000 A 
ATOM      4  C   UNL     1       6.849   5.620  18.224  0.00  0.00    +0.000 A 
ATOM      5  C   UNL     1       6.510   6.454  17.157  0.00  0.00    +0.000 A 
ATOM      6  C   UNL     1       7.127   7.709  17.017  0.00  0.00    +0.000 A 
ENDROOT
BRANCH   4   7
ATOM      7  N   UNL     1       6.186   4.381  18.386  0.00  0.00    +0.000 N 
ATOM      8  C   UNL     1       4.826   4.270  18.619  0.00  0.00    +0.000 C 
ATOM      9  O   UNL     1       4.031   5.205  18.576  0.00  0.00    +0.000 OA
ATOM     10  N   UNL     1       4.455   2.973  18.935  0.00  0.00    +0.000 N 
ATOM     11  H   UNL     1       6.643   3.555  18.027  0.00  0.00    +0.000 HD
ATOM     12  H   UNL     1       5.126   2.479  19.512  0.00  0.00    +0.000 HD
BRANCH  10  13
ATOM     13  C   UNL     1       3.095   2.675  19.206  0.00  0.00    +0.000 A 
ATOM     14  C   UNL     1       2.186   2.382  18.182  0.00  0.00    +0.000 A 
ATOM     15  C   UNL     1       0.835   2.181  18.477  0.00  0.00    +0.000 A 
ATOM     16  C   UNL     1       0.385   2.278  19.792  0.00  0.00    +0.000 A 
ATOM     17  C   UNL     1       1.290   2.547  20.821  0.00  0.00    +0.000 A 
ATOM     18  C   UNL     1       2.638   2.723  20.524  0.00  0.00    +0.000 A 
ATOM     19  F   UNL     1       3.495   3.016  21.515  0.00  0.00    +0.000 F 
ENDBRANCH  10  13
ENDBRANCH   4   7
BRANCH   1  20
ATOM     20  C   UNL     1       8.739   9.514  17.784  0.00  0.00    +0.000 C 
BRANCH  20  21
ATOM     21  C   UNL     1       9.094  10.179  19.122  0.00  0.00    +0.000 C 
BRANCH  21  24
ATOM     22  C   UNL     1       8.075  12.683  17.523  0.00  0.00    +0.000 C 
ATOM     23  N   UNL     1       9.308  12.574  18.263  0.00  0.00    +0.000 N 
ATOM     24  C   UNL     1       9.800  11.484  18.948  0.00  0.00    +0.000 A 
ATOM     25  N   UNL     1      10.964  11.766  19.499  0.00  0.00    +0.000 NA
ATOM     26  C   UNL     1      11.216  13.079  19.199  0.00  0.00    +0.000 A 
ATOM     27  C   UNL     1      12.301  13.885  19.572  0.00  0.00    +0.000 A 
ATOM     28  C   UNL     1      12.330  15.217  19.140  0.00  0.00    +0.000 A 
ATOM     29  C   UNL     1      11.300  15.734  18.353  0.00  0.00    +0.000 A 
ATOM     30  C   UNL     1      10.207  14.944  17.975  0.00  0.00    +0.000 A 
ATOM     31  C   UNL     1      10.199  13.616  18.420  0.00  0.00    +0.000 A 
ENDBRANCH  21  24
ENDBRANCH  20  21
ENDBRANCH   1  20
TORSDOF 5
ENDMDL
MODEL 9
REMARK VINA RESULT:      -8.6      1.610      2.680
REMARK  Name = 
REMARK  6 active torsions:
REMARK  status: ('A' for Active; 'I' for Inactive)
REMARK    1  A    between atoms: C_1  and  N_2
REMARK    2  A    between atoms: C_3  and  C_4
REMARK    3  A    between atoms: C_4  and  C_5
REMARK    4  A    between atoms: C_5  and  C_6
REMARK    5  A    between atoms: C_9  and  N_10
REMARK    6  A    between atoms: N_13  and  C_14
REMARK                            x       y       z     vdW  Elec       q    Type
REMARK                         _______ _______ _______ _____ _____    ______ ____
ROOT
ATOM      1  C   UNL     1       5.947   4.926  17.347  0.00  0.00    +0.000 A 
ATOM      2  C   UNL     1       6.472   5.941  16.543  0.00  0.00    +0.000 A 
ATOM      3  C   UNL     1       7.368   6.873  17.059  0.00  0.00    +0.000 A 
ATOM      4  C   UNL     1       7.739   6.852  18.404  0.00  0.00    +0.000 A 
ATOM      5  C   UNL     1       7.242   5.831  19.217  0.00  0.00    +0.000 A 
ATOM      6  C   UNL     1       6.343   4.886  18.694  0.00  0.00    +0.000 A 
ENDROOT
BRANCH   4   7
ATOM      7  N   UNL     1       8.603   7.828  18.951  0.00  0.00    +0.000 N 
ATOM      8  C   UNL     1       8.589   9.158  18.567  0.00  0.00    +0.000 C 
ATOM      9  O   UNL     1       7.751   9.663  17.825  0.00  0.00    +0.000 OA
ATOM     10  N   UNL     1       9.654   9.866  19.101  0.00  0.00    +0.000 N 
ATOM     11  H   UNL     1       9.028   7.630  19.846  0.00  0.00    +0.000 HD
ATOM     12  H   UNL     1      10.521   9.344  19.141  0.00  0.00    +0.000 HD
BRANCH  10  13
ATOM     13  C   UNL     1       9.797  11.248  18.811  0.00  0.00    +0.000 A 
ATOM     14  C   UNL     1      10.456  11.694  17.659  0.00  0.00    +0.000 A 
ATOM     15  C   UNL     1      10.658  13.061  17.450  0.00  0.00    +0.000 A 
ATOM     16  C   UNL     1      10.209  13.986  18.390  0.00  0.00    +0.000 A 
ATOM     17  C   UNL     1       9.531  13.549  19.530  0.00  0.00    +0.000 A 
ATOM     18  C   UNL     1       9.312  12.187  19.722  0.00  0.00    +0.000 A 
ATOM     19  F   UNL     1       8.690  11.774  20.837  0.00  0.00    +0.000 F 
ENDBRANCH  10  13
ENDBRANCH   4   7
BRANCH   1  20
ATOM     20  C   UNL     1       4.943   3.927  16.806  0.00  0.00    +0.000 C 
BRANCH  20  21
ATOM     21  C   UNL     1       3.772   3.634  17.757  0.00  0.00    +0.000 C 
BRANCH  21  24
ATOM     22  C   UNL     1       2.584   4.098  20.626  0.00  0.00    +0.000 C 
ATOM     23  N   UNL     1       2.638   5.055  19.550  0.00  0.00    +0.000 N 
ATOM     24  C   UNL     1       3.122   4.877  18.271  0.00  0.00    +0.000 A 
ATOM     25  N   UNL     1       3.000   5.985  17.568  0.00  0.00    +0.000 NA
ATOM     26  C   UNL     1       2.461   6.915  18.417  0.00  0.00    +0.000 A 
ATOM     27  C   UNL     1       2.160   8.264  18.185  0.00  0.00    +0.000 A 
ATOM     28  C   UNL     1       1.613   9.022  19.228  0.00  0.00    +0.000 A 
ATOM     29  C   UNL     1       1.370   8.446  20.476  0.00  0.00    +0.000 A 
ATOM     30  C   UNL     1       1.668   7.101  20.726  0.00  0.00    +0.000 A 
ATOM     31  C   UNL     1       2.217   6.364  19.668  0.00  0.00    +0.000 A 
ENDBRANCH  21  24
ENDBRANCH  20  21
ENDBRANCH   1  20
TORSDOF 5
ENDMDL
