MODEL 1
REMARK VINA RESULT:      -7.6      0.000      0.000
REMARK  Name = 
REMARK  5 active torsions:
REMARK  status: ('A' for Active; 'I' for Inactive)
REMARK    1  A    between atoms: C_2  and  C_4
REMARK    2  A    between atoms: N_9  and  C_10
REMARK    3  A    between atoms: C_14  and  C_15
REMARK    4  A    between atoms: C_19  and  O_20
REMARK    5  A    between atoms: C_23  and  N_24
REMARK                            x       y       z     vdW  Elec       q    Type
REMARK                         _______ _______ _______ _____ _____    ______ ____
ROOT
ATOM      1  C   UNL     1       5.957   5.527  16.650  0.00  0.00    +0.000 A 
ATOM      2  S   UNL     1       5.736   7.224  16.714  0.00  0.00    +0.000 S 
ATOM      3  C   UNL     1       4.223   7.077  17.481  0.00  0.00    +0.000 A 
ATOM      4  N   UNL     1       3.515   8.183  17.773  0.00  0.00    +0.000 NA
ATOM      5  C   UNL     1       2.384   7.942  18.434  0.00  0.00    +0.000 A 
ATOM      6  N   UNL     1       1.537   8.985  18.825  0.00  0.00    +0.000 N 
ATOM      7  N   UNL     1       1.972   6.729  18.822  0.00  0.00    +0.000 NA
ATOM      8  C   UNL     1       2.709   5.623  18.527  0.00  0.00    +0.000 A 
ATOM      9  C   UNL     1       3.884   5.762  17.765  0.00  0.00    +0.000 A 
ATOM     10  C   UNL     1       4.862   4.869  17.183  0.00  0.00    +0.000 A 
ATOM     11  H   UNL     1       0.695   8.556  19.192  0.00  0.00    +0.000 HD
ENDROOT
BRANCH   8  12
ATOM     12  C   UNL     1       2.225   4.361  19.107  0.00  0.00    +0.000 A 
ATOM     13  C   UNL     1       1.373   3.513  18.378  0.00  0.00    +0.000 A 
ATOM     14  C   UNL     1       0.899   2.312  18.920  0.00  0.00    +0.000 A 
ATOM     15  C   UNL     1       1.295   1.917  20.195  0.00  0.00    +0.000 A 
ATOM     16  C   UNL     1       2.126   2.748  20.931  0.00  0.00    +0.000 A 
ATOM     17  C   UNL     1       2.541   3.973  20.419  0.00  0.00    +0.000 A 
BRANCH  16  18
ATOM     18  O   UNL     1       2.580   2.400  22.168  0.00  0.00    +0.000 OA
ATOM     19  H   UNL     1       2.774   1.449  22.175  0.00  0.00    +0.000 HD
ENDBRANCH  16  18
ENDBRANCH   8  12
BRANCH   1  21
ATOM     20  N   UNL     1       7.437   5.234  14.765  0.00  0.00    +0.000 N 
ATOM     21  C   UNL     1       7.152   4.929  16.069  0.00  0.00    +0.000 C 
ATOM     22  O   UNL     1       7.918   4.180  16.672  0.00  0.00    +0.000 OA
ATOM     23  H   UNL     1       8.266   4.836  14.355  0.00  0.00    +0.000 HD
ATOM     24  H   UNL     1       6.862   5.869  14.225  0.00  0.00    +0.000 HD
ENDBRANCH   1  21
BRANCH   6  25
ATOM     25  C   UNL     1       1.456  10.230  18.077  0.00  0.00    +0.000 C 
ATOM     26  C   UNL     1       0.366  11.239  18.308  0.00  0.00    +0.000 C 
ATOM     27  C   UNL     1       1.759  11.530  18.777  0.00  0.00    +0.000 C 
ENDBRANCH   6  25
BRANCH  10  28
ATOM     28  N   UNL     1       4.766   3.521  17.151  0.00  0.00    +0.000 N 
ATOM     29  H   UNL     1       4.819   2.947  16.315  0.00  0.00    +0.000 HD
ATOM     30  H   UNL     1       4.626   2.976  18.008  0.00  0.00    +0.000 HD
ENDBRANCH  10  28
TORSDOF 5
ENDMDL
MODEL 2
REMARK VINA RESULT:      -7.5      2.234      5.131
REMARK  Name = 
REMARK  5 active torsions:
REMARK  status: ('A' for Active; 'I' for Inactive)
REMARK    1  A    between atoms: C_2  and  C_4
REMARK    2  A    between atoms: N_9  and  C_10
REMARK    3  A    between atoms: C_14  and  C_15
REMARK    4  A    between atoms: C_19  and  O_20
REMARK    5  A    between atoms: C_23  and  N_24
REMARK                            x       y       z     vdW  Elec       q    Type
REMARK                         _______ _______ _______ _____ _____    ______ ____
ROOT
ATOM      1  C   UNL     1       2.979   3.904  20.532  0.00  0.00    +0.000 A 
ATOM      2  S   UNL     1       1.801   5.128  20.748  0.00  0.00    +0.000 S 
ATOM      3  C   UNL     1       2.503   6.124  19.558  0.00  0.00    +0.000 A 
ATOM      4  N   UNL     1       1.967   7.330  19.299  0.00  0.00    +0.000 NA
ATOM      5  C   UNL     1       2.560   7.982  18.301  0.00  0.00    +0.000 A 
ATOM      6  N   UNL     1       2.117   9.247  17.897  0.00  0.00    +0.000 N 
ATOM      7  N   UNL     1       3.576   7.501  17.574  0.00  0.00    +0.000 NA
ATOM      8  C   UNL     1       4.096   6.273  17.843  0.00  0.00    +0.000 A 
ATOM      9  C   UNL     1       3.589   5.534  18.928  0.00  0.00    +0.000 A 
ATOM     10  C   UNL     1       3.911   4.283  19.580  0.00  0.00    +0.000 A 
ATOM     11  H   UNL     1       2.788   9.590  17.221  0.00  0.00    +0.000 HD
ENDROOT
BRANCH   8  12
ATOM     12  C   UNL     1       5.124   5.796  16.906  0.00  0.00    +0.000 A 
ATOM     13  C   UNL     1       6.491   5.988  17.177  0.00  0.00    +0.000 A 
ATOM     14  C   UNL     1       7.480   5.545  16.291  0.00  0.00    +0.000 A 
ATOM     15  C   UNL     1       7.123   4.871  15.125  0.00  0.00    +0.000 A 
ATOM     16  C   UNL     1       5.780   4.685  14.839  0.00  0.00    +0.000 A 
ATOM     17  C   UNL     1       4.796   5.185  15.686  0.00  0.00    +0.000 A 
BRANCH  16  18
ATOM     18  O   UNL     1       5.367   3.999  13.735  0.00  0.00    +0.000 OA
ATOM     19  H   UNL     1       4.945   4.620  13.120  0.00  0.00    +0.000 HD
ENDBRANCH  16  18
ENDBRANCH   8  12
BRANCH   1  21
ATOM     20  N   UNL     1       1.783   2.340  21.929  0.00  0.00    +0.000 N 
ATOM     21  C   UNL     1       2.957   2.670  21.305  0.00  0.00    +0.000 C 
ATOM     22  O   UNL     1       3.913   1.906  21.425  0.00  0.00    +0.000 OA
ATOM     23  H   UNL     1       1.751   1.484  22.458  0.00  0.00    +0.000 HD
ATOM     24  H   UNL     1       0.952   2.913  21.843  0.00  0.00    +0.000 HD
ENDBRANCH   1  21
BRANCH   6  25
ATOM     25  C   UNL     1       1.476  10.168  18.822  0.00  0.00    +0.000 C 
ATOM     26  C   UNL     1       1.295  11.627  18.511  0.00  0.00    +0.000 C 
ATOM     27  C   UNL     1       0.109  10.711  18.491  0.00  0.00    +0.000 C 
ENDBRANCH   6  25
BRANCH  10  28
ATOM     28  N   UNL     1       4.993   3.519  19.311  0.00  0.00    +0.000 N 
ATOM     29  H   UNL     1       5.514   2.976  19.993  0.00  0.00    +0.000 HD
ATOM     30  H   UNL     1       5.367   3.440  18.359  0.00  0.00    +0.000 HD
ENDBRANCH  10  28
TORSDOF 5
ENDMDL
MODEL 3
REMARK VINA RESULT:      -7.4      2.094      4.970
REMARK  Name = 
REMARK  5 active torsions:
REMARK  status: ('A' for Active; 'I' for Inactive)
REMARK    1  A    between atoms: C_2  and  C_4
REMARK    2  A    between atoms: N_9  and  C_10
REMARK    3  A    between atoms: C_14  and  C_15
REMARK    4  A    between atoms: C_19  and  O_20
REMARK    5  A    between atoms: C_23  and  N_24
REMARK                            x       y       z     vdW  Elec       q    Type
REMARK                         _______ _______ _______ _____ _____    ______ ____
ROOT
ATOM      1  C   UNL     1       2.572   4.081  20.696  0.00  0.00    +0.000 A 
ATOM      2  S   UNL     1       1.491   5.403  20.823  0.00  0.00    +0.000 S 
ATOM      3  C   UNL     1       2.328   6.301  19.642  0.00  0.00    +0.000 A 
ATOM      4  N   UNL     1       1.906   7.539  19.326  0.00  0.00    +0.000 NA
ATOM      5  C   UNL     1       2.597   8.110  18.340  0.00  0.00    +0.000 A 
ATOM      6  N   UNL     1       2.280   9.393  17.882  0.00  0.00    +0.000 N 
ATOM      7  N   UNL     1       3.602   7.525  17.676  0.00  0.00    +0.000 NA
ATOM      8  C   UNL     1       4.005   6.267  18.002  0.00  0.00    +0.000 A 
ATOM      9  C   UNL     1       3.388   5.605  19.081  0.00  0.00    +0.000 A 
ATOM     10  C   UNL     1       3.574   4.352  19.780  0.00  0.00    +0.000 A 
ATOM     11  H   UNL     1       3.008   9.660  17.230  0.00  0.00    +0.000 HD
ENDROOT
BRANCH   8  12
ATOM     12  C   UNL     1       5.031   5.679  17.129  0.00  0.00    +0.000 A 
ATOM     13  C   UNL     1       4.869   5.669  15.732  0.00  0.00    +0.000 A 
ATOM     14  C   UNL     1       5.835   5.107  14.889  0.00  0.00    +0.000 A 
ATOM     15  C   UNL     1       7.003   4.569  15.424  0.00  0.00    +0.000 A 
ATOM     16  C   UNL     1       7.171   4.561  16.800  0.00  0.00    +0.000 A 
ATOM     17  C   UNL     1       6.181   5.058  17.641  0.00  0.00    +0.000 A 
BRANCH  16  18
ATOM     18  O   UNL     1       8.308   4.085  17.384  0.00  0.00    +0.000 OA
ATOM     19  H   UNL     1       8.995   3.995  16.704  0.00  0.00    +0.000 HD
ENDBRANCH  16  18
ENDBRANCH   8  12
BRANCH   1  21
ATOM     20  N   UNL     1       1.140   2.543  21.885  0.00  0.00    +0.000 N 
ATOM     21  C   UNL     1       2.411   2.876  21.499  0.00  0.00    +0.000 C 
ATOM     22  O   UNL     1       3.334   2.140  21.842  0.00  0.00    +0.000 OA
ATOM     23  H   UNL     1       1.014   1.707  22.432  0.00  0.00    +0.000 HD
ATOM     24  H   UNL     1       0.336   3.092  21.608  0.00  0.00    +0.000 HD
ENDBRANCH   1  21
BRANCH   6  25
ATOM     25  C   UNL     1       1.677  10.392  18.751  0.00  0.00    +0.000 C 
ATOM     26  C   UNL     1       1.583  11.842  18.368  0.00  0.00    +0.000 C 
ATOM     27  C   UNL     1       0.348  10.992  18.370  0.00  0.00    +0.000 C 
ENDBRANCH   6  25
BRANCH  10  28
ATOM     28  N   UNL     1       4.600   3.494  19.583  0.00  0.00    +0.000 N 
ATOM     29  H   UNL     1       5.514   3.745  19.216  0.00  0.00    +0.000 HD
ATOM     30  H   UNL     1       4.511   2.497  19.802  0.00  0.00    +0.000 HD
ENDBRANCH  10  28
TORSDOF 5
ENDMDL
MODEL 4
REMARK VINA RESULT:      -7.4      1.167      1.242
REMARK  Name = 
REMARK  5 active torsions:
REMARK  status: ('A' for Active; 'I' for Inactive)
REMARK    1  A    between atoms: C_2  and  C_4
REMARK    2  A    between atoms: N_9  and  C_10
REMARK    3  A    between atoms: C_14  and  C_15
REMARK    4  A    between atoms: C_19  and  O_20
REMARK    5  A    between atoms: C_23  and  N_24
REMARK                            x       y       z     vdW  Elec       q    Type
REMARK                         _______ _______ _______ _____ _____    ______ ____
ROOT
ATOM      1  C   UNL     1       5.330   5.279  16.223  0.00  0.00    +0.000 A 
ATOM      2  S   UNL     1       5.009   6.959  16.137  0.00  0.00    +0.000 S 
ATOM      3  C   UNL     1       3.828   6.877  17.361  0.00  0.00    +0.000 A 
ATOM      4  N   UNL     1       3.164   7.990  17.720  0.00  0.00    +0.000 NA
ATOM      5  C   UNL     1       2.319   7.812  18.734  0.00  0.00    +0.000 A 
ATOM      6  N   UNL     1       1.559   8.873  19.239  0.00  0.00    +0.000 N 
ATOM      7  N   UNL     1       2.144   6.656  19.386  0.00  0.00    +0.000 NA
ATOM      8  C   UNL     1       2.835   5.544  19.015  0.00  0.00    +0.000 A 
ATOM      9  C   UNL     1       3.698   5.608  17.905  0.00  0.00    +0.000 A 
ATOM     10  C   UNL     1       4.511   4.671  17.159  0.00  0.00    +0.000 A 
ATOM     11  H   UNL     1       0.910   8.476  19.908  0.00  0.00    +0.000 HD
ENDROOT
BRANCH   8  12
ATOM     12  C   UNL     1       2.656   4.365  19.876  0.00  0.00    +0.000 A 
ATOM     13  C   UNL     1       1.380   3.998  20.340  0.00  0.00    +0.000 A 
ATOM     14  C   UNL     1       1.197   2.882  21.165  0.00  0.00    +0.000 A 
ATOM     15  C   UNL     1       2.285   2.089  21.521  0.00  0.00    +0.000 A 
ATOM     16  C   UNL     1       3.551   2.445  21.082  0.00  0.00    +0.000 A 
ATOM     17  C   UNL     1       3.742   3.591  20.318  0.00  0.00    +0.000 A 
BRANCH  16  18
ATOM     18  O   UNL     1       4.649   1.689  21.362  0.00  0.00    +0.000 OA
ATOM     19  H   UNL     1       5.317   2.251  21.786  0.00  0.00    +0.000 HD
ENDBRANCH  16  18
ENDBRANCH   8  12
BRANCH   1  21
ATOM     20  N   UNL     1       7.523   5.284  15.215  0.00  0.00    +0.000 N 
ATOM     21  C   UNL     1       6.325   4.641  15.372  0.00  0.00    +0.000 C 
ATOM     22  O   UNL     1       6.162   3.567  14.797  0.00  0.00    +0.000 OA
ATOM     23  H   UNL     1       8.224   4.849  14.638  0.00  0.00    +0.000 HD
ATOM     24  H   UNL     1       7.729   6.156  15.688  0.00  0.00    +0.000 HD
ENDBRANCH   1  21
BRANCH   6  25
ATOM     25  C   UNL     1       1.152   9.991  18.403  0.00  0.00    +0.000 C 
ATOM     26  C   UNL     1      -0.292  10.347  18.181  0.00  0.00    +0.000 C 
ATOM     27  C   UNL     1       0.562  11.218  19.052  0.00  0.00    +0.000 C 
ENDBRANCH   6  25
BRANCH  10  28
ATOM     28  N   UNL     1       4.514   3.331  17.334  0.00  0.00    +0.000 N 
ATOM     29  H   UNL     1       5.342   2.743  17.358  0.00  0.00    +0.000 HD
ATOM     30  H   UNL     1       3.642   2.806  17.457  0.00  0.00    +0.000 HD
ENDBRANCH  10  28
TORSDOF 5
ENDMDL
MODEL 5
REMARK VINA RESULT:      -7.2      0.919      1.335
REMARK  Name = 
REMARK  5 active torsions:
REMARK  status: ('A' for Active; 'I' for Inactive)
REMARK    1  A    between atoms: C_2  and  C_4
REMARK    2  A    between atoms: N_9  and  C_10
REMARK    3  A    between atoms: C_14  and  C_15
REMARK    4  A    between atoms: C_19  and  O_20
REMARK    5  A    between atoms: C_23  and  N_24
REMARK                            x       y       z     vdW  Elec       q    Type
REMARK                         _______ _______ _______ _____ _____    ______ ____
ROOT
ATOM      1  C   UNL     1       5.926   5.560  16.856  0.00  0.00    +0.000 A 
ATOM      2  S   UNL     1       5.683   7.254  16.798  0.00  0.00    +0.000 S 
ATOM      3  C   UNL     1       4.191   7.148  17.612  0.00  0.00    +0.000 A 
ATOM      4  N   UNL     1       3.476   8.265  17.837  0.00  0.00    +0.000 NA
ATOM      5  C   UNL     1       2.365   8.061  18.543  0.00  0.00    +0.000 A 
ATOM      6  N   UNL     1       1.513   9.121  18.875  0.00  0.00    +0.000 N 
ATOM      7  N   UNL     1       1.979   6.876  19.032  0.00  0.00    +0.000 NA
ATOM      8  C   UNL     1       2.723   5.761  18.803  0.00  0.00    +0.000 A 
ATOM      9  C   UNL     1       3.877   5.855  18.003  0.00  0.00    +0.000 A 
ATOM     10  C   UNL     1       4.853   4.932  17.465  0.00  0.00    +0.000 A 
ATOM     11  H   UNL     1       0.687   8.712  19.295  0.00  0.00    +0.000 HD
ENDROOT
BRANCH   8  12
ATOM     12  C   UNL     1       2.271   4.541  19.489  0.00  0.00    +0.000 A 
ATOM     13  C   UNL     1       2.526   4.346  20.858  0.00  0.00    +0.000 A 
ATOM     14  C   UNL     1       2.107   3.187  21.521  0.00  0.00    +0.000 A 
ATOM     15  C   UNL     1       1.394   2.207  20.835  0.00  0.00    +0.000 A 
ATOM     16  C   UNL     1       1.145   2.379  19.482  0.00  0.00    +0.000 A 
ATOM     17  C   UNL     1       1.620   3.499  18.808  0.00  0.00    +0.000 A 
BRANCH  16  18
ATOM     18  O   UNL     1       0.419   1.477  18.763  0.00  0.00    +0.000 OA
ATOM     19  H   UNL     1      -0.422   1.316  19.219  0.00  0.00    +0.000 HD
ENDBRANCH  16  18
ENDBRANCH   8  12
BRANCH   1  21
ATOM     20  N   UNL     1       7.364   5.144  14.963  0.00  0.00    +0.000 N 
ATOM     21  C   UNL     1       7.114   4.933  16.292  0.00  0.00    +0.000 C 
ATOM     22  O   UNL     1       7.904   4.240  16.930  0.00  0.00    +0.000 OA
ATOM     23  H   UNL     1       8.188   4.725  14.563  0.00  0.00    +0.000 HD
ATOM     24  H   UNL     1       6.768   5.730  14.392  0.00  0.00    +0.000 HD
ENDBRANCH   1  21
BRANCH   6  25
ATOM     25  C   UNL     1       1.397  10.304  18.037  0.00  0.00    +0.000 C 
ATOM     26  C   UNL     1       0.475  11.443  18.375  0.00  0.00    +0.000 C 
ATOM     27  C   UNL     1       1.956  11.614  18.533  0.00  0.00    +0.000 C 
ENDBRANCH   6  25
BRANCH  10  28
ATOM     28  N   UNL     1       4.774   3.584  17.538  0.00  0.00    +0.000 N 
ATOM     29  H   UNL     1       4.333   2.983  16.848  0.00  0.00    +0.000 HD
ATOM     30  H   UNL     1       5.172   3.069  18.330  0.00  0.00    +0.000 HD
ENDBRANCH  10  28
TORSDOF 5
ENDMDL
MODEL 6
REMARK VINA RESULT:      -6.9      2.512      6.227
REMARK  Name = 
REMARK  5 active torsions:
REMARK  status: ('A' for Active; 'I' for Inactive)
REMARK    1  A    between atoms: C_2  and  C_4
REMARK    2  A    between atoms: N_9  and  C_10
REMARK    3  A    between atoms: C_14  and  C_15
REMARK    4  A    between atoms: C_19  and  O_20
REMARK    5  A    between atoms: C_23  and  N_24
REMARK                            x       y       z     vdW  Elec       q    Type
REMARK                         _______ _______ _______ _____ _____    ______ ____
ROOT
ATOM      1  C   UNL     1       2.863   3.401  20.447  0.00  0.00    +0.000 A 
ATOM      2  S   UNL     1       4.263   2.879  19.612  0.00  0.00    +0.000 S 
ATOM      3  C   UNL     1       4.297   4.274  18.635  0.00  0.00    +0.000 A 
ATOM      4  N   UNL     1       5.250   4.403  17.694  0.00  0.00    +0.000 NA
ATOM      5  C   UNL     1       5.214   5.566  17.046  0.00  0.00    +0.000 A 
ATOM      6  N   UNL     1       6.143   5.866  16.043  0.00  0.00    +0.000 N 
ATOM      7  N   UNL     1       4.349   6.555  17.302  0.00  0.00    +0.000 NA
ATOM      8  C   UNL     1       3.401   6.410  18.268  0.00  0.00    +0.000 A 
ATOM      9  C   UNL     1       3.306   5.187  18.959  0.00  0.00    +0.000 A 
ATOM     10  C   UNL     1       2.420   4.615  19.950  0.00  0.00    +0.000 A 
ATOM     11  H   UNL     1       5.844   6.734  15.617  0.00  0.00    +0.000 HD
ENDROOT
BRANCH   8  12
ATOM     12  C   UNL     1       2.587   7.602  18.547  0.00  0.00    +0.000 A 
ATOM     13  C   UNL     1       2.309   8.538  17.536  0.00  0.00    +0.000 A 
ATOM     14  C   UNL     1       1.541   9.681  17.789  0.00  0.00    +0.000 A 
ATOM     15  C   UNL     1       1.006   9.896  19.057  0.00  0.00    +0.000 A 
ATOM     16  C   UNL     1       1.280   8.987  20.067  0.00  0.00    +0.000 A 
ATOM     17  C   UNL     1       2.099   7.888  19.833  0.00  0.00    +0.000 A 
BRANCH  16  18
ATOM     18  O   UNL     1       0.754   9.120  21.318  0.00  0.00    +0.000 OA
ATOM     19  H   UNL     1       0.763   8.254  21.756  0.00  0.00    +0.000 HD
ENDBRANCH  16  18
ENDBRANCH   8  12
BRANCH   1  21
ATOM     20  N   UNL     1       0.891   2.537  21.539  0.00  0.00    +0.000 N 
ATOM     21  C   UNL     1       2.258   2.606  21.507  0.00  0.00    +0.000 C 
ATOM     22  O   UNL     1       2.891   1.991  22.363  0.00  0.00    +0.000 OA
ATOM     23  H   UNL     1       0.460   1.982  22.260  0.00  0.00    +0.000 HD
ATOM     24  H   UNL     1       0.316   2.996  20.843  0.00  0.00    +0.000 HD
ENDBRANCH   1  21
BRANCH   6  25
ATOM     25  C   UNL     1       6.757   4.827  15.231  0.00  0.00    +0.000 C 
ATOM     26  C   UNL     1       6.016   4.121  14.130  0.00  0.00    +0.000 C 
ATOM     27  C   UNL     1       7.082   5.118  13.788  0.00  0.00    +0.000 C 
ENDBRANCH   6  25
BRANCH  10  28
ATOM     28  N   UNL     1       1.272   5.180  20.388  0.00  0.00    +0.000 N 
ATOM     29  H   UNL     1       1.005   6.150  20.252  0.00  0.00    +0.000 HD
ATOM     30  H   UNL     1       0.574   4.636  20.907  0.00  0.00    +0.000 HD
ENDBRANCH  10  28
TORSDOF 5
ENDMDL
MODEL 7
REMARK VINA RESULT:      -6.8      1.242      1.495
REMARK  Name = 
REMARK  5 active torsions:
REMARK  status: ('A' for Active; 'I' for Inactive)
REMARK    1  A    between atoms: C_2  and  C_4
REMARK    2  A    between atoms: N_9  and  C_10
REMARK    3  A    between atoms: C_14  and  C_15
REMARK    4  A    between atoms: C_19  and  O_20
REMARK    5  A    between atoms: C_23  and  N_24
REMARK                            x       y       z     vdW  Elec       q    Type
REMARK                         _______ _______ _______ _____ _____    ______ ____
ROOT
ATOM      1  C   UNL     1       5.538   5.250  15.792  0.00  0.00    +0.000 A 
ATOM      2  S   UNL     1       5.085   6.900  15.718  0.00  0.00    +0.000 S 
ATOM      3  C   UNL     1       4.031   6.752  17.048  0.00  0.00    +0.000 A 
ATOM      4  N   UNL     1       3.321   7.819  17.456  0.00  0.00    +0.000 NA
ATOM      5  C   UNL     1       2.589   7.596  18.546  0.00  0.00    +0.000 A 
ATOM      6  N   UNL     1       1.800   8.607  19.108  0.00  0.00    +0.000 N 
ATOM      7  N   UNL     1       2.562   6.442  19.223  0.00  0.00    +0.000 NA
ATOM      8  C   UNL     1       3.298   5.378  18.801  0.00  0.00    +0.000 A 
ATOM      9  C   UNL     1       4.047   5.486  17.615  0.00  0.00    +0.000 A 
ATOM     10  C   UNL     1       4.856   4.600  16.807  0.00  0.00    +0.000 A 
ATOM     11  H   UNL     1       1.248   8.174  19.839  0.00  0.00    +0.000 HD
ENDROOT
BRANCH   8  12
ATOM     12  C   UNL     1       3.288   4.204  19.687  0.00  0.00    +0.000 A 
ATOM     13  C   UNL     1       4.373   3.310  19.712  0.00  0.00    +0.000 A 
ATOM     14  C   UNL     1       4.374   2.186  20.545  0.00  0.00    +0.000 A 
ATOM     15  C   UNL     1       3.300   1.947  21.399  0.00  0.00    +0.000 A 
ATOM     16  C   UNL     1       2.217   2.813  21.378  0.00  0.00    +0.000 A 
ATOM     17  C   UNL     1       2.187   3.892  20.501  0.00  0.00    +0.000 A 
BRANCH  16  18
ATOM     18  O   UNL     1       1.154   2.657  22.216  0.00  0.00    +0.000 OA
ATOM     19  H   UNL     1       0.519   2.048  21.806  0.00  0.00    +0.000 HD
ENDBRANCH  16  18
ENDBRANCH   8  12
BRANCH   1  21
ATOM     20  N   UNL     1       7.670   5.350  14.664  0.00  0.00    +0.000 N 
ATOM     21  C   UNL     1       6.495   4.673  14.858  0.00  0.00    +0.000 C 
ATOM     22  O   UNL     1       6.322   3.621  14.246  0.00  0.00    +0.000 OA
ATOM     23  H   UNL     1       8.345   4.956  14.029  0.00  0.00    +0.000 HD
ATOM     24  H   UNL     1       7.883   6.205  15.163  0.00  0.00    +0.000 HD
ENDBRANCH   1  21
BRANCH   6  25
ATOM     25  C   UNL     1       1.235   9.677  18.302  0.00  0.00    +0.000 C 
ATOM     26  C   UNL     1      -0.175  10.165  18.485  0.00  0.00    +0.000 C 
ATOM     27  C   UNL     1       0.971  11.017  18.940  0.00  0.00    +0.000 C 
ENDBRANCH   6  25
BRANCH  10  28
ATOM     28  N   UNL     1       4.976   3.266  16.994  0.00  0.00    +0.000 N 
ATOM     29  H   UNL     1       4.523   2.550  16.433  0.00  0.00    +0.000 HD
ATOM     30  H   UNL     1       5.557   2.883  17.747  0.00  0.00    +0.000 HD
ENDBRANCH  10  28
TORSDOF 5
ENDMDL
MODEL 8
REMARK VINA RESULT:      -6.4      2.732      6.449
REMARK  Name = 
REMARK  5 active torsions:
REMARK  status: ('A' for Active; 'I' for Inactive)
REMARK    1  A    between atoms: C_2  and  C_4
REMARK    2  A    between atoms: N_9  and  C_10
REMARK    3  A    between atoms: C_14  and  C_15
REMARK    4  A    between atoms: C_19  and  O_20
REMARK    5  A    between atoms: C_23  and  N_24
REMARK                            x       y       z     vdW  Elec       q    Type
REMARK                         _______ _______ _______ _____ _____    ______ ____
ROOT
ATOM      1  C   UNL     1       2.870   3.384  20.435  0.00  0.00    +0.000 A 
ATOM      2  S   UNL     1       4.235   2.823  19.566  0.00  0.00    +0.000 S 
ATOM      3  C   UNL     1       4.302   4.230  18.608  0.00  0.00    +0.000 A 
ATOM      4  N   UNL     1       5.241   4.338  17.651  0.00  0.00    +0.000 NA
ATOM      5  C   UNL     1       5.236   5.511  17.020  0.00  0.00    +0.000 A 
ATOM      6  N   UNL     1       6.156   5.791  16.004  0.00  0.00    +0.000 N 
ATOM      7  N   UNL     1       4.412   6.527  17.306  0.00  0.00    +0.000 NA
ATOM      8  C   UNL     1       3.478   6.402  18.288  0.00  0.00    +0.000 A 
ATOM      9  C   UNL     1       3.351   5.174  18.964  0.00  0.00    +0.000 A 
ATOM     10  C   UNL     1       2.463   4.620  19.963  0.00  0.00    +0.000 A 
ATOM     11  H   UNL     1       5.881   6.677  15.595  0.00  0.00    +0.000 HD
ENDROOT
BRANCH   8  12
ATOM     12  C   UNL     1       2.713   7.619  18.599  0.00  0.00    +0.000 A 
ATOM     13  C   UNL     1       1.949   7.708  19.777  0.00  0.00    +0.000 A 
ATOM     14  C   UNL     1       1.211   8.858  20.082  0.00  0.00    +0.000 A 
ATOM     15  C   UNL     1       1.246   9.959  19.229  0.00  0.00    +0.000 A 
ATOM     16  C   UNL     1       1.985   9.881  18.059  0.00  0.00    +0.000 A 
ATOM     17  C   UNL     1       2.663   8.714  17.722  0.00  0.00    +0.000 A 
BRANCH  16  18
ATOM     18  O   UNL     1       2.091  10.936  17.203  0.00  0.00    +0.000 OA
ATOM     19  H   UNL     1       2.930  11.395  17.372  0.00  0.00    +0.000 HD
ENDBRANCH  16  18
ENDBRANCH   8  12
BRANCH   1  21
ATOM     20  N   UNL     1       0.890   2.511  21.504  0.00  0.00    +0.000 N 
ATOM     21  C   UNL     1       2.257   2.596  21.495  0.00  0.00    +0.000 C 
ATOM     22  O   UNL     1       2.882   2.000  22.370  0.00  0.00    +0.000 OA
ATOM     23  H   UNL     1       0.454   1.960  22.226  0.00  0.00    +0.000 HD
ATOM     24  H   UNL     1       0.322   2.953  20.793  0.00  0.00    +0.000 HD
ENDBRANCH   1  21
BRANCH   6  25
ATOM     25  C   UNL     1       6.717   4.743  15.165  0.00  0.00    +0.000 C 
ATOM     26  C   UNL     1       5.948   4.119  14.034  0.00  0.00    +0.000 C 
ATOM     27  C   UNL     1       7.077   5.059  13.736  0.00  0.00    +0.000 C 
ENDBRANCH   6  25
BRANCH  10  28
ATOM     28  N   UNL     1       1.345   5.219  20.431  0.00  0.00    +0.000 N 
ATOM     29  H   UNL     1       1.183   6.222  20.459  0.00  0.00    +0.000 HD
ATOM     30  H   UNL     1       0.561   4.672  20.801  0.00  0.00    +0.000 HD
ENDBRANCH  10  28
TORSDOF 5
ENDMDL
MODEL 9
REMARK VINA RESULT:      -6.1      3.489      4.309
REMARK  Name = 
REMARK  5 active torsions:
REMARK  status: ('A' for Active; 'I' for Inactive)
REMARK    1  A    between atoms: C_2  and  C_4
REMARK    2  A    between atoms: N_9  and  C_10
REMARK    3  A    between atoms: C_14  and  C_15
REMARK    4  A    between atoms: C_19  and  O_20
REMARK    5  A    between atoms: C_23  and  N_24
REMARK                            x       y       z     vdW  Elec       q    Type
REMARK                         _______ _______ _______ _____ _____    ______ ____
ROOT
ATOM      1  C   UNL     1       5.866   4.285  14.430  0.00  0.00    +0.000 A 
ATOM      2  S   UNL     1       7.248   5.291  14.529  0.00  0.00    +0.000 S 
ATOM      3  C   UNL     1       6.941   5.686  16.157  0.00  0.00    +0.000 A 
ATOM      4  N   UNL     1       7.759   6.538  16.800  0.00  0.00    +0.000 NA
ATOM      5  C   UNL     1       7.456   6.712  18.086  0.00  0.00    +0.000 A 
ATOM      6  N   UNL     1       8.215   7.558  18.901  0.00  0.00    +0.000 N 
ATOM      7  N   UNL     1       6.460   6.086  18.725  0.00  0.00    +0.000 NA
ATOM      8  C   UNL     1       5.651   5.217  18.059  0.00  0.00    +0.000 A 
ATOM      9  C   UNL     1       5.840   5.022  16.678  0.00  0.00    +0.000 A 
ATOM     10  C   UNL     1       5.170   4.288  15.626  0.00  0.00    +0.000 A 
ATOM     11  H   UNL     1       7.728   7.627  19.787  0.00  0.00    +0.000 HD
ENDROOT
BRANCH   8  12
ATOM     12  C   UNL     1       4.671   4.497  18.885  0.00  0.00    +0.000 A 
ATOM     13  C   UNL     1       4.845   3.135  19.187  0.00  0.00    +0.000 A 
ATOM     14  C   UNL     1       3.916   2.436  19.967  0.00  0.00    +0.000 A 
ATOM     15  C   UNL     1       2.806   3.094  20.490  0.00  0.00    +0.000 A 
ATOM     16  C   UNL     1       2.615   4.434  20.192  0.00  0.00    +0.000 A 
ATOM     17  C   UNL     1       3.501   5.111  19.361  0.00  0.00    +0.000 A 
BRANCH  16  18
ATOM     18  O   UNL     1       1.570   5.144  20.704  0.00  0.00    +0.000 OA
ATOM     19  H   UNL     1       0.740   4.761  20.377  0.00  0.00    +0.000 HD
ENDBRANCH  16  18
ENDBRANCH   8  12
BRANCH   1  21
ATOM     20  N   UNL     1       6.502   2.842  12.602  0.00  0.00    +0.000 N 
ATOM     21  C   UNL     1       5.517   3.576  13.205  0.00  0.00    +0.000 C 
ATOM     22  O   UNL     1       4.401   3.588  12.689  0.00  0.00    +0.000 OA
ATOM     23  H   UNL     1       6.271   2.339  11.761  0.00  0.00    +0.000 HD
ATOM     24  H   UNL     1       7.432   2.769  12.995  0.00  0.00    +0.000 HD
ENDBRANCH   1  21
BRANCH   6  25
ATOM     25  C   UNL     1       8.921   8.712  18.365  0.00  0.00    +0.000 C 
ATOM     26  C   UNL     1       8.218   9.995  18.017  0.00  0.00    +0.000 C 
ATOM     27  C   UNL     1       9.097   9.933  19.230  0.00  0.00    +0.000 C 
ENDBRANCH   6  25
BRANCH  10  28
ATOM     28  N   UNL     1       3.989   3.643  15.757  0.00  0.00    +0.000 N 
ATOM     29  H   UNL     1       3.440   3.589  16.609  0.00  0.00    +0.000 HD
ATOM     30  H   UNL     1       3.561   3.150  14.967  0.00  0.00    +0.000 HD
ENDBRANCH  10  28
TORSDOF 5
ENDMDL
