MODEL 1
REMARK VINA RESULT:      -7.2      0.000      0.000
REMARK  Name = 
REMARK  15 active torsions:
REMARK  status: ('A' for Active; 'I' for Inactive)
REMARK    1  A    between atoms: C_2  and  C_3
REMARK    2  A    between atoms: C_2  and  C_4
REMARK    3  A    between atoms: C_7  and  C_8
REMARK    4  A    between atoms: C_10  and  C_11
REMARK    5  A    between atoms: C_12  and  O_13
REMARK    6  A    between atoms: C_15  and  C_16
REMARK    7  A    between atoms: C_16  and  C_17
REMARK    8  A    between atoms: C_17  and  C_18
REMARK    9  A    between atoms: C_18  and  C_19
REMARK   10  A    between atoms: C_19  and  C_20
REMARK   11  A    between atoms: C_22  and  O_23
REMARK   12  A    between atoms: O_23  and  C_24
REMARK   13  A    between atoms: N_26  and  C_27
REMARK   14  A    between atoms: N_26  and  C_28
REMARK   15  A    between atoms: C_28  and  C_29
REMARK                            x       y       z     vdW  Elec       q    Type
REMARK                         _______ _______ _______ _____ _____    ______ ____
ROOT
ATOM      1  C   UNL     1       3.979   5.107  17.438  0.00  0.00    +0.000 A 
ATOM      2  C   UNL     1       3.883   3.728  17.161  0.00  0.00    +0.000 A 
ATOM      3  C   UNL     1       2.779   2.963  17.533  0.00  0.00    +0.000 A 
ATOM      4  C   UNL     1       1.685   3.545  18.162  0.00  0.00    +0.000 A 
ATOM      5  C   UNL     1       1.711   4.918  18.400  0.00  0.00    +0.000 A 
ATOM      6  C   UNL     1       2.851   5.679  18.085  0.00  0.00    +0.000 A 
ENDROOT
BRANCH   1  13
ATOM      7  C   UNL     1       6.433   5.931  18.019  0.00  0.00    +0.000 C 
ATOM      8  C   UNL     1       7.277   4.675  17.720  0.00  0.00    +0.000 C 
ATOM      9  C   UNL     1       7.736   4.602  16.257  0.00  0.00    +0.000 C 
ATOM     10  C   UNL     1       6.750   5.142  15.246  0.00  0.00    +0.000 C 
ATOM     11  C   UNL     1       7.095   4.954  13.798  0.00  0.00    +0.000 C 
ATOM     12  C   UNL     1       5.598   5.740  15.606  0.00  0.00    +0.000 C 
ATOM     13  C   UNL     1       5.186   5.980  17.048  0.00  0.00    +0.000 C 
BRANCH   7  15
ATOM     14  C   UNL     1       7.227   8.234  17.168  0.00  0.00    +0.000 C 
ATOM     15  C   UNL     1       7.356   7.183  17.999  0.00  0.00    +0.000 C 
ATOM     16  C   UNL     1       8.491   7.201  18.999  0.00  0.00    +0.000 C 
ENDBRANCH   7  15
ENDBRANCH   1  13
BRANCH   2  17
ATOM     17  O   UNL     1       4.815   3.001  16.476  0.00  0.00    +0.000 OA
ATOM     18  H   UNL     1       5.468   2.686  17.120  0.00  0.00    +0.000 HD
ENDBRANCH   2  17
BRANCH   4  19
ATOM     19  C   UNL     1       0.517   2.697  18.591  0.00  0.00    +0.000 C 
BRANCH  19  20
ATOM     20  C   UNL     1       0.733   2.029  19.956  0.00  0.00    +0.000 C 
BRANCH  20  21
ATOM     21  C   UNL     1       1.086   3.034  21.059  0.00  0.00    +0.000 C 
BRANCH  21  22
ATOM     22  C   UNL     1       2.328   2.588  21.830  0.00  0.00    +0.000 C 
ATOM     23  C   UNL     1       3.543   2.498  20.921  0.00  0.00    +0.000 C 
ENDBRANCH  21  22
ENDBRANCH  20  21
ENDBRANCH  19  20
ENDBRANCH   4  19
BRANCH   6  24
ATOM     24  O   UNL     1       2.839   7.087  18.324  0.00  0.00    +0.000 OA
BRANCH  24  25
ATOM     25  C   UNL     1       2.122   7.708  19.364  0.00  0.00    +0.000 C 
ATOM     26  O   UNL     1       1.987   7.232  20.487  0.00  0.00    +0.000 OA
ATOM     27  N   UNL     1       1.574   8.933  18.992  0.00  0.00    +0.000 N 
ATOM     28  C   UNL     1       1.841   9.548  17.705  0.00  0.00    +0.000 C 
BRANCH  27  29
ATOM     29  C   UNL     1       0.940   9.761  20.018  0.00  0.00    +0.000 C 
ATOM     30  C   UNL     1      -0.484  10.149  19.648  0.00  0.00    +0.000 C 
ENDBRANCH  27  29
ENDBRANCH  24  25
ENDBRANCH   6  24
TORSDOF 10
ENDMDL
MODEL 2
REMARK VINA RESULT:      -7.1      0.706      1.057
REMARK  Name = 
REMARK  15 active torsions:
REMARK  status: ('A' for Active; 'I' for Inactive)
REMARK    1  A    between atoms: C_2  and  C_3
REMARK    2  A    between atoms: C_2  and  C_4
REMARK    3  A    between atoms: C_7  and  C_8
REMARK    4  A    between atoms: C_10  and  C_11
REMARK    5  A    between atoms: C_12  and  O_13
REMARK    6  A    between atoms: C_15  and  C_16
REMARK    7  A    between atoms: C_16  and  C_17
REMARK    8  A    between atoms: C_17  and  C_18
REMARK    9  A    between atoms: C_18  and  C_19
REMARK   10  A    between atoms: C_19  and  C_20
REMARK   11  A    between atoms: C_22  and  O_23
REMARK   12  A    between atoms: O_23  and  C_24
REMARK   13  A    between atoms: N_26  and  C_27
REMARK   14  A    between atoms: N_26  and  C_28
REMARK   15  A    between atoms: C_28  and  C_29
REMARK                            x       y       z     vdW  Elec       q    Type
REMARK                         _______ _______ _______ _____ _____    ______ ____
ROOT
ATOM      1  C   UNL     1       3.961   5.293  17.495  0.00  0.00    +0.000 A 
ATOM      2  C   UNL     1       3.693   3.982  17.053  0.00  0.00    +0.000 A 
ATOM      3  C   UNL     1       2.545   3.284  17.425  0.00  0.00    +0.000 A 
ATOM      4  C   UNL     1       1.574   3.879  18.223  0.00  0.00    +0.000 A 
ATOM      5  C   UNL     1       1.769   5.197  18.632  0.00  0.00    +0.000 A 
ATOM      6  C   UNL     1       2.957   5.878  18.312  0.00  0.00    +0.000 A 
ENDROOT
BRANCH   1  13
ATOM      7  C   UNL     1       6.462   5.957  18.083  0.00  0.00    +0.000 C 
ATOM      8  C   UNL     1       7.224   4.651  17.780  0.00  0.00    +0.000 C 
ATOM      9  C   UNL     1       7.681   4.554  16.318  0.00  0.00    +0.000 C 
ATOM     10  C   UNL     1       6.732   5.159  15.307  0.00  0.00    +0.000 C 
ATOM     11  C   UNL     1       7.067   4.954  13.860  0.00  0.00    +0.000 C 
ATOM     12  C   UNL     1       5.620   5.828  15.668  0.00  0.00    +0.000 C 
ATOM     13  C   UNL     1       5.222   6.089  17.110  0.00  0.00    +0.000 C 
BRANCH   7  15
ATOM     14  C   UNL     1       7.439   8.176  17.200  0.00  0.00    +0.000 C 
ATOM     15  C   UNL     1       7.463   7.148  18.069  0.00  0.00    +0.000 C 
ATOM     16  C   UNL     1       8.549   7.129  19.121  0.00  0.00    +0.000 C 
ENDBRANCH   7  15
ENDBRANCH   1  13
BRANCH   2  17
ATOM     17  O   UNL     1       4.483   3.268  16.197  0.00  0.00    +0.000 OA
ATOM     18  H   UNL     1       5.303   3.769  16.072  0.00  0.00    +0.000 HD
ENDBRANCH   2  17
BRANCH   4  19
ATOM     19  C   UNL     1       0.357   3.098  18.646  0.00  0.00    +0.000 C 
BRANCH  19  20
ATOM     20  C   UNL     1       0.566   2.337  19.962  0.00  0.00    +0.000 C 
BRANCH  20  21
ATOM     21  C   UNL     1       1.239   3.191  21.043  0.00  0.00    +0.000 C 
BRANCH  21  22
ATOM     22  C   UNL     1       2.436   2.462  21.651  0.00  0.00    +0.000 C 
ATOM     23  C   UNL     1       3.667   2.585  20.767  0.00  0.00    +0.000 C 
ENDBRANCH  21  22
ENDBRANCH  20  21
ENDBRANCH  19  20
ENDBRANCH   4  19
BRANCH   6  24
ATOM     24  O   UNL     1       3.119   7.235  18.730  0.00  0.00    +0.000 OA
BRANCH  24  25
ATOM     25  C   UNL     1       2.301   8.297  18.302  0.00  0.00    +0.000 C 
ATOM     26  O   UNL     1       2.254   8.709  17.147  0.00  0.00    +0.000 OA
ATOM     27  N   UNL     1       1.534   8.842  19.329  0.00  0.00    +0.000 N 
ATOM     28  C   UNL     1       1.500   8.271  20.663  0.00  0.00    +0.000 C 
BRANCH  27  29
ATOM     29  C   UNL     1       0.522   9.845  18.997  0.00  0.00    +0.000 C 
ATOM     30  C   UNL     1       1.045  11.266  19.148  0.00  0.00    +0.000 C 
ENDBRANCH  27  29
ENDBRANCH  24  25
ENDBRANCH   6  24
TORSDOF 10
ENDMDL
MODEL 3
REMARK VINA RESULT:      -6.2      1.912      6.655
REMARK  Name = 
REMARK  15 active torsions:
REMARK  status: ('A' for Active; 'I' for Inactive)
REMARK    1  A    between atoms: C_2  and  C_3
REMARK    2  A    between atoms: C_2  and  C_4
REMARK    3  A    between atoms: C_7  and  C_8
REMARK    4  A    between atoms: C_10  and  C_11
REMARK    5  A    between atoms: C_12  and  O_13
REMARK    6  A    between atoms: C_15  and  C_16
REMARK    7  A    between atoms: C_16  and  C_17
REMARK    8  A    between atoms: C_17  and  C_18
REMARK    9  A    between atoms: C_18  and  C_19
REMARK   10  A    between atoms: C_19  and  C_20
REMARK   11  A    between atoms: C_22  and  O_23
REMARK   12  A    between atoms: O_23  and  C_24
REMARK   13  A    between atoms: N_26  and  C_27
REMARK   14  A    between atoms: N_26  and  C_28
REMARK   15  A    between atoms: C_28  and  C_29
REMARK                            x       y       z     vdW  Elec       q    Type
REMARK                         _______ _______ _______ _____ _____    ______ ____
ROOT
ATOM      1  C   UNL     1       2.514   6.293  19.388  0.00  0.00    +0.000 A 
ATOM      2  C   UNL     1       1.672   7.144  20.132  0.00  0.00    +0.000 A 
ATOM      3  C   UNL     1       1.436   8.470  19.770  0.00  0.00    +0.000 A 
ATOM      4  C   UNL     1       1.992   9.005  18.613  0.00  0.00    +0.000 A 
ATOM      5  C   UNL     1       2.782   8.179  17.814  0.00  0.00    +0.000 A 
ATOM      6  C   UNL     1       3.073   6.862  18.214  0.00  0.00    +0.000 A 
ENDROOT
BRANCH   1  13
ATOM      7  C   UNL     1       1.697   4.091  20.623  0.00  0.00    +0.000 C 
ATOM      8  C   UNL     1       0.559   3.605  19.702  0.00  0.00    +0.000 C 
ATOM      9  C   UNL     1       1.056   2.689  18.574  0.00  0.00    +0.000 C 
ATOM     10  C   UNL     1       2.420   3.037  18.019  0.00  0.00    +0.000 C 
ATOM     11  C   UNL     1       2.876   2.262  16.819  0.00  0.00    +0.000 C 
ATOM     12  C   UNL     1       3.188   4.010  18.542  0.00  0.00    +0.000 C 
ATOM     13  C   UNL     1       2.801   4.828  19.763  0.00  0.00    +0.000 C 
BRANCH   7  15
ATOM     14  C   UNL     1       3.438   2.378  21.457  0.00  0.00    +0.000 C 
ATOM     15  C   UNL     1       2.197   2.900  21.490  0.00  0.00    +0.000 C 
ATOM     16  C   UNL     1       1.190   2.284  22.436  0.00  0.00    +0.000 C 
ENDBRANCH   7  15
ENDBRANCH   1  13
BRANCH   2  17
ATOM     17  O   UNL     1       0.971   6.775  21.245  0.00  0.00    +0.000 OA
ATOM     18  H   UNL     1       1.142   7.440  21.929  0.00  0.00    +0.000 HD
ENDBRANCH   2  17
BRANCH   4  19
ATOM     19  C   UNL     1       1.758  10.449  18.257  0.00  0.00    +0.000 C 
BRANCH  19  20
ATOM     20  C   UNL     1       0.716  11.124  19.160  0.00  0.00    +0.000 C 
BRANCH  20  21
ATOM     21  C   UNL     1      -0.603  11.411  18.433  0.00  0.00    +0.000 C 
BRANCH  21  22
ATOM     22  C   UNL     1      -1.091  10.178  17.675  0.00  0.00    +0.000 C 
ATOM     23  C   UNL     1      -2.592   9.994  17.821  0.00  0.00    +0.000 C 
ENDBRANCH  21  22
ENDBRANCH  20  21
ENDBRANCH  19  20
ENDBRANCH   4  19
BRANCH   6  24
ATOM     24  O   UNL     1       3.869   6.035  17.363  0.00  0.00    +0.000 OA
BRANCH  24  25
ATOM     25  C   UNL     1       5.035   6.467  16.704  0.00  0.00    +0.000 C 
ATOM     26  O   UNL     1       5.045   6.989  15.593  0.00  0.00    +0.000 OA
ATOM     27  N   UNL     1       6.194   6.247  17.445  0.00  0.00    +0.000 N 
ATOM     28  C   UNL     1       6.164   5.746  18.806  0.00  0.00    +0.000 C 
BRANCH  27  29
ATOM     29  C   UNL     1       7.459   6.791  16.951  0.00  0.00    +0.000 C 
ATOM     30  C   UNL     1       7.839   8.090  17.646  0.00  0.00    +0.000 C 
ENDBRANCH  27  29
ENDBRANCH  24  25
ENDBRANCH   6  24
TORSDOF 10
ENDMDL
MODEL 4
REMARK VINA RESULT:      -6.1      1.918      6.165
REMARK  Name = 
REMARK  15 active torsions:
REMARK  status: ('A' for Active; 'I' for Inactive)
REMARK    1  A    between atoms: C_2  and  C_3
REMARK    2  A    between atoms: C_2  and  C_4
REMARK    3  A    between atoms: C_7  and  C_8
REMARK    4  A    between atoms: C_10  and  C_11
REMARK    5  A    between atoms: C_12  and  O_13
REMARK    6  A    between atoms: C_15  and  C_16
REMARK    7  A    between atoms: C_16  and  C_17
REMARK    8  A    between atoms: C_17  and  C_18
REMARK    9  A    between atoms: C_18  and  C_19
REMARK   10  A    between atoms: C_19  and  C_20
REMARK   11  A    between atoms: C_22  and  O_23
REMARK   12  A    between atoms: O_23  and  C_24
REMARK   13  A    between atoms: N_26  and  C_27
REMARK   14  A    between atoms: N_26  and  C_28
REMARK   15  A    between atoms: C_28  and  C_29
REMARK                            x       y       z     vdW  Elec       q    Type
REMARK                         _______ _______ _______ _____ _____    ______ ____
ROOT
ATOM      1  C   UNL     1       4.755   5.365  18.818  0.00  0.00    +0.000 A 
ATOM      2  C   UNL     1       6.148   5.206  18.955  0.00  0.00    +0.000 A 
ATOM      3  C   UNL     1       7.064   6.090  18.386  0.00  0.00    +0.000 A 
ATOM      4  C   UNL     1       6.635   7.212  17.686  0.00  0.00    +0.000 A 
ATOM      5  C   UNL     1       5.264   7.441  17.579  0.00  0.00    +0.000 A 
ATOM      6  C   UNL     1       4.340   6.516  18.096  0.00  0.00    +0.000 A 
ENDROOT
BRANCH   1  13
ATOM      7  C   UNL     1       2.636   3.815  18.434  0.00  0.00    +0.000 C 
ATOM      8  C   UNL     1       3.238   2.629  17.654  0.00  0.00    +0.000 C 
ATOM      9  C   UNL     1       3.778   1.524  18.573  0.00  0.00    +0.000 C 
ATOM     10  C   UNL     1       4.399   2.009  19.864  0.00  0.00    +0.000 C 
ATOM     11  C   UNL     1       5.070   0.976  20.719  0.00  0.00    +0.000 C 
ATOM     12  C   UNL     1       4.387   3.305  20.231  0.00  0.00    +0.000 C 
ATOM     13  C   UNL     1       3.717   4.405  19.427  0.00  0.00    +0.000 C 
BRANCH   7  15
ATOM     14  C   UNL     1       0.476   2.412  18.606  0.00  0.00    +0.000 C 
ATOM     15  C   UNL     1       1.293   3.371  19.082  0.00  0.00    +0.000 C 
ATOM     16  C   UNL     1       0.882   4.093  20.347  0.00  0.00    +0.000 C 
ENDBRANCH   7  15
ENDBRANCH   1  13
BRANCH   2  17
ATOM     17  O   UNL     1       6.756   4.219  19.677  0.00  0.00    +0.000 OA
ATOM     18  H   UNL     1       7.504   3.895  19.153  0.00  0.00    +0.000 HD
ENDBRANCH   2  17
BRANCH   4  19
ATOM     19  C   UNL     1       7.637   8.136  17.046  0.00  0.00    +0.000 C 
BRANCH  19  20
ATOM     20  C   UNL     1       7.832   9.441  17.830  0.00  0.00    +0.000 C 
BRANCH  20  21
ATOM     21  C   UNL     1       8.928   9.336  18.896  0.00  0.00    +0.000 C 
BRANCH  21  22
ATOM     22  C   UNL     1       9.651  10.670  19.073  0.00  0.00    +0.000 C 
ATOM     23  C   UNL     1       9.518  11.189  20.495  0.00  0.00    +0.000 C 
ENDBRANCH  21  22
ENDBRANCH  20  21
ENDBRANCH  19  20
ENDBRANCH   4  19
BRANCH   6  24
ATOM     24  O   UNL     1       2.942   6.789  17.986  0.00  0.00    +0.000 OA
BRANCH  24  25
ATOM     25  C   UNL     1       2.381   8.079  18.037  0.00  0.00    +0.000 C 
ATOM     26  O   UNL     1       2.328   8.845  17.080  0.00  0.00    +0.000 OA
ATOM     27  N   UNL     1       1.882   8.407  19.296  0.00  0.00    +0.000 N 
ATOM     28  C   UNL     1       1.835   7.453  20.388  0.00  0.00    +0.000 C 
BRANCH  27  29
ATOM     29  C   UNL     1       1.129   9.652  19.452  0.00  0.00    +0.000 C 
ATOM     30  C   UNL     1       0.176   9.605  20.637  0.00  0.00    +0.000 C 
ENDBRANCH  27  29
ENDBRANCH  24  25
ENDBRANCH   6  24
TORSDOF 10
ENDMDL
MODEL 5
REMARK VINA RESULT:      -6.1      2.551      6.551
REMARK  Name = 
REMARK  15 active torsions:
REMARK  status: ('A' for Active; 'I' for Inactive)
REMARK    1  A    between atoms: C_2  and  C_3
REMARK    2  A    between atoms: C_2  and  C_4
REMARK    3  A    between atoms: C_7  and  C_8
REMARK    4  A    between atoms: C_10  and  C_11
REMARK    5  A    between atoms: C_12  and  O_13
REMARK    6  A    between atoms: C_15  and  C_16
REMARK    7  A    between atoms: C_16  and  C_17
REMARK    8  A    between atoms: C_17  and  C_18
REMARK    9  A    between atoms: C_18  and  C_19
REMARK   10  A    between atoms: C_19  and  C_20
REMARK   11  A    between atoms: C_22  and  O_23
REMARK   12  A    between atoms: O_23  and  C_24
REMARK   13  A    between atoms: N_26  and  C_27
REMARK   14  A    between atoms: N_26  and  C_28
REMARK   15  A    between atoms: C_28  and  C_29
REMARK                            x       y       z     vdW  Elec       q    Type
REMARK                         _______ _______ _______ _____ _____    ______ ____
ROOT
ATOM      1  C   UNL     1       4.860   5.410  17.014  0.00  0.00    +0.000 A 
ATOM      2  C   UNL     1       4.570   4.192  16.367  0.00  0.00    +0.000 A 
ATOM      3  C   UNL     1       5.240   3.774  15.218  0.00  0.00    +0.000 A 
ATOM      4  C   UNL     1       6.274   4.531  14.678  0.00  0.00    +0.000 A 
ATOM      5  C   UNL     1       6.636   5.713  15.322  0.00  0.00    +0.000 A 
ATOM      6  C   UNL     1       5.917   6.168  16.442  0.00  0.00    +0.000 A 
ENDROOT
BRANCH   1  13
ATOM      7  C   UNL     1       2.684   6.497  18.072  0.00  0.00    +0.000 C 
ATOM      8  C   UNL     1       1.662   5.346  17.968  0.00  0.00    +0.000 C 
ATOM      9  C   UNL     1       1.690   4.414  19.188  0.00  0.00    +0.000 C 
ATOM     10  C   UNL     1       3.056   4.197  19.799  0.00  0.00    +0.000 C 
ATOM     11  C   UNL     1       3.150   3.179  20.896  0.00  0.00    +0.000 C 
ATOM     12  C   UNL     1       4.152   4.852  19.373  0.00  0.00    +0.000 C 
ATOM     13  C   UNL     1       4.135   5.906  18.279  0.00  0.00    +0.000 C 
BRANCH   7  15
ATOM     14  C   UNL     1       2.101   7.252  20.470  0.00  0.00    +0.000 C 
ATOM     15  C   UNL     1       2.205   7.509  19.153  0.00  0.00    +0.000 C 
ATOM     16  C   UNL     1       1.821   8.888  18.663  0.00  0.00    +0.000 C 
ENDBRANCH   7  15
ENDBRANCH   1  13
BRANCH   2  17
ATOM     17  O   UNL     1       3.651   3.277  16.797  0.00  0.00    +0.000 OA
ATOM     18  H   UNL     1       4.014   2.850  17.587  0.00  0.00    +0.000 HD
ENDBRANCH   2  17
BRANCH   4  19
ATOM     19  C   UNL     1       6.962   4.083  13.416  0.00  0.00    +0.000 C 
BRANCH  19  20
ATOM     20  C   UNL     1       6.160   3.028  12.642  0.00  0.00    +0.000 C 
BRANCH  20  21
ATOM     21  C   UNL     1       5.471   3.599  11.397  0.00  0.00    +0.000 C 
BRANCH  21  22
ATOM     22  C   UNL     1       3.994   3.209  11.360  0.00  0.00    +0.000 C 
ATOM     23  C   UNL     1       3.319   3.712  10.094  0.00  0.00    +0.000 C 
ENDBRANCH  21  22
ENDBRANCH  20  21
ENDBRANCH  19  20
ENDBRANCH   4  19
BRANCH   6  24
ATOM     24  O   UNL     1       6.325   7.374  17.091  0.00  0.00    +0.000 OA
BRANCH  24  25
ATOM     25  C   UNL     1       7.452   7.480  17.927  0.00  0.00    +0.000 C 
ATOM     26  O   UNL     1       7.991   6.527  18.482  0.00  0.00    +0.000 OA
ATOM     27  N   UNL     1       7.907   8.789  18.064  0.00  0.00    +0.000 N 
ATOM     28  C   UNL     1       7.344   9.892  17.308  0.00  0.00    +0.000 C 
BRANCH  27  29
ATOM     29  C   UNL     1       9.164   9.027  18.774  0.00  0.00    +0.000 C 
ATOM     30  C   UNL     1       9.199  10.391  19.447  0.00  0.00    +0.000 C 
ENDBRANCH  27  29
ENDBRANCH  24  25
ENDBRANCH   6  24
TORSDOF 10
ENDMDL
MODEL 6
REMARK VINA RESULT:      -6.0      1.727      6.109
REMARK  Name = 
REMARK  15 active torsions:
REMARK  status: ('A' for Active; 'I' for Inactive)
REMARK    1  A    between atoms: C_2  and  C_3
REMARK    2  A    between atoms: C_2  and  C_4
REMARK    3  A    between atoms: C_7  and  C_8
REMARK    4  A    between atoms: C_10  and  C_11
REMARK    5  A    between atoms: C_12  and  O_13
REMARK    6  A    between atoms: C_15  and  C_16
REMARK    7  A    between atoms: C_16  and  C_17
REMARK    8  A    between atoms: C_17  and  C_18
REMARK    9  A    between atoms: C_18  and  C_19
REMARK   10  A    between atoms: C_19  and  C_20
REMARK   11  A    between atoms: C_22  and  O_23
REMARK   12  A    between atoms: O_23  and  C_24
REMARK   13  A    between atoms: N_26  and  C_27
REMARK   14  A    between atoms: N_26  and  C_28
REMARK   15  A    between atoms: C_28  and  C_29
REMARK                            x       y       z     vdW  Elec       q    Type
REMARK                         _______ _______ _______ _____ _____    ______ ____
ROOT
ATOM      1  C   UNL     1       4.511   5.244  18.764  0.00  0.00    +0.000 A 
ATOM      2  C   UNL     1       5.905   5.050  18.699  0.00  0.00    +0.000 A 
ATOM      3  C   UNL     1       6.769   5.996  18.150  0.00  0.00    +0.000 A 
ATOM      4  C   UNL     1       6.290   7.213  17.678  0.00  0.00    +0.000 A 
ATOM      5  C   UNL     1       4.924   7.472  17.779  0.00  0.00    +0.000 A 
ATOM      6  C   UNL     1       4.044   6.492  18.272  0.00  0.00    +0.000 A 
ENDROOT
BRANCH   1  13
ATOM      7  C   UNL     1       2.496   3.568  18.349  0.00  0.00    +0.000 C 
ATOM      8  C   UNL     1       3.179   2.425  17.569  0.00  0.00    +0.000 C 
ATOM      9  C   UNL     1       3.776   1.351  18.489  0.00  0.00    +0.000 C 
ATOM     10  C   UNL     1       4.353   1.866  19.789  0.00  0.00    +0.000 C 
ATOM     11  C   UNL     1       5.077   0.872  20.647  0.00  0.00    +0.000 C 
ATOM     12  C   UNL     1       4.257   3.156  20.163  0.00  0.00    +0.000 C 
ATOM     13  C   UNL     1       3.528   4.218  19.356  0.00  0.00    +0.000 C 
BRANCH   7  15
ATOM     14  C   UNL     1       0.455   1.998  18.521  0.00  0.00    +0.000 C 
ATOM     15  C   UNL     1       1.176   3.038  18.980  0.00  0.00    +0.000 C 
ATOM     16  C   UNL     1       0.673   3.768  20.206  0.00  0.00    +0.000 C 
ENDBRANCH   7  15
ENDBRANCH   1  13
BRANCH   2  17
ATOM     17  O   UNL     1       6.568   3.961  19.189  0.00  0.00    +0.000 OA
ATOM     18  H   UNL     1       7.337   4.287  19.681  0.00  0.00    +0.000 HD
ENDBRANCH   2  17
BRANCH   4  19
ATOM     19  C   UNL     1       7.233   8.209  17.053  0.00  0.00    +0.000 C 
BRANCH  19  20
ATOM     20  C   UNL     1       8.440   8.527  17.945  0.00  0.00    +0.000 C 
BRANCH  20  21
ATOM     21  C   UNL     1       8.685  10.033  18.099  0.00  0.00    +0.000 C 
BRANCH  21  22
ATOM     22  C   UNL     1       9.328  10.349  19.449  0.00  0.00    +0.000 C 
ATOM     23  C   UNL     1      10.238  11.563  19.359  0.00  0.00    +0.000 C 
ENDBRANCH  21  22
ENDBRANCH  20  21
ENDBRANCH  19  20
ENDBRANCH   4  19
BRANCH   6  24
ATOM     24  O   UNL     1       2.652   6.795  18.382  0.00  0.00    +0.000 OA
BRANCH  24  25
ATOM     25  C   UNL     1       2.076   7.486  19.464  0.00  0.00    +0.000 C 
ATOM     26  O   UNL     1       2.061   7.070  20.618  0.00  0.00    +0.000 OA
ATOM     27  N   UNL     1       1.518   8.708  19.095  0.00  0.00    +0.000 N 
ATOM     28  C   UNL     1       1.649   9.251  17.756  0.00  0.00    +0.000 C 
BRANCH  27  29
ATOM     29  C   UNL     1       1.027   9.603  20.143  0.00  0.00    +0.000 C 
ATOM     30  C   UNL     1      -0.117  10.483  19.662  0.00  0.00    +0.000 C 
ENDBRANCH  27  29
ENDBRANCH  24  25
ENDBRANCH   6  24
TORSDOF 10
ENDMDL
MODEL 7
REMARK VINA RESULT:      -6.0      2.389      6.258
REMARK  Name = 
REMARK  15 active torsions:
REMARK  status: ('A' for Active; 'I' for Inactive)
REMARK    1  A    between atoms: C_2  and  C_3
REMARK    2  A    between atoms: C_2  and  C_4
REMARK    3  A    between atoms: C_7  and  C_8
REMARK    4  A    between atoms: C_10  and  C_11
REMARK    5  A    between atoms: C_12  and  O_13
REMARK    6  A    between atoms: C_15  and  C_16
REMARK    7  A    between atoms: C_16  and  C_17
REMARK    8  A    between atoms: C_17  and  C_18
REMARK    9  A    between atoms: C_18  and  C_19
REMARK   10  A    between atoms: C_19  and  C_20
REMARK   11  A    between atoms: C_22  and  O_23
REMARK   12  A    between atoms: O_23  and  C_24
REMARK   13  A    between atoms: N_26  and  C_27
REMARK   14  A    between atoms: N_26  and  C_28
REMARK   15  A    between atoms: C_28  and  C_29
REMARK                            x       y       z     vdW  Elec       q    Type
REMARK                         _______ _______ _______ _____ _____    ______ ____
ROOT
ATOM      1  C   UNL     1       2.424   7.275  19.046  0.00  0.00    +0.000 A 
ATOM      2  C   UNL     1       2.985   7.814  17.871  0.00  0.00    +0.000 A 
ATOM      3  C   UNL     1       2.744   9.122  17.455  0.00  0.00    +0.000 A 
ATOM      4  C   UNL     1       1.963   9.982  18.219  0.00  0.00    +0.000 A 
ATOM      5  C   UNL     1       1.438   9.509  19.421  0.00  0.00    +0.000 A 
ATOM      6  C   UNL     1       1.627   8.171  19.807  0.00  0.00    +0.000 A 
ENDROOT
BRANCH   1  13
ATOM      7  C   UNL     1       1.683   4.729  18.966  0.00  0.00    +0.000 C 
ATOM      8  C   UNL     1       2.135   4.303  17.554  0.00  0.00    +0.000 C 
ATOM      9  C   UNL     1       3.584   3.797  17.520  0.00  0.00    +0.000 C 
ATOM     10  C   UNL     1       4.531   4.498  18.468  0.00  0.00    +0.000 C 
ATOM     11  C   UNL     1       5.983   4.138  18.360  0.00  0.00    +0.000 C 
ATOM     12  C   UNL     1       4.117   5.426  19.352  0.00  0.00    +0.000 C 
ATOM     13  C   UNL     1       2.664   5.833  19.530  0.00  0.00    +0.000 C 
BRANCH   7  15
ATOM     14  C   UNL     1       1.859   3.361  21.147  0.00  0.00    +0.000 C 
ATOM     15  C   UNL     1       1.511   3.461  19.851  0.00  0.00    +0.000 C 
ATOM     16  C   UNL     1       0.906   2.247  19.181  0.00  0.00    +0.000 C 
ENDBRANCH   7  15
ENDBRANCH   1  13
BRANCH   2  17
ATOM     17  O   UNL     1       3.845   7.153  17.039  0.00  0.00    +0.000 OA
ATOM     18  H   UNL     1       3.398   6.346  16.742  0.00  0.00    +0.000 HD
ENDBRANCH   2  17
BRANCH   4  19
ATOM     19  C   UNL     1       1.681  11.381  17.737  0.00  0.00    +0.000 C 
BRANCH  19  20
ATOM     20  C   UNL     1       1.271  12.332  18.870  0.00  0.00    +0.000 C 
BRANCH  20  21
ATOM     21  C   UNL     1      -0.018  13.102  18.562  0.00  0.00    +0.000 C 
BRANCH  21  22
ATOM     22  C   UNL     1      -1.159  12.146  18.219  0.00  0.00    +0.000 C 
ATOM     23  C   UNL     1      -2.102  11.962  19.396  0.00  0.00    +0.000 C 
ENDBRANCH  21  22
ENDBRANCH  20  21
ENDBRANCH  19  20
ENDBRANCH   4  19
BRANCH   6  24
ATOM     24  O   UNL     1       1.093   7.722  21.054  0.00  0.00    +0.000 OA
BRANCH  24  25
ATOM     25  C   UNL     1       0.002   8.322  21.710  0.00  0.00    +0.000 C 
ATOM     26  O   UNL     1      -1.172   8.032  21.499  0.00  0.00    +0.000 OA
ATOM     27  N   UNL     1       0.387   9.287  22.637  0.00  0.00    +0.000 N 
ATOM     28  C   UNL     1       1.777   9.536  22.971  0.00  0.00    +0.000 C 
BRANCH  27  29
ATOM     29  C   UNL     1      -0.634   9.877  23.504  0.00  0.00    +0.000 C 
ATOM     30  C   UNL     1      -1.136  11.213  22.978  0.00  0.00    +0.000 C 
ENDBRANCH  27  29
ENDBRANCH  24  25
ENDBRANCH   6  24
TORSDOF 10
ENDMDL
MODEL 8
REMARK VINA RESULT:      -5.9      2.358      6.213
REMARK  Name = 
REMARK  15 active torsions:
REMARK  status: ('A' for Active; 'I' for Inactive)
REMARK    1  A    between atoms: C_2  and  C_3
REMARK    2  A    between atoms: C_2  and  C_4
REMARK    3  A    between atoms: C_7  and  C_8
REMARK    4  A    between atoms: C_10  and  C_11
REMARK    5  A    between atoms: C_12  and  O_13
REMARK    6  A    between atoms: C_15  and  C_16
REMARK    7  A    between atoms: C_16  and  C_17
REMARK    8  A    between atoms: C_17  and  C_18
REMARK    9  A    between atoms: C_18  and  C_19
REMARK   10  A    between atoms: C_19  and  C_20
REMARK   11  A    between atoms: C_22  and  O_23
REMARK   12  A    between atoms: O_23  and  C_24
REMARK   13  A    between atoms: N_26  and  C_27
REMARK   14  A    between atoms: N_26  and  C_28
REMARK   15  A    between atoms: C_28  and  C_29
REMARK                            x       y       z     vdW  Elec       q    Type
REMARK                         _______ _______ _______ _____ _____    ______ ____
ROOT
ATOM      1  C   UNL     1       2.389   7.486  19.126  0.00  0.00    +0.000 A 
ATOM      2  C   UNL     1       2.734   7.973  17.849  0.00  0.00    +0.000 A 
ATOM      3  C   UNL     1       2.451   9.276  17.440  0.00  0.00    +0.000 A 
ATOM      4  C   UNL     1       1.848  10.181  18.307  0.00  0.00    +0.000 A 
ATOM      5  C   UNL     1       1.545   9.760  19.600  0.00  0.00    +0.000 A 
ATOM      6  C   UNL     1       1.770   8.428  19.991  0.00  0.00    +0.000 A 
ENDROOT
BRANCH   1  13
ATOM      7  C   UNL     1       1.651   4.938  19.160  0.00  0.00    +0.000 C 
ATOM      8  C   UNL     1       1.961   4.491  17.716  0.00  0.00    +0.000 C 
ATOM      9  C   UNL     1       3.400   3.986  17.546  0.00  0.00    +0.000 C 
ATOM     10  C   UNL     1       4.435   4.703  18.384  0.00  0.00    +0.000 C 
ATOM     11  C   UNL     1       5.871   4.342  18.137  0.00  0.00    +0.000 C 
ATOM     12  C   UNL     1       4.109   5.644  19.290  0.00  0.00    +0.000 C 
ATOM     13  C   UNL     1       2.680   6.053  19.606  0.00  0.00    +0.000 C 
BRANCH   7  15
ATOM     14  C   UNL     1       1.064   2.489  19.722  0.00  0.00    +0.000 C 
ATOM     15  C   UNL     1       1.571   3.684  20.077  0.00  0.00    +0.000 C 
ATOM     16  C   UNL     1       2.104   3.842  21.484  0.00  0.00    +0.000 C 
ENDBRANCH   7  15
ENDBRANCH   1  13
BRANCH   2  17
ATOM     17  O   UNL     1       3.407   7.263  16.895  0.00  0.00    +0.000 OA
ATOM     18  H   UNL     1       3.958   7.888  16.402  0.00  0.00    +0.000 HD
ENDBRANCH   2  17
BRANCH   4  19
ATOM     19  C   UNL     1       1.515  11.573  17.837  0.00  0.00    +0.000 C 
BRANCH  19  20
ATOM     20  C   UNL     1       0.602  12.329  18.812  0.00  0.00    +0.000 C 
BRANCH  20  21
ATOM     21  C   UNL     1      -0.807  12.557  18.252  0.00  0.00    +0.000 C 
BRANCH  21  22
ATOM     22  C   UNL     1      -1.588  11.246  18.184  0.00  0.00    +0.000 C 
ATOM     23  C   UNL     1      -2.460  11.184  16.940  0.00  0.00    +0.000 C 
ENDBRANCH  21  22
ENDBRANCH  20  21
ENDBRANCH  19  20
ENDBRANCH   4  19
BRANCH   6  24
ATOM     24  O   UNL     1       1.468   8.032  21.330  0.00  0.00    +0.000 OA
BRANCH  24  25
ATOM     25  C   UNL     1       1.148   8.928  22.367  0.00  0.00    +0.000 C 
ATOM     26  O   UNL     1       1.979   9.465  23.093  0.00  0.00    +0.000 OA
ATOM     27  N   UNL     1      -0.221   9.153  22.491  0.00  0.00    +0.000 N 
ATOM     28  C   UNL     1      -1.186   8.613  21.552  0.00  0.00    +0.000 C 
BRANCH  27  29
ATOM     29  C   UNL     1      -0.684  10.183  23.421  0.00  0.00    +0.000 C 
ATOM     30  C   UNL     1      -1.364  11.341  22.708  0.00  0.00    +0.000 C 
ENDBRANCH  27  29
ENDBRANCH  24  25
ENDBRANCH   6  24
TORSDOF 10
ENDMDL
MODEL 9
REMARK VINA RESULT:      -5.9      2.101      6.933
REMARK  Name = 
REMARK  15 active torsions:
REMARK  status: ('A' for Active; 'I' for Inactive)
REMARK    1  A    between atoms: C_2  and  C_3
REMARK    2  A    between atoms: C_2  and  C_4
REMARK    3  A    between atoms: C_7  and  C_8
REMARK    4  A    between atoms: C_10  and  C_11
REMARK    5  A    between atoms: C_12  and  O_13
REMARK    6  A    between atoms: C_15  and  C_16
REMARK    7  A    between atoms: C_16  and  C_17
REMARK    8  A    between atoms: C_17  and  C_18
REMARK    9  A    between atoms: C_18  and  C_19
REMARK   10  A    between atoms: C_19  and  C_20
REMARK   11  A    between atoms: C_22  and  O_23
REMARK   12  A    between atoms: O_23  and  C_24
REMARK   13  A    between atoms: N_26  and  C_27
REMARK   14  A    between atoms: N_26  and  C_28
REMARK   15  A    between atoms: C_28  and  C_29
REMARK                            x       y       z     vdW  Elec       q    Type
REMARK                         _______ _______ _______ _____ _____    ______ ____
ROOT
ATOM      1  C   UNL     1       2.509   6.309  19.356  0.00  0.00    +0.000 A 
ATOM      2  C   UNL     1       1.673   7.198  20.062  0.00  0.00    +0.000 A 
ATOM      3  C   UNL     1       1.480   8.520  19.668  0.00  0.00    +0.000 A 
ATOM      4  C   UNL     1       2.076   9.016  18.513  0.00  0.00    +0.000 A 
ATOM      5  C   UNL     1       2.862   8.154  17.751  0.00  0.00    +0.000 A 
ATOM      6  C   UNL     1       3.110   6.839  18.184  0.00  0.00    +0.000 A 
ENDROOT
BRANCH   1  13
ATOM      7  C   UNL     1       1.600   4.150  20.603  0.00  0.00    +0.000 C 
ATOM      8  C   UNL     1       0.483   3.672  19.652  0.00  0.00    +0.000 C 
ATOM      9  C   UNL     1       0.997   2.724  18.560  0.00  0.00    +0.000 C 
ATOM     10  C   UNL     1       2.386   3.030  18.045  0.00  0.00    +0.000 C 
ATOM     11  C   UNL     1       2.866   2.222  16.876  0.00  0.00    +0.000 C 
ATOM     12  C   UNL     1       3.159   3.996  18.577  0.00  0.00    +0.000 C 
ATOM     13  C   UNL     1       2.750   4.845  19.768  0.00  0.00    +0.000 C 
BRANCH   7  15
ATOM     14  C   UNL     1       1.260   2.332  22.402  0.00  0.00    +0.000 C 
ATOM     15  C   UNL     1       2.043   2.965  21.508  0.00  0.00    +0.000 C 
ATOM     16  C   UNL     1       3.476   2.504  21.364  0.00  0.00    +0.000 C 
ENDBRANCH   7  15
ENDBRANCH   1  13
BRANCH   2  17
ATOM     17  O   UNL     1       0.937   6.870  21.166  0.00  0.00    +0.000 OA
ATOM     18  H   UNL     1       0.474   7.671  21.453  0.00  0.00    +0.000 HD
ENDBRANCH   2  17
BRANCH   4  19
ATOM     19  C   UNL     1       1.888  10.458  18.122  0.00  0.00    +0.000 C 
BRANCH  19  20
ATOM     20  C   UNL     1       1.134  11.271  19.184  0.00  0.00    +0.000 C 
BRANCH  20  21
ATOM     21  C   UNL     1       1.763  12.646  19.436  0.00  0.00    +0.000 C 
BRANCH  21  22
ATOM     22  C   UNL     1       2.641  13.072  18.261  0.00  0.00    +0.000 C 
ATOM     23  C   UNL     1       2.793  14.583  18.200  0.00  0.00    +0.000 C 
ENDBRANCH  21  22
ENDBRANCH  20  21
ENDBRANCH  19  20
ENDBRANCH   4  19
BRANCH   6  24
ATOM     24  O   UNL     1       3.904   5.973  17.369  0.00  0.00    +0.000 OA
BRANCH  24  25
ATOM     25  C   UNL     1       5.097   6.361  16.731  0.00  0.00    +0.000 C 
ATOM     26  O   UNL     1       5.149   6.852  15.608  0.00  0.00    +0.000 OA
ATOM     27  N   UNL     1       6.229   6.134  17.509  0.00  0.00    +0.000 N 
ATOM     28  C   UNL     1       6.151   5.671  18.882  0.00  0.00    +0.000 C 
BRANCH  27  29
ATOM     29  C   UNL     1       7.520   6.636  17.037  0.00  0.00    +0.000 C 
ATOM     30  C   UNL     1       7.838   8.019  17.584  0.00  0.00    +0.000 C 
ENDBRANCH  27  29
ENDBRANCH  24  25
ENDBRANCH   6  24
TORSDOF 10
ENDMDL
