MODEL 1
REMARK VINA RESULT:      -8.5      0.000      0.000
REMARK  Name = 
REMARK  8 active torsions:
REMARK  status: ('A' for Active; 'I' for Inactive)
REMARK    1  A    between atoms: C_1  and  C_2
REMARK    2  A    between atoms: C_5  and  C_6
REMARK    3  A    between atoms: C_7  and  C_8
REMARK    4  A    between atoms: N_18  and  C_19
REMARK    5  A    between atoms: C_19  and  C_20
REMARK    6  A    between atoms: C_21  and  C_22
REMARK    7  A    between atoms: C_26  and  C_27
REMARK    8  A    between atoms: N_28  and  C_29
REMARK                            x       y       z     vdW  Elec       q    Type
REMARK                         _______ _______ _______ _____ _____    ______ ____
ROOT
ATOM      1  C   UNL     1       4.789   5.644  18.262  0.00  0.00    +0.000 A 
ATOM      2  C   UNL     1       4.255   4.995  19.385  0.00  0.00    +0.000 A 
ATOM      3  C   UNL     1       3.110   5.464  20.022  0.00  0.00    +0.000 A 
ATOM      4 CL   UNL     1       2.414   4.458  21.244  0.00  0.00    +0.000 Cl
ATOM      5  C   UNL     1       2.531   6.678  19.641  0.00  0.00    +0.000 A 
ATOM      6  C   UNL     1       3.066   7.374  18.531  0.00  0.00    +0.000 A 
ATOM      7  C   UNL     1       4.131   6.801  17.789  0.00  0.00    +0.000 A 
ATOM      8 CL   UNL     1       4.462   7.335  16.162  0.00  0.00    +0.000 Cl
ATOM      9  C   UNL     1       2.425   8.666  18.098  0.00  0.00    +0.000 C 
ATOM     10  O   UNL     1       2.909   9.364  17.220  0.00  0.00    +0.000 OA
ATOM     11  N   UNL     1       1.237   9.008  18.718  0.00  0.00    +0.000 N 
ATOM     12  C   UNL     1       1.044   8.639  20.108  0.00  0.00    +0.000 C 
ATOM     13  C   UNL     1       1.276   7.160  20.320  0.00  0.00    +0.000 C 
ENDROOT
BRANCH   1  20
ATOM     14  C   UNL     1       5.201   4.041  15.294  0.00  0.00    +0.000 C 
ATOM     15  C   UNL     1       6.163   4.383  16.376  0.00  0.00    +0.000 A 
ATOM     16  N   UNL     1       7.444   4.046  16.196  0.00  0.00    +0.000 NA
ATOM     17  O   UNL     1       8.126   4.516  17.291  0.00  0.00    +0.000 OA
ATOM     18  C   UNL     1       7.264   5.137  18.137  0.00  0.00    +0.000 A 
ATOM     19  C   UNL     1       7.905   5.701  19.346  0.00  0.00    +0.000 C 
ATOM     20  C   UNL     1       5.978   5.069  17.623  0.00  0.00    +0.000 A 
ENDBRANCH   1  20
BRANCH  11  21
ATOM     21  C   UNL     1       0.286   9.898  18.043  0.00  0.00    +0.000 C 
BRANCH  21  22
ATOM     22  C   UNL     1      -0.270  11.034  18.861  0.00  0.00    +0.000 A 
ATOM     23  C   UNL     1       0.456  12.061  19.374  0.00  0.00    +0.000 A 
ATOM     24  C   UNL     1      -0.252  13.186  19.970  0.00  0.00    +0.000 A 
ATOM     25  C   UNL     1      -1.587  13.248  20.056  0.00  0.00    +0.000 A 
ATOM     26  C   UNL     1      -2.264  14.441  20.663  0.00  0.00    +0.000 C 
ATOM     27  N   UNL     1      -2.348  12.210  19.535  0.00  0.00    +0.000 N 
ATOM     28  C   UNL     1      -3.802  12.212  19.540  0.00  0.00    +0.000 C 
ATOM     29  C   UNL     1      -1.767  11.117  18.898  0.00  0.00    +0.000 A 
ATOM     30  O   UNL     1      -2.461  10.266  18.342  0.00  0.00    +0.000 OA
BRANCH  23  31
ATOM     31  C   UNL     1       1.933  12.218  19.264  0.00  0.00    +0.000 C 
ATOM     32  C   UNL     1       2.608  12.872  18.073  0.00  0.00    +0.000 C 
ATOM     33  C   UNL     1       2.540  13.595  19.376  0.00  0.00    +0.000 C 
ENDBRANCH  23  31
ENDBRANCH  21  22
ENDBRANCH  11  21
TORSDOF 4
ENDMDL
MODEL 2
REMARK VINA RESULT:      -8.3      0.394      1.428
REMARK  Name = 
REMARK  8 active torsions:
REMARK  status: ('A' for Active; 'I' for Inactive)
REMARK    1  A    between atoms: C_1  and  C_2
REMARK    2  A    between atoms: C_5  and  C_6
REMARK    3  A    between atoms: C_7  and  C_8
REMARK    4  A    between atoms: N_18  and  C_19
REMARK    5  A    between atoms: C_19  and  C_20
REMARK    6  A    between atoms: C_21  and  C_22
REMARK    7  A    between atoms: C_26  and  C_27
REMARK    8  A    between atoms: N_28  and  C_29
REMARK                            x       y       z     vdW  Elec       q    Type
REMARK                         _______ _______ _______ _____ _____    ______ ____
ROOT
ATOM      1  C   UNL     1       4.652   5.730  18.313  0.00  0.00    +0.000 A 
ATOM      2  C   UNL     1       4.121   5.084  19.439  0.00  0.00    +0.000 A 
ATOM      3  C   UNL     1       2.981   5.558  20.082  0.00  0.00    +0.000 A 
ATOM      4 CL   UNL     1       2.288   4.556  21.309  0.00  0.00    +0.000 Cl
ATOM      5  C   UNL     1       2.406   6.775  19.703  0.00  0.00    +0.000 A 
ATOM      6  C   UNL     1       2.937   7.467  18.590  0.00  0.00    +0.000 A 
ATOM      7  C   UNL     1       3.996   6.890  17.842  0.00  0.00    +0.000 A 
ATOM      8 CL   UNL     1       4.320   7.421  16.214  0.00  0.00    +0.000 Cl
ATOM      9  C   UNL     1       2.299   8.762  18.160  0.00  0.00    +0.000 C 
ATOM     10  O   UNL     1       2.781   9.458  17.279  0.00  0.00    +0.000 OA
ATOM     11  N   UNL     1       1.116   9.110  18.787  0.00  0.00    +0.000 N 
ATOM     12  C   UNL     1       0.929   8.742  20.178  0.00  0.00    +0.000 C 
ATOM     13  C   UNL     1       1.157   7.262  20.390  0.00  0.00    +0.000 C 
ENDROOT
BRANCH   1  20
ATOM     14  C   UNL     1       7.933   5.729  19.197  0.00  0.00    +0.000 C 
ATOM     15  C   UNL     1       7.224   5.150  18.025  0.00  0.00    +0.000 A 
ATOM     16  N   UNL     1       7.952   4.471  17.132  0.00  0.00    +0.000 NA
ATOM     17  O   UNL     1       7.070   3.995  16.194  0.00  0.00    +0.000 OA
ATOM     18  C   UNL     1       5.808   4.383  16.512  0.00  0.00    +0.000 A 
ATOM     19  C   UNL     1       4.773   3.901  15.569  0.00  0.00    +0.000 C 
ATOM     20  C   UNL     1       5.834   5.149  17.667  0.00  0.00    +0.000 A 
ENDBRANCH   1  20
BRANCH  11  21
ATOM     21  C   UNL     1       0.165  10.003  18.116  0.00  0.00    +0.000 C 
BRANCH  21  22
ATOM     22  C   UNL     1      -0.381  11.142  18.937  0.00  0.00    +0.000 A 
ATOM     23  C   UNL     1       0.354  12.163  19.448  0.00  0.00    +0.000 A 
ATOM     24  C   UNL     1      -0.346  13.293  20.047  0.00  0.00    +0.000 A 
ATOM     25  C   UNL     1      -1.680  13.364  20.137  0.00  0.00    +0.000 A 
ATOM     26  C   UNL     1      -2.348  14.561  20.746  0.00  0.00    +0.000 C 
ATOM     27  N   UNL     1      -2.449  12.332  19.617  0.00  0.00    +0.000 N 
ATOM     28  C   UNL     1      -3.904  12.344  19.626  0.00  0.00    +0.000 C 
ATOM     29  C   UNL     1      -1.877  11.235  18.978  0.00  0.00    +0.000 A 
ATOM     30  O   UNL     1      -2.579  10.389  18.423  0.00  0.00    +0.000 OA
BRANCH  23  31
ATOM     31  C   UNL     1       1.831  12.311  19.335  0.00  0.00    +0.000 C 
ATOM     32  C   UNL     1       2.512  12.877  18.103  0.00  0.00    +0.000 C 
ATOM     33  C   UNL     1       2.440  13.692  19.351  0.00  0.00    +0.000 C 
ENDBRANCH  23  31
ENDBRANCH  21  22
ENDBRANCH  11  21
TORSDOF 4
ENDMDL
MODEL 3
REMARK VINA RESULT:      -7.8      1.210      2.456
REMARK  Name = 
REMARK  8 active torsions:
REMARK  status: ('A' for Active; 'I' for Inactive)
REMARK    1  A    between atoms: C_1  and  C_2
REMARK    2  A    between atoms: C_5  and  C_6
REMARK    3  A    between atoms: C_7  and  C_8
REMARK    4  A    between atoms: N_18  and  C_19
REMARK    5  A    between atoms: C_19  and  C_20
REMARK    6  A    between atoms: C_21  and  C_22
REMARK    7  A    between atoms: C_26  and  C_27
REMARK    8  A    between atoms: N_28  and  C_29
REMARK                            x       y       z     vdW  Elec       q    Type
REMARK                         _______ _______ _______ _____ _____    ______ ____
ROOT
ATOM      1  C   UNL     1       4.815   5.651  18.241  0.00  0.00    +0.000 A 
ATOM      2  C   UNL     1       4.238   5.022  19.354  0.00  0.00    +0.000 A 
ATOM      3  C   UNL     1       3.077   5.510  19.947  0.00  0.00    +0.000 A 
ATOM      4 CL   UNL     1       2.332   4.528  21.159  0.00  0.00    +0.000 Cl
ATOM      5  C   UNL     1       2.524   6.725  19.532  0.00  0.00    +0.000 A 
ATOM      6  C   UNL     1       3.102   7.401  18.431  0.00  0.00    +0.000 A 
ATOM      7  C   UNL     1       4.184   6.808  17.732  0.00  0.00    +0.000 A 
ATOM      8 CL   UNL     1       4.573   7.317  16.110  0.00  0.00    +0.000 Cl
ATOM      9  C   UNL     1       2.489   8.694  17.962  0.00  0.00    +0.000 C 
ATOM     10  O   UNL     1       3.008   9.376  17.091  0.00  0.00    +0.000 OA
ATOM     11  N   UNL     1       1.285   9.057  18.539  0.00  0.00    +0.000 N 
ATOM     12  C   UNL     1       1.043   8.708  19.926  0.00  0.00    +0.000 C 
ATOM     13  C   UNL     1       1.253   7.229  20.164  0.00  0.00    +0.000 C 
ENDROOT
BRANCH   1  20
ATOM     14  C   UNL     1       5.307   4.012  15.305  0.00  0.00    +0.000 C 
ATOM     15  C   UNL     1       6.236   4.354  16.415  0.00  0.00    +0.000 A 
ATOM     16  N   UNL     1       7.518   4.001  16.282  0.00  0.00    +0.000 NA
ATOM     17  O   UNL     1       8.168   4.474  17.394  0.00  0.00    +0.000 OA
ATOM     18  C   UNL     1       7.285   5.113  18.205  0.00  0.00    +0.000 A 
ATOM     19  C   UNL     1       7.893   5.683  19.428  0.00  0.00    +0.000 C 
ATOM     20  C   UNL     1       6.017   5.055  17.648  0.00  0.00    +0.000 A 
ENDBRANCH   1  20
BRANCH  11  21
ATOM     21  C   UNL     1       0.366   9.947  17.821  0.00  0.00    +0.000 C 
BRANCH  21  22
ATOM     22  C   UNL     1      -0.338  10.992  18.646  0.00  0.00    +0.000 A 
ATOM     23  C   UNL     1      -1.669  11.013  18.917  0.00  0.00    +0.000 A 
ATOM     24  C   UNL     1      -2.166  11.973  19.893  0.00  0.00    +0.000 A 
ATOM     25  C   UNL     1      -1.377  12.854  20.522  0.00  0.00    +0.000 A 
ATOM     26  C   UNL     1      -1.942  13.808  21.532  0.00  0.00    +0.000 C 
ATOM     27  N   UNL     1      -0.014  12.848  20.261  0.00  0.00    +0.000 N 
ATOM     28  C   UNL     1       0.926  13.733  20.930  0.00  0.00    +0.000 C 
ATOM     29  C   UNL     1       0.565  11.934  19.386  0.00  0.00    +0.000 A 
ATOM     30  O   UNL     1       1.788  11.869  19.256  0.00  0.00    +0.000 OA
BRANCH  23  31
ATOM     31  C   UNL     1      -2.673  10.038  18.406  0.00  0.00    +0.000 C 
ATOM     32  C   UNL     1      -3.984  10.461  17.771  0.00  0.00    +0.000 C 
ATOM     33  C   UNL     1      -2.889   9.911  16.918  0.00  0.00    +0.000 C 
ENDBRANCH  23  31
ENDBRANCH  21  22
ENDBRANCH  11  21
TORSDOF 4
ENDMDL
MODEL 4
REMARK VINA RESULT:      -7.8      3.397      9.427
REMARK  Name = 
REMARK  8 active torsions:
REMARK  status: ('A' for Active; 'I' for Inactive)
REMARK    1  A    between atoms: C_1  and  C_2
REMARK    2  A    between atoms: C_5  and  C_6
REMARK    3  A    between atoms: C_7  and  C_8
REMARK    4  A    between atoms: N_18  and  C_19
REMARK    5  A    between atoms: C_19  and  C_20
REMARK    6  A    between atoms: C_21  and  C_22
REMARK    7  A    between atoms: C_26  and  C_27
REMARK    8  A    between atoms: N_28  and  C_29
REMARK                            x       y       z     vdW  Elec       q    Type
REMARK                         _______ _______ _______ _____ _____    ______ ____
ROOT
ATOM      1  C   UNL     1      -2.003  11.934  20.070  0.00  0.00    +0.000 A 
ATOM      2  C   UNL     1      -2.344  11.771  18.720  0.00  0.00    +0.000 A 
ATOM      3  C   UNL     1      -1.667  10.873  17.900  0.00  0.00    +0.000 A 
ATOM      4 CL   UNL     1      -2.320  10.588  16.325  0.00  0.00    +0.000 Cl
ATOM      5  C   UNL     1      -0.533  10.200  18.366  0.00  0.00    +0.000 A 
ATOM      6  C   UNL     1      -0.144  10.367  19.717  0.00  0.00    +0.000 A 
ATOM      7  C   UNL     1      -0.941  11.157  20.585  0.00  0.00    +0.000 A 
ATOM      8 CL   UNL     1      -0.813  10.974  22.314  0.00  0.00    +0.000 Cl
ATOM      9  C   UNL     1       1.057   9.619  20.231  0.00  0.00    +0.000 C 
ATOM     10  O   UNL     1       1.505   9.808  21.352  0.00  0.00    +0.000 OA
ATOM     11  N   UNL     1       1.611   8.676  19.384  0.00  0.00    +0.000 N 
ATOM     12  C   UNL     1       1.579   8.918  17.954  0.00  0.00    +0.000 C 
ATOM     13  C   UNL     1       0.173   9.210  17.478  0.00  0.00    +0.000 C 
ENDROOT
BRANCH   1  20
ATOM     14  C   UNL     1      -1.076  14.594  21.970  0.00  0.00    +0.000 C 
ATOM     15  C   UNL     1      -2.407  13.993  21.693  0.00  0.00    +0.000 A 
ATOM     16  N   UNL     1      -3.478  14.575  22.242  0.00  0.00    +0.000 NA
ATOM     17  O   UNL     1      -4.571  13.879  21.793  0.00  0.00    +0.000 OA
ATOM     18  C   UNL     1      -4.171  12.873  20.972  0.00  0.00    +0.000 A 
ATOM     19  C   UNL     1      -5.282  12.070  20.414  0.00  0.00    +0.000 C 
ATOM     20  C   UNL     1      -2.787  12.873  20.880  0.00  0.00    +0.000 A 
ENDBRANCH   1  20
BRANCH  11  21
ATOM     21  C   UNL     1       2.387   7.560  19.936  0.00  0.00    +0.000 C 
BRANCH  21  22
ATOM     22  C   UNL     1       2.393   6.284  19.135  0.00  0.00    +0.000 A 
ATOM     23  C   UNL     1       3.192   6.032  18.066  0.00  0.00    +0.000 A 
ATOM     24  C   UNL     1       3.224   4.681  17.522  0.00  0.00    +0.000 A 
ATOM     25  C   UNL     1       2.485   3.677  18.013  0.00  0.00    +0.000 A 
ATOM     26  C   UNL     1       2.573   2.299  17.426  0.00  0.00    +0.000 C 
ATOM     27  N   UNL     1       1.665   3.912  19.108  0.00  0.00    +0.000 N 
ATOM     28  C   UNL     1       0.864   2.874  19.738  0.00  0.00    +0.000 C 
ATOM     29  C   UNL     1       1.605   5.155  19.731  0.00  0.00    +0.000 A 
ATOM     30  O   UNL     1       0.960   5.314  20.768  0.00  0.00    +0.000 OA
BRANCH  23  31
ATOM     31  C   UNL     1       4.164   6.988  17.465  0.00  0.00    +0.000 C 
ATOM     32  C   UNL     1       5.665   6.778  17.513  0.00  0.00    +0.000 C 
ATOM     33  C   UNL     1       4.929   6.584  16.229  0.00  0.00    +0.000 C 
ENDBRANCH  23  31
ENDBRANCH  21  22
ENDBRANCH  11  21
TORSDOF 4
ENDMDL
MODEL 5
REMARK VINA RESULT:      -7.8      3.396      9.334
REMARK  Name = 
REMARK  8 active torsions:
REMARK  status: ('A' for Active; 'I' for Inactive)
REMARK    1  A    between atoms: C_1  and  C_2
REMARK    2  A    between atoms: C_5  and  C_6
REMARK    3  A    between atoms: C_7  and  C_8
REMARK    4  A    between atoms: N_18  and  C_19
REMARK    5  A    between atoms: C_19  and  C_20
REMARK    6  A    between atoms: C_21  and  C_22
REMARK    7  A    between atoms: C_26  and  C_27
REMARK    8  A    between atoms: N_28  and  C_29
REMARK                            x       y       z     vdW  Elec       q    Type
REMARK                         _______ _______ _______ _____ _____    ______ ____
ROOT
ATOM      1  C   UNL     1      -1.981  11.997  20.010  0.00  0.00    +0.000 A 
ATOM      2  C   UNL     1      -2.322  11.819  18.661  0.00  0.00    +0.000 A 
ATOM      3  C   UNL     1      -1.657  10.898  17.856  0.00  0.00    +0.000 A 
ATOM      4 CL   UNL     1      -2.312  10.600  16.284  0.00  0.00    +0.000 Cl
ATOM      5  C   UNL     1      -0.535  10.215  18.335  0.00  0.00    +0.000 A 
ATOM      6  C   UNL     1      -0.147  10.396  19.684  0.00  0.00    +0.000 A 
ATOM      7  C   UNL     1      -0.932  11.212  20.538  0.00  0.00    +0.000 A 
ATOM      8 CL   UNL     1      -0.810  11.052  22.270  0.00  0.00    +0.000 Cl
ATOM      9  C   UNL     1       1.042   9.637  20.212  0.00  0.00    +0.000 C 
ATOM     10  O   UNL     1       1.490   9.836  21.331  0.00  0.00    +0.000 OA
ATOM     11  N   UNL     1       1.582   8.672  19.380  0.00  0.00    +0.000 N 
ATOM     12  C   UNL     1       1.557   8.893  17.946  0.00  0.00    +0.000 C 
ATOM     13  C   UNL     1       0.157   9.201  17.463  0.00  0.00    +0.000 C 
ENDROOT
BRANCH   1  20
ATOM     14  C   UNL     1      -5.291  12.165  20.761  0.00  0.00    +0.000 C 
ATOM     15  C   UNL     1      -4.149  13.047  21.120  0.00  0.00    +0.000 A 
ATOM     16  N   UNL     1      -4.402  14.103  21.901  0.00  0.00    +0.000 NA
ATOM     17  O   UNL     1      -3.194  14.712  22.132  0.00  0.00    +0.000 OA
ATOM     18  C   UNL     1      -2.206  14.032  21.494  0.00  0.00    +0.000 A 
ATOM     19  C   UNL     1      -0.854  14.598  21.698  0.00  0.00    +0.000 C 
ATOM     20  C   UNL     1      -2.752  12.960  20.804  0.00  0.00    +0.000 A 
ENDBRANCH   1  20
BRANCH  11  21
ATOM     21  C   UNL     1       2.340   7.553  19.950  0.00  0.00    +0.000 C 
BRANCH  21  22
ATOM     22  C   UNL     1       2.367   6.280  19.145  0.00  0.00    +0.000 A 
ATOM     23  C   UNL     1       3.180   6.040  18.083  0.00  0.00    +0.000 A 
ATOM     24  C   UNL     1       3.231   4.691  17.536  0.00  0.00    +0.000 A 
ATOM     25  C   UNL     1       2.498   3.678  18.015  0.00  0.00    +0.000 A 
ATOM     26  C   UNL     1       2.605   2.303  17.424  0.00  0.00    +0.000 C 
ATOM     27  N   UNL     1       1.663   3.901  19.101  0.00  0.00    +0.000 N 
ATOM     28  C   UNL     1       0.866   2.853  19.719  0.00  0.00    +0.000 C 
ATOM     29  C   UNL     1       1.584   5.142  19.728  0.00  0.00    +0.000 A 
ATOM     30  O   UNL     1       0.927   5.289  20.759  0.00  0.00    +0.000 OA
BRANCH  23  31
ATOM     31  C   UNL     1       4.148   7.008  17.497  0.00  0.00    +0.000 C 
ATOM     32  C   UNL     1       5.650   6.797  17.531  0.00  0.00    +0.000 C 
ATOM     33  C   UNL     1       4.907   6.630  16.248  0.00  0.00    +0.000 C 
ENDBRANCH  23  31
ENDBRANCH  21  22
ENDBRANCH  11  21
TORSDOF 4
ENDMDL
MODEL 6
REMARK VINA RESULT:      -7.6      1.702      2.633
REMARK  Name = 
REMARK  8 active torsions:
REMARK  status: ('A' for Active; 'I' for Inactive)
REMARK    1  A    between atoms: C_1  and  C_2
REMARK    2  A    between atoms: C_5  and  C_6
REMARK    3  A    between atoms: C_7  and  C_8
REMARK    4  A    between atoms: N_18  and  C_19
REMARK    5  A    between atoms: C_19  and  C_20
REMARK    6  A    between atoms: C_21  and  C_22
REMARK    7  A    between atoms: C_26  and  C_27
REMARK    8  A    between atoms: N_28  and  C_29
REMARK                            x       y       z     vdW  Elec       q    Type
REMARK                         _______ _______ _______ _____ _____    ______ ____
ROOT
ATOM      1  C   UNL     1       4.836   5.296  18.230  0.00  0.00    +0.000 A 
ATOM      2  C   UNL     1       4.347   4.449  19.236  0.00  0.00    +0.000 A 
ATOM      3  C   UNL     1       3.242   4.797  20.008  0.00  0.00    +0.000 A 
ATOM      4 CL   UNL     1       2.591   3.582  21.052  0.00  0.00    +0.000 Cl
ATOM      5  C   UNL     1       2.667   6.066  19.895  0.00  0.00    +0.000 A 
ATOM      6  C   UNL     1       3.158   6.956  18.911  0.00  0.00    +0.000 A 
ATOM      7  C   UNL     1       4.175   6.527  18.019  0.00  0.00    +0.000 A 
ATOM      8 CL   UNL     1       4.434   7.357  16.509  0.00  0.00    +0.000 Cl
ATOM      9  C   UNL     1       2.519   8.312  18.765  0.00  0.00    +0.000 C 
ATOM     10  O   UNL     1       2.971   9.161  18.011  0.00  0.00    +0.000 OA
ATOM     11  N   UNL     1       1.369   8.539  19.500  0.00  0.00    +0.000 N 
ATOM     12  C   UNL     1       1.239   7.914  20.803  0.00  0.00    +0.000 C 
ATOM     13  C   UNL     1       1.456   6.419  20.718  0.00  0.00    +0.000 C 
ENDROOT
BRANCH   1  20
ATOM     14  C   UNL     1       5.033   4.031  15.082  0.00  0.00    +0.000 C 
ATOM     15  C   UNL     1       6.077   4.300  16.108  0.00  0.00    +0.000 A 
ATOM     16  N   UNL     1       7.347   4.041  15.783  0.00  0.00    +0.000 NA
ATOM     17  O   UNL     1       8.108   4.424  16.859  0.00  0.00    +0.000 OA
ATOM     18  C   UNL     1       7.305   4.915  17.838  0.00  0.00    +0.000 A 
ATOM     19  C   UNL     1       8.033   5.378  19.041  0.00  0.00    +0.000 C 
ATOM     20  C   UNL     1       5.981   4.844  17.432  0.00  0.00    +0.000 A 
ENDBRANCH   1  20
BRANCH  11  21
ATOM     21  C   UNL     1       0.402   9.548  19.055  0.00  0.00    +0.000 C 
BRANCH  21  22
ATOM     22  C   UNL     1       0.492  10.901  19.711  0.00  0.00    +0.000 A 
ATOM     23  C   UNL     1      -0.005  11.214  20.936  0.00  0.00    +0.000 A 
ATOM     24  C   UNL     1       0.337  12.506  21.518  0.00  0.00    +0.000 A 
ATOM     25  C   UNL     1       1.102  13.410  20.893  0.00  0.00    +0.000 A 
ATOM     26  C   UNL     1       1.439  14.717  21.549  0.00  0.00    +0.000 C 
ATOM     27  N   UNL     1       1.623  13.108  19.642  0.00  0.00    +0.000 N 
ATOM     28  C   UNL     1       2.502  14.007  18.911  0.00  0.00    +0.000 C 
ATOM     29  C   UNL     1       1.398  11.881  19.027  0.00  0.00    +0.000 A 
ATOM     30  O   UNL     1       1.962  11.589  17.971  0.00  0.00    +0.000 OA
BRANCH  23  31
ATOM     31  C   UNL     1      -0.771  10.294  21.822  0.00  0.00    +0.000 C 
ATOM     32  C   UNL     1      -0.222   9.762  23.132  0.00  0.00    +0.000 C 
ATOM     33  C   UNL     1      -1.291  10.804  23.144  0.00  0.00    +0.000 C 
ENDBRANCH  23  31
ENDBRANCH  21  22
ENDBRANCH  11  21
TORSDOF 4
ENDMDL
MODEL 7
REMARK VINA RESULT:      -7.5      1.243      2.837
REMARK  Name = 
REMARK  8 active torsions:
REMARK  status: ('A' for Active; 'I' for Inactive)
REMARK    1  A    between atoms: C_1  and  C_2
REMARK    2  A    between atoms: C_5  and  C_6
REMARK    3  A    between atoms: C_7  and  C_8
REMARK    4  A    between atoms: N_18  and  C_19
REMARK    5  A    between atoms: C_19  and  C_20
REMARK    6  A    between atoms: C_21  and  C_22
REMARK    7  A    between atoms: C_26  and  C_27
REMARK    8  A    between atoms: N_28  and  C_29
REMARK                            x       y       z     vdW  Elec       q    Type
REMARK                         _______ _______ _______ _____ _____    ______ ____
ROOT
ATOM      1  C   UNL     1       4.718   5.714  18.301  0.00  0.00    +0.000 A 
ATOM      2  C   UNL     1       4.150   5.100  19.427  0.00  0.00    +0.000 A 
ATOM      3  C   UNL     1       2.992   5.594  20.021  0.00  0.00    +0.000 A 
ATOM      4 CL   UNL     1       2.257   4.627  21.252  0.00  0.00    +0.000 Cl
ATOM      5  C   UNL     1       2.433   6.801  19.592  0.00  0.00    +0.000 A 
ATOM      6  C   UNL     1       3.001   7.462  18.478  0.00  0.00    +0.000 A 
ATOM      7  C   UNL     1       4.081   6.862  17.779  0.00  0.00    +0.000 A 
ATOM      8 CL   UNL     1       4.458   7.348  16.148  0.00  0.00    +0.000 Cl
ATOM      9  C   UNL     1       2.382   8.747  17.994  0.00  0.00    +0.000 C 
ATOM     10  O   UNL     1       2.893   9.418  17.110  0.00  0.00    +0.000 OA
ATOM     11  N   UNL     1       1.181   9.115  18.573  0.00  0.00    +0.000 N 
ATOM     12  C   UNL     1       0.949   8.785  19.967  0.00  0.00    +0.000 C 
ATOM     13  C   UNL     1       1.165   7.310  20.225  0.00  0.00    +0.000 C 
ENDROOT
BRANCH   1  20
ATOM     14  C   UNL     1       7.952   5.640  19.342  0.00  0.00    +0.000 C 
ATOM     15  C   UNL     1       7.288   5.082  18.133  0.00  0.00    +0.000 A 
ATOM     16  N   UNL     1       8.045   4.394  17.272  0.00  0.00    +0.000 NA
ATOM     17  O   UNL     1       7.200   3.943  16.289  0.00  0.00    +0.000 OA
ATOM     18  C   UNL     1       5.932   4.355  16.548  0.00  0.00    +0.000 A 
ATOM     19  C   UNL     1       4.934   3.900  15.554  0.00  0.00    +0.000 C 
ATOM     20  C   UNL     1       5.918   5.113  17.709  0.00  0.00    +0.000 A 
ENDBRANCH   1  20
BRANCH  11  21
ATOM     21  C   UNL     1       0.255   9.992  17.849  0.00  0.00    +0.000 C 
BRANCH  21  22
ATOM     22  C   UNL     1      -0.409  11.079  18.653  0.00  0.00    +0.000 A 
ATOM     23  C   UNL     1      -1.731  11.134  18.959  0.00  0.00    +0.000 A 
ATOM     24  C   UNL     1      -2.185  12.138  19.912  0.00  0.00    +0.000 A 
ATOM     25  C   UNL     1      -1.364  13.027  20.486  0.00  0.00    +0.000 A 
ATOM     26  C   UNL     1      -1.884  14.027  21.476  0.00  0.00    +0.000 C 
ATOM     27  N   UNL     1      -0.008  12.986  20.189  0.00  0.00    +0.000 N 
ATOM     28  C   UNL     1       0.964  13.879  20.799  0.00  0.00    +0.000 C 
ATOM     29  C   UNL     1       0.531  12.030  19.333  0.00  0.00    +0.000 A 
ATOM     30  O   UNL     1       1.748  11.939  19.173  0.00  0.00    +0.000 OA
BRANCH  23  31
ATOM     31  C   UNL     1      -2.765  10.160  18.512  0.00  0.00    +0.000 C 
ATOM     32  C   UNL     1      -4.032  10.575  17.787  0.00  0.00    +0.000 C 
ATOM     33  C   UNL     1      -2.938   9.890  17.037  0.00  0.00    +0.000 C 
ENDBRANCH  23  31
ENDBRANCH  21  22
ENDBRANCH  11  21
TORSDOF 4
ENDMDL
MODEL 8
REMARK VINA RESULT:      -7.2      1.796      2.993
REMARK  Name = 
REMARK  8 active torsions:
REMARK  status: ('A' for Active; 'I' for Inactive)
REMARK    1  A    between atoms: C_1  and  C_2
REMARK    2  A    between atoms: C_5  and  C_6
REMARK    3  A    between atoms: C_7  and  C_8
REMARK    4  A    between atoms: N_18  and  C_19
REMARK    5  A    between atoms: C_19  and  C_20
REMARK    6  A    between atoms: C_21  and  C_22
REMARK    7  A    between atoms: C_26  and  C_27
REMARK    8  A    between atoms: N_28  and  C_29
REMARK                            x       y       z     vdW  Elec       q    Type
REMARK                         _______ _______ _______ _____ _____    ______ ____
ROOT
ATOM      1  C   UNL     1       4.249   5.734  18.143  0.00  0.00    +0.000 A 
ATOM      2  C   UNL     1       3.842   5.007  19.271  0.00  0.00    +0.000 A 
ATOM      3  C   UNL     1       2.859   5.488  20.132  0.00  0.00    +0.000 A 
ATOM      4 CL   UNL     1       2.275   4.408  21.350  0.00  0.00    +0.000 Cl
ATOM      5  C   UNL     1       2.342   6.777  19.972  0.00  0.00    +0.000 A 
ATOM      6  C   UNL     1       2.756   7.548  18.860  0.00  0.00    +0.000 A 
ATOM      7  C   UNL     1       3.634   6.983  17.900  0.00  0.00    +0.000 A 
ATOM      8 CL   UNL     1       3.752   7.666  16.300  0.00  0.00    +0.000 Cl
ATOM      9  C   UNL     1       2.177   8.925  18.667  0.00  0.00    +0.000 C 
ATOM     10  O   UNL     1       2.578   9.677  17.792  0.00  0.00    +0.000 OA
ATOM     11  N   UNL     1       1.138   9.285  19.507  0.00  0.00    +0.000 N 
ATOM     12  C   UNL     1       1.134   8.780  20.867  0.00  0.00    +0.000 C 
ATOM     13  C   UNL     1       1.259   7.273  20.894  0.00  0.00    +0.000 C 
ENDROOT
BRANCH   1  20
ATOM     14  C   UNL     1       7.404   6.725  17.357  0.00  0.00    +0.000 C 
ATOM     15  C   UNL     1       6.594   5.558  16.915  0.00  0.00    +0.000 A 
ATOM     16  N   UNL     1       7.165   4.690  16.074  0.00  0.00    +0.000 NA
ATOM     17  O   UNL     1       6.248   3.689  15.870  0.00  0.00    +0.000 OA
ATOM     18  C   UNL     1       5.121   3.946  16.582  0.00  0.00    +0.000 A 
ATOM     19  C   UNL     1       4.072   2.910  16.447  0.00  0.00    +0.000 C 
ATOM     20  C   UNL     1       5.264   5.145  17.262  0.00  0.00    +0.000 A 
ENDBRANCH   1  20
BRANCH  11  21
ATOM     21  C   UNL     1       0.179  10.312  19.088  0.00  0.00    +0.000 C 
BRANCH  21  22
ATOM     22  C   UNL     1       0.268  11.642  19.790  0.00  0.00    +0.000 A 
ATOM     23  C   UNL     1      -0.335  11.950  20.968  0.00  0.00    +0.000 A 
ATOM     24  C   UNL     1       0.009  13.207  21.619  0.00  0.00    +0.000 A 
ATOM     25  C   UNL     1       0.877  14.086  21.102  0.00  0.00    +0.000 A 
ATOM     26  C   UNL     1       1.209  15.357  21.826  0.00  0.00    +0.000 C 
ATOM     27  N   UNL     1       1.507  13.789  19.901  0.00  0.00    +0.000 N 
ATOM     28  C   UNL     1       2.498  14.659  19.288  0.00  0.00    +0.000 C 
ATOM     29  C   UNL     1       1.285  12.590  19.229  0.00  0.00    +0.000 A 
ATOM     30  O   UNL     1       1.938  12.296  18.227  0.00  0.00    +0.000 OA
BRANCH  23  31
ATOM     31  C   UNL     1      -1.231  11.049  21.745  0.00  0.00    +0.000 C 
ATOM     32  C   UNL     1      -0.829  10.426  23.068  0.00  0.00    +0.000 C 
ATOM     33  C   UNL     1      -1.825  11.537  23.043  0.00  0.00    +0.000 C 
ENDBRANCH  23  31
ENDBRANCH  21  22
ENDBRANCH  11  21
TORSDOF 4
ENDMDL
MODEL 9
REMARK VINA RESULT:      -7.1      4.073     10.438
REMARK  Name = 
REMARK  8 active torsions:
REMARK  status: ('A' for Active; 'I' for Inactive)
REMARK    1  A    between atoms: C_1  and  C_2
REMARK    2  A    between atoms: C_5  and  C_6
REMARK    3  A    between atoms: C_7  and  C_8
REMARK    4  A    between atoms: N_18  and  C_19
REMARK    5  A    between atoms: C_19  and  C_20
REMARK    6  A    between atoms: C_21  and  C_22
REMARK    7  A    between atoms: C_26  and  C_27
REMARK    8  A    between atoms: N_28  and  C_29
REMARK                            x       y       z     vdW  Elec       q    Type
REMARK                         _______ _______ _______ _____ _____    ______ ____
ROOT
ATOM      1  C   UNL     1      -4.523  13.664  21.054  0.00  0.00    +0.000 A 
ATOM      2  C   UNL     1      -5.198  12.819  20.163  0.00  0.00    +0.000 A 
ATOM      3  C   UNL     1      -4.510  11.988  19.283  0.00  0.00    +0.000 A 
ATOM      4 CL   UNL     1      -5.438  10.826  18.399  0.00  0.00    +0.000 Cl
ATOM      5  C   UNL     1      -3.119  12.070  19.168  0.00  0.00    +0.000 A 
ATOM      6  C   UNL     1      -2.410  12.938  20.032  0.00  0.00    +0.000 A 
ATOM      7  C   UNL     1      -3.110  13.655  21.037  0.00  0.00    +0.000 A 
ATOM      8 CL   UNL     1      -2.261  14.300  22.416  0.00  0.00    +0.000 Cl
ATOM      9  C   UNL     1      -0.909  13.005  19.933  0.00  0.00    +0.000 C 
ATOM     10  O   UNL     1      -0.255  13.814  20.574  0.00  0.00    +0.000 OA
ATOM     11  N   UNL     1      -0.299  12.079  19.106  0.00  0.00    +0.000 N 
ATOM     12  C   UNL     1      -0.995  11.648  17.908  0.00  0.00    +0.000 C 
ATOM     13  C   UNL     1      -2.385  11.147  18.232  0.00  0.00    +0.000 C 
ENDROOT
BRANCH   1  20
ATOM     14  C   UNL     1      -5.465  13.157  24.280  0.00  0.00    +0.000 C 
ATOM     15  C   UNL     1      -5.728  14.277  23.336  0.00  0.00    +0.000 A 
ATOM     16  N   UNL     1      -6.439  15.315  23.788  0.00  0.00    +0.000 NA
ATOM     17  O   UNL     1      -6.491  16.224  22.762  0.00  0.00    +0.000 OA
ATOM     18  C   UNL     1      -5.815  15.744  21.687  0.00  0.00    +0.000 A 
ATOM     19  C   UNL     1      -5.792  16.663  20.527  0.00  0.00    +0.000 C 
ATOM     20  C   UNL     1      -5.317  14.483  21.978  0.00  0.00    +0.000 A 
ENDBRANCH   1  20
BRANCH  11  21
ATOM     21  C   UNL     1       1.099  11.700  19.335  0.00  0.00    +0.000 C 
BRANCH  21  22
ATOM     22  C   UNL     1       1.346  10.287  19.795  0.00  0.00    +0.000 A 
ATOM     23  C   UNL     1       0.978   9.778  21.000  0.00  0.00    +0.000 A 
ATOM     24  C   UNL     1       1.106   8.344  21.219  0.00  0.00    +0.000 A 
ATOM     25  C   UNL     1       1.590   7.502  20.296  0.00  0.00    +0.000 A 
ATOM     26  C   UNL     1       1.681   6.030  20.570  0.00  0.00    +0.000 C 
ATOM     27  N   UNL     1       1.969   8.001  19.057  0.00  0.00    +0.000 N 
ATOM     28  C   UNL     1       2.460   7.158  17.979  0.00  0.00    +0.000 C 
ATOM     29  C   UNL     1       1.835   9.348  18.733  0.00  0.00    +0.000 A 
ATOM     30  O   UNL     1       2.068   9.750  17.592  0.00  0.00    +0.000 OA
BRANCH  23  31
ATOM     31  C   UNL     1       0.315  10.538  22.096  0.00  0.00    +0.000 C 
ATOM     32  C   UNL     1      -1.167  10.426  22.399  0.00  0.00    +0.000 C 
ATOM     33  C   UNL     1      -0.173   9.799  23.318  0.00  0.00    +0.000 C 
ENDBRANCH  23  31
ENDBRANCH  21  22
ENDBRANCH  11  21
TORSDOF 4
ENDMDL
