MODEL 1
REMARK VINA RESULT:      -6.8      0.000      0.000
REMARK  Name = 
REMARK  9 active torsions:
REMARK  status: ('A' for Active; 'I' for Inactive)
REMARK    1  A    between atoms: C_1  and  N_2
REMARK    2  A    between atoms: N_2  and  C_3
REMARK    3  A    between atoms: C_3  and  C_4
REMARK    4  A    between atoms: C_4  and  O_5
REMARK    5  A    between atoms: O_5  and  C_6
REMARK    6  A    between atoms: C_9  and  C_10
REMARK    7  A    between atoms: C_10  and  C_11
REMARK    8  A    between atoms: C_11  and  C_12
REMARK    9  A    between atoms: C_12  and  O_14
REMARK                            x       y       z     vdW  Elec       q    Type
REMARK                         _______ _______ _______ _____ _____    ______ ____
ROOT
ATOM      1  C   UNL     1       5.652   4.925  16.826  0.00  0.00    +0.000 A 
ATOM      2  C   UNL     1       5.499   6.294  16.618  0.00  0.00    +0.000 A 
ATOM      3  C   UNL     1       6.386   7.211  17.172  0.00  0.00    +0.000 A 
ATOM      4  C   UNL     1       7.445   6.784  17.978  0.00  0.00    +0.000 A 
ATOM      5  C   UNL     1       7.607   5.409  18.193  0.00  0.00    +0.000 A 
ATOM      6  C   UNL     1       6.717   4.487  17.620  0.00  0.00    +0.000 A 
ENDROOT
BRANCH   1   7
ATOM      7  O   UNL     1       4.833   3.958  16.290  0.00  0.00    +0.000 OA
BRANCH   7   8
ATOM      8  C   UNL     1       4.163   3.138  17.266  0.00  0.00    +0.000 C 
BRANCH   8   9
ATOM      9  C   UNL     1       2.654   3.404  17.324  0.00  0.00    +0.000 C 
BRANCH   9  11
ATOM     10  C   UNL     1       1.302   2.654  19.275  0.00  0.00    +0.000 C 
ATOM     11  N   UNL     1       2.195   3.644  18.696  0.00  0.00    +0.000 N 
ATOM     12  C   UNL     1       2.120   4.965  19.139  0.00  0.00    +0.000 A 
ATOM     13  C   UNL     1       1.724   5.266  20.446  0.00  0.00    +0.000 A 
ATOM     14  C   UNL     1       1.639   6.590  20.877  0.00  0.00    +0.000 A 
ATOM     15  C   UNL     1       1.959   7.608  19.996  0.00  0.00    +0.000 A 
ATOM     16  C   UNL     1       2.364   7.247  18.725  0.00  0.00    +0.000 A 
ATOM     17  N   UNL     1       2.461   5.966  18.293  0.00  0.00    +0.000 NA
ENDBRANCH   9  11
ENDBRANCH   8   9
ENDBRANCH   7   8
ENDBRANCH   1   7
BRANCH   4  18
ATOM     18  C   UNL     1       8.392   7.808  18.559  0.00  0.00    +0.000 C 
BRANCH  18  19
ATOM     19  C   UNL     1       8.224   9.184  17.910  0.00  0.00    +0.000 C 
BRANCH  19  20
ATOM     20  C   UNL     1       9.010  10.242  18.641  0.00  0.00    +0.000 C 
ATOM     21  O   UNL     1       9.370  10.179  19.806  0.00  0.00    +0.000 OA
BRANCH  20  22
ATOM     22  O   UNL     1       9.299  11.303  17.851  0.00  0.00    +0.000 OA
ATOM     23  H   UNL     1      10.240  11.361  17.597  0.00  0.00    +0.000 HD
ENDBRANCH  20  22
ENDBRANCH  19  20
ENDBRANCH  18  19
ENDBRANCH   4  18
TORSDOF 8
ENDMDL
MODEL 2
REMARK VINA RESULT:      -6.7      0.222      1.232
REMARK  Name = 
REMARK  9 active torsions:
REMARK  status: ('A' for Active; 'I' for Inactive)
REMARK    1  A    between atoms: C_1  and  N_2
REMARK    2  A    between atoms: N_2  and  C_3
REMARK    3  A    between atoms: C_3  and  C_4
REMARK    4  A    between atoms: C_4  and  O_5
REMARK    5  A    between atoms: O_5  and  C_6
REMARK    6  A    between atoms: C_9  and  C_10
REMARK    7  A    between atoms: C_10  and  C_11
REMARK    8  A    between atoms: C_11  and  C_12
REMARK    9  A    between atoms: C_12  and  O_14
REMARK                            x       y       z     vdW  Elec       q    Type
REMARK                         _______ _______ _______ _____ _____    ______ ____
ROOT
ATOM      1  C   UNL     1       5.797   4.840  16.978  0.00  0.00    +0.000 A 
ATOM      2  C   UNL     1       6.774   4.546  17.927  0.00  0.00    +0.000 A 
ATOM      3  C   UNL     1       7.608   5.537  18.434  0.00  0.00    +0.000 A 
ATOM      4  C   UNL     1       7.506   6.857  17.983  0.00  0.00    +0.000 A 
ATOM      5  C   UNL     1       6.527   7.162  17.029  0.00  0.00    +0.000 A 
ATOM      6  C   UNL     1       5.679   6.160  16.531  0.00  0.00    +0.000 A 
ENDROOT
BRANCH   1   7
ATOM      7  O   UNL     1       4.919   3.920  16.451  0.00  0.00    +0.000 OA
BRANCH   7   8
ATOM      8  C   UNL     1       4.226   3.128  17.434  0.00  0.00    +0.000 C 
BRANCH   8   9
ATOM      9  C   UNL     1       2.716   3.388  17.442  0.00  0.00    +0.000 C 
BRANCH   9  11
ATOM     10  C   UNL     1       1.307   2.785  19.404  0.00  0.00    +0.000 C 
ATOM     11  N   UNL     1       2.227   3.725  18.783  0.00  0.00    +0.000 N 
ATOM     12  C   UNL     1       2.160   5.072  19.135  0.00  0.00    +0.000 A 
ATOM     13  C   UNL     1       1.736   5.464  20.409  0.00  0.00    +0.000 A 
ATOM     14  C   UNL     1       1.658   6.816  20.749  0.00  0.00    +0.000 A 
ATOM     15  C   UNL     1       2.013   7.768  19.811  0.00  0.00    +0.000 A 
ATOM     16  C   UNL     1       2.444   7.319  18.577  0.00  0.00    +0.000 A 
ATOM     17  N   UNL     1       2.534   6.011  18.233  0.00  0.00    +0.000 NA
ENDBRANCH   9  11
ENDBRANCH   8   9
ENDBRANCH   7   8
ENDBRANCH   1   7
BRANCH   4  18
ATOM     18  C   UNL     1       8.425   7.908  18.559  0.00  0.00    +0.000 C 
BRANCH  18  19
ATOM     19  C   UNL     1       8.188   9.287  17.939  0.00  0.00    +0.000 C 
BRANCH  19  20
ATOM     20  C   UNL     1       9.128  10.320  18.505  0.00  0.00    +0.000 C 
ATOM     21  O   UNL     1       9.783  11.116  17.851  0.00  0.00    +0.000 OA
BRANCH  20  22
ATOM     22  O   UNL     1       9.169  10.288  19.858  0.00  0.00    +0.000 OA
ATOM     23  H   UNL     1       8.455   9.759  20.263  0.00  0.00    +0.000 HD
ENDBRANCH  20  22
ENDBRANCH  19  20
ENDBRANCH  18  19
ENDBRANCH   4  18
TORSDOF 8
ENDMDL
MODEL 3
REMARK VINA RESULT:      -6.7      3.585      6.366
REMARK  Name = 
REMARK  9 active torsions:
REMARK  status: ('A' for Active; 'I' for Inactive)
REMARK    1  A    between atoms: C_1  and  N_2
REMARK    2  A    between atoms: N_2  and  C_3
REMARK    3  A    between atoms: C_3  and  C_4
REMARK    4  A    between atoms: C_4  and  O_5
REMARK    5  A    between atoms: O_5  and  C_6
REMARK    6  A    between atoms: C_9  and  C_10
REMARK    7  A    between atoms: C_10  and  C_11
REMARK    8  A    between atoms: C_11  and  C_12
REMARK    9  A    between atoms: C_12  and  O_14
REMARK                            x       y       z     vdW  Elec       q    Type
REMARK                         _______ _______ _______ _____ _____    ______ ____
ROOT
ATOM      1  C   UNL     1       2.437   5.384  18.429  0.00  0.00    +0.000 A 
ATOM      2  C   UNL     1       2.004   5.035  19.707  0.00  0.00    +0.000 A 
ATOM      3  C   UNL     1       1.710   6.006  20.658  0.00  0.00    +0.000 A 
ATOM      4  C   UNL     1       1.866   7.364  20.366  0.00  0.00    +0.000 A 
ATOM      5  C   UNL     1       2.300   7.725  19.084  0.00  0.00    +0.000 A 
ATOM      6  C   UNL     1       2.582   6.741  18.123  0.00  0.00    +0.000 A 
ENDROOT
BRANCH   1   7
ATOM      7  O   UNL     1       2.720   4.483  17.428  0.00  0.00    +0.000 OA
BRANCH   7   8
ATOM      8  C   UNL     1       3.582   3.401  17.827  0.00  0.00    +0.000 C 
BRANCH   8   9
ATOM      9  C   UNL     1       4.854   3.315  16.975  0.00  0.00    +0.000 C 
BRANCH   9  11
ATOM     10  C   UNL     1       5.227   4.855  15.056  0.00  0.00    +0.000 C 
ATOM     11  N   UNL     1       5.277   4.633  16.491  0.00  0.00    +0.000 N 
ATOM     12  C   UNL     1       6.202   5.344  17.255  0.00  0.00    +0.000 A 
ATOM     13  C   UNL     1       6.625   6.620  16.873  0.00  0.00    +0.000 A 
ATOM     14  C   UNL     1       7.562   7.320  17.635  0.00  0.00    +0.000 A 
ATOM     15  C   UNL     1       8.066   6.736  18.784  0.00  0.00    +0.000 A 
ATOM     16  C   UNL     1       7.595   5.481  19.121  0.00  0.00    +0.000 A 
ATOM     17  N   UNL     1       6.679   4.793  18.397  0.00  0.00    +0.000 NA
ENDBRANCH   9  11
ENDBRANCH   8   9
ENDBRANCH   7   8
ENDBRANCH   1   7
BRANCH   4  18
ATOM     18  C   UNL     1       1.532   8.391  21.422  0.00  0.00    +0.000 C 
BRANCH  18  19
ATOM     19  C   UNL     1       0.039   8.729  21.449  0.00  0.00    +0.000 C 
BRANCH  19  20
ATOM     20  C   UNL     1      -0.247   9.913  22.335  0.00  0.00    +0.000 C 
ATOM     21  O   UNL     1       0.104  11.062  22.117  0.00  0.00    +0.000 OA
BRANCH  20  22
ATOM     22  O   UNL     1      -0.966   9.572  23.430  0.00  0.00    +0.000 OA
ATOM     23  H   UNL     1      -1.568  10.275  23.742  0.00  0.00    +0.000 HD
ENDBRANCH  20  22
ENDBRANCH  19  20
ENDBRANCH  18  19
ENDBRANCH   4  18
TORSDOF 8
ENDMDL
MODEL 4
REMARK VINA RESULT:      -6.7      4.029      7.078
REMARK  Name = 
REMARK  9 active torsions:
REMARK  status: ('A' for Active; 'I' for Inactive)
REMARK    1  A    between atoms: C_1  and  N_2
REMARK    2  A    between atoms: N_2  and  C_3
REMARK    3  A    between atoms: C_3  and  C_4
REMARK    4  A    between atoms: C_4  and  O_5
REMARK    5  A    between atoms: O_5  and  C_6
REMARK    6  A    between atoms: C_9  and  C_10
REMARK    7  A    between atoms: C_10  and  C_11
REMARK    8  A    between atoms: C_11  and  C_12
REMARK    9  A    between atoms: C_12  and  O_14
REMARK                            x       y       z     vdW  Elec       q    Type
REMARK                         _______ _______ _______ _____ _____    ______ ____
ROOT
ATOM      1  C   UNL     1       2.242   7.699  19.369  0.00  0.00    +0.000 A 
ATOM      2  C   UNL     1       1.547   8.297  20.418  0.00  0.00    +0.000 A 
ATOM      3  C   UNL     1       0.732   9.403  20.205  0.00  0.00    +0.000 A 
ATOM      4  C   UNL     1       0.608   9.965  18.931  0.00  0.00    +0.000 A 
ATOM      5  C   UNL     1       1.303   9.372  17.869  0.00  0.00    +0.000 A 
ATOM      6  C   UNL     1       2.114   8.246  18.088  0.00  0.00    +0.000 A 
ENDROOT
BRANCH   1   7
ATOM      7  O   UNL     1       3.045   6.588  19.496  0.00  0.00    +0.000 OA
BRANCH   7   8
ATOM      8  C   UNL     1       2.334   5.374  19.804  0.00  0.00    +0.000 C 
BRANCH   8   9
ATOM      9  C   UNL     1       3.175   4.118  19.546  0.00  0.00    +0.000 C 
BRANCH   9  11
ATOM     10  C   UNL     1       2.558   2.934  17.445  0.00  0.00    +0.000 C 
ATOM     11  N   UNL     1       3.410   3.903  18.114  0.00  0.00    +0.000 N 
ATOM     12  C   UNL     1       4.695   4.130  17.621  0.00  0.00    +0.000 A 
ATOM     13  C   UNL     1       4.982   3.978  16.261  0.00  0.00    +0.000 A 
ATOM     14  C   UNL     1       6.273   4.194  15.777  0.00  0.00    +0.000 A 
ATOM     15  C   UNL     1       7.270   4.569  16.661  0.00  0.00    +0.000 A 
ATOM     16  C   UNL     1       6.920   4.724  17.989  0.00  0.00    +0.000 A 
ATOM     17  N   UNL     1       5.670   4.526  18.474  0.00  0.00    +0.000 NA
ENDBRANCH   9  11
ENDBRANCH   8   9
ENDBRANCH   7   8
ENDBRANCH   1   7
BRANCH   4  18
ATOM     18  C   UNL     1      -0.290  11.164  18.736  0.00  0.00    +0.000 C 
BRANCH  18  19
ATOM     19  C   UNL     1      -1.772  10.779  18.712  0.00  0.00    +0.000 C 
BRANCH  19  20
ATOM     20  C   UNL     1      -2.324  10.782  17.311  0.00  0.00    +0.000 C 
ATOM     21  O   UNL     1      -2.121   9.923  16.467  0.00  0.00    +0.000 OA
BRANCH  20  22
ATOM     22  O   UNL     1      -3.107  11.860  17.071  0.00  0.00    +0.000 OA
ATOM     23  H   UNL     1      -2.930  12.294  16.214  0.00  0.00    +0.000 HD
ENDBRANCH  20  22
ENDBRANCH  19  20
ENDBRANCH  18  19
ENDBRANCH   4  18
TORSDOF 8
ENDMDL
MODEL 5
REMARK VINA RESULT:      -6.6      3.452      6.349
REMARK  Name = 
REMARK  9 active torsions:
REMARK  status: ('A' for Active; 'I' for Inactive)
REMARK    1  A    between atoms: C_1  and  N_2
REMARK    2  A    between atoms: N_2  and  C_3
REMARK    3  A    between atoms: C_3  and  C_4
REMARK    4  A    between atoms: C_4  and  O_5
REMARK    5  A    between atoms: O_5  and  C_6
REMARK    6  A    between atoms: C_9  and  C_10
REMARK    7  A    between atoms: C_10  and  C_11
REMARK    8  A    between atoms: C_11  and  C_12
REMARK    9  A    between atoms: C_12  and  O_14
REMARK                            x       y       z     vdW  Elec       q    Type
REMARK                         _______ _______ _______ _____ _____    ______ ____
ROOT
ATOM      1  C   UNL     1       6.593   4.738  15.952  0.00  0.00    +0.000 A 
ATOM      2  C   UNL     1       7.472   5.032  14.912  0.00  0.00    +0.000 A 
ATOM      3  C   UNL     1       7.181   4.674  13.600  0.00  0.00    +0.000 A 
ATOM      4  C   UNL     1       6.006   3.982  13.291  0.00  0.00    +0.000 A 
ATOM      5  C   UNL     1       5.116   3.682  14.331  0.00  0.00    +0.000 A 
ATOM      6  C   UNL     1       5.408   4.058  15.651  0.00  0.00    +0.000 A 
ENDROOT
BRANCH   1   7
ATOM      7  O   UNL     1       6.798   5.083  17.269  0.00  0.00    +0.000 OA
BRANCH   7   8
ATOM      8  C   UNL     1       5.933   6.127  17.752  0.00  0.00    +0.000 C 
BRANCH   8   9
ATOM      9  C   UNL     1       5.081   5.682  18.946  0.00  0.00    +0.000 C 
BRANCH   9  11
ATOM     10  C   UNL     1       2.867   6.806  18.766  0.00  0.00    +0.000 C 
ATOM     11  N   UNL     1       3.658   5.597  18.600  0.00  0.00    +0.000 N 
ATOM     12  C   UNL     1       3.031   4.356  18.710  0.00  0.00    +0.000 A 
ATOM     13  C   UNL     1       1.686   4.195  18.364  0.00  0.00    +0.000 A 
ATOM     14  C   UNL     1       1.062   2.953  18.489  0.00  0.00    +0.000 A 
ATOM     15  C   UNL     1       1.794   1.875  18.956  0.00  0.00    +0.000 A 
ATOM     16  C   UNL     1       3.124   2.092  19.261  0.00  0.00    +0.000 A 
ATOM     17  N   UNL     1       3.748   3.289  19.137  0.00  0.00    +0.000 NA
ENDBRANCH   9  11
ENDBRANCH   8   9
ENDBRANCH   7   8
ENDBRANCH   1   7
BRANCH   4  18
ATOM     18  C   UNL     1       5.721   3.614  11.855  0.00  0.00    +0.000 C 
BRANCH  18  19
ATOM     19  C   UNL     1       5.379   2.131  11.694  0.00  0.00    +0.000 C 
BRANCH  19  20
ATOM     20  C   UNL     1       6.565   1.336  11.213  0.00  0.00    +0.000 C 
ATOM     21  O   UNL     1       7.675   1.789  10.983  0.00  0.00    +0.000 OA
BRANCH  20  22
ATOM     22  O   UNL     1       6.275   0.022  11.066  0.00  0.00    +0.000 OA
ATOM     23  H   UNL     1       5.578  -0.158  10.406  0.00  0.00    +0.000 HD
ENDBRANCH  20  22
ENDBRANCH  19  20
ENDBRANCH  18  19
ENDBRANCH   4  18
TORSDOF 8
ENDMDL
MODEL 6
REMARK VINA RESULT:      -6.6      4.093      6.629
REMARK  Name = 
REMARK  9 active torsions:
REMARK  status: ('A' for Active; 'I' for Inactive)
REMARK    1  A    between atoms: C_1  and  N_2
REMARK    2  A    between atoms: N_2  and  C_3
REMARK    3  A    between atoms: C_3  and  C_4
REMARK    4  A    between atoms: C_4  and  O_5
REMARK    5  A    between atoms: O_5  and  C_6
REMARK    6  A    between atoms: C_9  and  C_10
REMARK    7  A    between atoms: C_10  and  C_11
REMARK    8  A    between atoms: C_11  and  C_12
REMARK    9  A    between atoms: C_12  and  O_14
REMARK                            x       y       z     vdW  Elec       q    Type
REMARK                         _______ _______ _______ _____ _____    ______ ____
ROOT
ATOM      1  C   UNL     1       2.262   7.557  18.994  0.00  0.00    +0.000 A 
ATOM      2  C   UNL     1       1.731   7.899  20.236  0.00  0.00    +0.000 A 
ATOM      3  C   UNL     1       1.008   9.073  20.413  0.00  0.00    +0.000 A 
ATOM      4  C   UNL     1       0.814   9.961  19.350  0.00  0.00    +0.000 A 
ATOM      5  C   UNL     1       1.344   9.626  18.097  0.00  0.00    +0.000 A 
ATOM      6  C   UNL     1       2.061   8.432  17.921  0.00  0.00    +0.000 A 
ENDROOT
BRANCH   1   7
ATOM      7  O   UNL     1       2.964   6.402  18.736  0.00  0.00    +0.000 OA
BRANCH   7   8
ATOM      8  C   UNL     1       3.041   5.491  19.848  0.00  0.00    +0.000 C 
BRANCH   8   9
ATOM      9  C   UNL     1       3.733   4.173  19.484  0.00  0.00    +0.000 C 
BRANCH   9  11
ATOM     10  C   UNL     1       2.765   2.971  17.530  0.00  0.00    +0.000 C 
ATOM     11  N   UNL     1       3.728   3.936  18.036  0.00  0.00    +0.000 N 
ATOM     12  C   UNL     1       4.917   4.137  17.336  0.00  0.00    +0.000 A 
ATOM     13  C   UNL     1       4.977   3.963  15.951  0.00  0.00    +0.000 A 
ATOM     14  C   UNL     1       6.174   4.154  15.259  0.00  0.00    +0.000 A 
ATOM     15  C   UNL     1       7.306   4.525  15.962  0.00  0.00    +0.000 A 
ATOM     16  C   UNL     1       7.180   4.702  17.327  0.00  0.00    +0.000 A 
ATOM     17  N   UNL     1       6.023   4.529  18.012  0.00  0.00    +0.000 NA
ENDBRANCH   9  11
ENDBRANCH   8   9
ENDBRANCH   7   8
ENDBRANCH   1   7
BRANCH   4  18
ATOM     18  C   UNL     1       0.019  11.224  19.577  0.00  0.00    +0.000 C 
BRANCH  18  19
ATOM     19  C   UNL     1       0.707  12.456  18.983  0.00  0.00    +0.000 C 
BRANCH  19  20
ATOM     20  C   UNL     1      -0.287  13.401  18.360  0.00  0.00    +0.000 C 
ATOM     21  O   UNL     1      -0.371  14.597  18.593  0.00  0.00    +0.000 OA
BRANCH  20  22
ATOM     22  O   UNL     1      -1.101  12.779  17.475  0.00  0.00    +0.000 OA
ATOM     23  H   UNL     1      -1.115  13.194  16.592  0.00  0.00    +0.000 HD
ENDBRANCH  20  22
ENDBRANCH  19  20
ENDBRANCH  18  19
ENDBRANCH   4  18
TORSDOF 8
ENDMDL
MODEL 7
REMARK VINA RESULT:      -6.5      3.667      6.359
REMARK  Name = 
REMARK  9 active torsions:
REMARK  status: ('A' for Active; 'I' for Inactive)
REMARK    1  A    between atoms: C_1  and  N_2
REMARK    2  A    between atoms: N_2  and  C_3
REMARK    3  A    between atoms: C_3  and  C_4
REMARK    4  A    between atoms: C_4  and  O_5
REMARK    5  A    between atoms: O_5  and  C_6
REMARK    6  A    between atoms: C_9  and  C_10
REMARK    7  A    between atoms: C_10  and  C_11
REMARK    8  A    between atoms: C_11  and  C_12
REMARK    9  A    between atoms: C_12  and  O_14
REMARK                            x       y       z     vdW  Elec       q    Type
REMARK                         _______ _______ _______ _____ _____    ______ ____
ROOT
ATOM      1  C   UNL     1       2.347   5.404  18.655  0.00  0.00    +0.000 A 
ATOM      2  C   UNL     1       2.583   6.725  18.282  0.00  0.00    +0.000 A 
ATOM      3  C   UNL     1       2.286   7.780  19.137  0.00  0.00    +0.000 A 
ATOM      4  C   UNL     1       1.716   7.544  20.392  0.00  0.00    +0.000 A 
ATOM      5  C   UNL     1       1.475   6.219  20.777  0.00  0.00    +0.000 A 
ATOM      6  C   UNL     1       1.789   5.157  19.914  0.00  0.00    +0.000 A 
ENDROOT
BRANCH   1   7
ATOM      7  O   UNL     1       2.638   4.307  17.876  0.00  0.00    +0.000 OA
BRANCH   7   8
ATOM      8  C   UNL     1       3.449   3.312  18.528  0.00  0.00    +0.000 C 
BRANCH   8   9
ATOM      9  C   UNL     1       4.824   3.149  17.871  0.00  0.00    +0.000 C 
BRANCH   9  11
ATOM     10  C   UNL     1       5.059   4.238  15.645  0.00  0.00    +0.000 C 
ATOM     11  N   UNL     1       5.199   4.332  17.089  0.00  0.00    +0.000 N 
ATOM     12  C   UNL     1       6.159   5.192  17.622  0.00  0.00    +0.000 A 
ATOM     13  C   UNL     1       6.539   6.356  16.947  0.00  0.00    +0.000 A 
ATOM     14  C   UNL     1       7.510   7.205  17.480  0.00  0.00    +0.000 A 
ATOM     15  C   UNL     1       8.091   6.884  18.694  0.00  0.00    +0.000 A 
ATOM     16  C   UNL     1       7.659   5.732  19.324  0.00  0.00    +0.000 A 
ATOM     17  N   UNL     1       6.712   4.902  18.824  0.00  0.00    +0.000 NA
ENDBRANCH   9  11
ENDBRANCH   8   9
ENDBRANCH   7   8
ENDBRANCH   1   7
BRANCH   4  18
ATOM     18  C   UNL     1       1.412   8.714  21.297  0.00  0.00    +0.000 C 
BRANCH  18  19
ATOM     19  C   UNL     1      -0.028   8.686  21.816  0.00  0.00    +0.000 C 
BRANCH  19  20
ATOM     20  C   UNL     1      -0.431  10.012  22.408  0.00  0.00    +0.000 C 
ATOM     21  O   UNL     1      -1.013  10.906  21.814  0.00  0.00    +0.000 OA
BRANCH  20  22
ATOM     22  O   UNL     1      -0.085  10.117  23.713  0.00  0.00    +0.000 OA
ATOM     23  H   UNL     1       0.466   9.378  24.036  0.00  0.00    +0.000 HD
ENDBRANCH  20  22
ENDBRANCH  19  20
ENDBRANCH  18  19
ENDBRANCH   4  18
TORSDOF 8
ENDMDL
MODEL 8
REMARK VINA RESULT:      -6.5      3.519      6.359
REMARK  Name = 
REMARK  9 active torsions:
REMARK  status: ('A' for Active; 'I' for Inactive)
REMARK    1  A    between atoms: C_1  and  N_2
REMARK    2  A    between atoms: N_2  and  C_3
REMARK    3  A    between atoms: C_3  and  C_4
REMARK    4  A    between atoms: C_4  and  O_5
REMARK    5  A    between atoms: O_5  and  C_6
REMARK    6  A    between atoms: C_9  and  C_10
REMARK    7  A    between atoms: C_10  and  C_11
REMARK    8  A    between atoms: C_11  and  C_12
REMARK    9  A    between atoms: C_12  and  O_14
REMARK                            x       y       z     vdW  Elec       q    Type
REMARK                         _______ _______ _______ _____ _____    ______ ____
ROOT
ATOM      1  C   UNL     1       6.571   5.061  15.724  0.00  0.00    +0.000 A 
ATOM      2  C   UNL     1       5.387   4.407  15.391  0.00  0.00    +0.000 A 
ATOM      3  C   UNL     1       5.163   3.931  14.104  0.00  0.00    +0.000 A 
ATOM      4  C   UNL     1       6.113   4.120  13.097  0.00  0.00    +0.000 A 
ATOM      5  C   UNL     1       7.308   4.776  13.421  0.00  0.00    +0.000 A 
ATOM      6  C   UNL     1       7.534   5.242  14.726  0.00  0.00    +0.000 A 
ENDROOT
BRANCH   1   7
ATOM      7  O   UNL     1       6.876   5.535  16.979  0.00  0.00    +0.000 OA
BRANCH   7   8
ATOM      8  C   UNL     1       6.540   4.635  18.052  0.00  0.00    +0.000 C 
BRANCH   8   9
ATOM      9  C   UNL     1       5.504   5.226  19.015  0.00  0.00    +0.000 C 
BRANCH   9  11
ATOM     10  C   UNL     1       3.704   6.646  18.043  0.00  0.00    +0.000 C 
ATOM     11  N   UNL     1       4.176   5.317  18.398  0.00  0.00    +0.000 N 
ATOM     12  C   UNL     1       3.244   4.326  18.703  0.00  0.00    +0.000 A 
ATOM     13  C   UNL     1       1.971   4.331  18.125  0.00  0.00    +0.000 A 
ATOM     14  C   UNL     1       1.038   3.343  18.446  0.00  0.00    +0.000 A 
ATOM     15  C   UNL     1       1.391   2.350  19.342  0.00  0.00    +0.000 A 
ATOM     16  C   UNL     1       2.670   2.386  19.864  0.00  0.00    +0.000 A 
ATOM     17  N   UNL     1       3.590   3.333  19.556  0.00  0.00    +0.000 NA
ENDBRANCH   9  11
ENDBRANCH   8   9
ENDBRANCH   7   8
ENDBRANCH   1   7
BRANCH   4  18
ATOM     18  C   UNL     1       5.838   3.585  11.711  0.00  0.00    +0.000 C 
BRANCH  18  19
ATOM     19  C   UNL     1       5.482   2.096  11.726  0.00  0.00    +0.000 C 
BRANCH  19  20
ATOM     20  C   UNL     1       6.616   1.248  11.212  0.00  0.00    +0.000 C 
ATOM     21  O   UNL     1       7.724   1.658  10.902  0.00  0.00    +0.000 OA
BRANCH  20  22
ATOM     22  O   UNL     1       6.283  -0.062  11.136  0.00  0.00    +0.000 OA
ATOM     23  H   UNL     1       5.328  -0.234  11.244  0.00  0.00    +0.000 HD
ENDBRANCH  20  22
ENDBRANCH  19  20
ENDBRANCH  18  19
ENDBRANCH   4  18
TORSDOF 8
ENDMDL
MODEL 9
REMARK VINA RESULT:      -6.5      4.321      7.028
REMARK  Name = 
REMARK  9 active torsions:
REMARK  status: ('A' for Active; 'I' for Inactive)
REMARK    1  A    between atoms: C_1  and  N_2
REMARK    2  A    between atoms: N_2  and  C_3
REMARK    3  A    between atoms: C_3  and  C_4
REMARK    4  A    between atoms: C_4  and  O_5
REMARK    5  A    between atoms: O_5  and  C_6
REMARK    6  A    between atoms: C_9  and  C_10
REMARK    7  A    between atoms: C_10  and  C_11
REMARK    8  A    between atoms: C_11  and  C_12
REMARK    9  A    between atoms: C_12  and  O_14
REMARK                            x       y       z     vdW  Elec       q    Type
REMARK                         _______ _______ _______ _____ _____    ______ ____
ROOT
ATOM      1  C   UNL     1       2.353   7.484  19.411  0.00  0.00    +0.000 A 
ATOM      2  C   UNL     1       2.265   8.053  18.142  0.00  0.00    +0.000 A 
ATOM      3  C   UNL     1       1.463   9.164  17.904  0.00  0.00    +0.000 A 
ATOM      4  C   UNL     1       0.700   9.728  18.930  0.00  0.00    +0.000 A 
ATOM      5  C   UNL     1       0.781   9.163  20.209  0.00  0.00    +0.000 A 
ATOM      6  C   UNL     1       1.604   8.050  20.447  0.00  0.00    +0.000 A 
ENDROOT
BRANCH   1   7
ATOM      7  O   UNL     1       3.144   6.404  19.729  0.00  0.00    +0.000 OA
BRANCH   7   8
ATOM      8  C   UNL     1       2.419   5.177  19.935  0.00  0.00    +0.000 C 
BRANCH   8   9
ATOM      9  C   UNL     1       3.250   3.936  19.586  0.00  0.00    +0.000 C 
BRANCH   9  11
ATOM     10  C   UNL     1       2.569   2.833  17.460  0.00  0.00    +0.000 C 
ATOM     11  N   UNL     1       3.430   3.790  18.138  0.00  0.00    +0.000 N 
ATOM     12  C   UNL     1       4.689   4.065  17.604  0.00  0.00    +0.000 A 
ATOM     13  C   UNL     1       4.923   3.979  16.228  0.00  0.00    +0.000 A 
ATOM     14  C   UNL     1       6.189   4.243  15.703  0.00  0.00    +0.000 A 
ATOM     15  C   UNL     1       7.213   4.599  16.562  0.00  0.00    +0.000 A 
ATOM     16  C   UNL     1       6.915   4.688  17.908  0.00  0.00    +0.000 A 
ATOM     17  N   UNL     1       5.690   4.443  18.434  0.00  0.00    +0.000 NA
ENDBRANCH   9  11
ENDBRANCH   8   9
ENDBRANCH   7   8
ENDBRANCH   1   7
BRANCH   4  18
ATOM     18  C   UNL     1      -0.156  10.937  18.636  0.00  0.00    +0.000 C 
BRANCH  18  19
ATOM     19  C   UNL     1      -1.593  10.556  18.273  0.00  0.00    +0.000 C 
BRANCH  19  20
ATOM     20  C   UNL     1      -2.540  11.711  18.466  0.00  0.00    +0.000 C 
ATOM     21  O   UNL     1      -3.753  11.664  18.329  0.00  0.00    +0.000 OA
BRANCH  20  22
ATOM     22  O   UNL     1      -1.897  12.846  18.829  0.00  0.00    +0.000 OA
ATOM     23  H   UNL     1      -1.646  13.416  18.077  0.00  0.00    +0.000 HD
ENDBRANCH  20  22
ENDBRANCH  19  20
ENDBRANCH  18  19
ENDBRANCH   4  18
TORSDOF 8
ENDMDL
