MODEL 1
REMARK VINA RESULT:      -7.3      0.000      0.000
REMARK  Name = 
REMARK  3 active torsions:
REMARK  status: ('A' for Active; 'I' for Inactive)
REMARK    1  A    between atoms: C_2  and  C_3
REMARK    2  A    between atoms: C_5  and  C_6
REMARK    3  A    between atoms: C_18  and  S_19
REMARK                            x       y       z     vdW  Elec       q    Type
REMARK                         _______ _______ _______ _____ _____    ______ ____
ROOT
ATOM      1  C   UNL     1       5.321   5.219  15.622  0.00  0.00    +0.000 A 
ATOM      2  C   UNL     1       5.133   6.617  15.733  0.00  0.00    +0.000 A 
ATOM      3  C   UNL     1       4.529   7.187  16.857  0.00  0.00    +0.000 A 
ATOM      4  C   UNL     1       4.056   6.348  17.845  0.00  0.00    +0.000 A 
ATOM      5  C   UNL     1       4.177   4.959  17.736  0.00  0.00    +0.000 A 
ATOM      6  C   UNL     1       4.859   4.386  16.661  0.00  0.00    +0.000 A 
ATOM      7  C   UNL     1       3.164   4.335  18.707  0.00  0.00    +0.000 C 
ATOM      8  C   UNL     1       2.029   3.844  17.787  0.00  0.00    +0.000 C 
ATOM      9  C   UNL     1       0.983   2.926  18.389  0.00  0.00    +0.000 C 
ATOM     10  C   UNL     1       1.465   1.948  19.446  0.00  0.00    +0.000 C 
ATOM     11  C   UNL     1       2.618   2.408  20.326  0.00  0.00    +0.000 C 
ATOM     12  C   UNL     1       3.707   3.226  19.613  0.00  0.00    +0.000 C 
ATOM     13  C   UNL     1       2.784   5.653  19.440  0.00  0.00    +0.000 C 
ATOM     14  N   UNL     1       3.273   6.746  18.931  0.00  0.00    +0.000 NA
ENDROOT
BRANCH   1  17
ATOM     15  C   UNL     1       6.239   3.217  12.552  0.00  0.00    +0.000 A 
ATOM     16  C   UNL     1       5.449   3.516  13.646  0.00  0.00    +0.000 A 
ATOM     17  C   UNL     1       5.896   4.673  14.382  0.00  0.00    +0.000 A 
ATOM     18  C   UNL     1       7.043   5.186  13.802  0.00  0.00    +0.000 A 
ATOM     19  S   UNL     1       7.530   4.319  12.405  0.00  0.00    +0.000 S 
BRANCH  15  21
ATOM     20  N   UNL     1       5.855   1.209  10.950  0.00  0.00    +0.000 NA
ATOM     21  C   UNL     1       6.023   2.116  11.668  0.00  0.00    +0.000 C 
ENDBRANCH  15  21
ENDBRANCH   1  17
BRANCH  13  22
ATOM     22  S   UNL     1       1.738   5.727  20.819  0.00  0.00    +0.000 S 
ATOM     23  H   UNL     1       1.942   4.478  21.255  0.00  0.00    +0.000 HD
ENDBRANCH  13  22
TORSDOF 3
ENDMDL
MODEL 2
REMARK VINA RESULT:      -7.2      3.764      6.810
REMARK  Name = 
REMARK  3 active torsions:
REMARK  status: ('A' for Active; 'I' for Inactive)
REMARK    1  A    between atoms: C_2  and  C_3
REMARK    2  A    between atoms: C_5  and  C_6
REMARK    3  A    between atoms: C_18  and  S_19
REMARK                            x       y       z     vdW  Elec       q    Type
REMARK                         _______ _______ _______ _____ _____    ______ ____
ROOT
ATOM      1  C   UNL     1       2.549   8.077  17.895  0.00  0.00    +0.000 A 
ATOM      2  C   UNL     1       3.832   7.998  17.303  0.00  0.00    +0.000 A 
ATOM      3  C   UNL     1       4.465   6.770  17.090  0.00  0.00    +0.000 A 
ATOM      4  C   UNL     1       3.837   5.622  17.529  0.00  0.00    +0.000 A 
ATOM      5  C   UNL     1       2.594   5.676  18.168  0.00  0.00    +0.000 A 
ATOM      6  C   UNL     1       1.914   6.887  18.303  0.00  0.00    +0.000 A 
ATOM      7  C   UNL     1       2.416   4.354  18.931  0.00  0.00    +0.000 C 
ATOM      8  C   UNL     1       2.671   4.742  20.401  0.00  0.00    +0.000 C 
ATOM      9  C   UNL     1       2.306   3.730  21.468  0.00  0.00    +0.000 C 
ATOM     10  C   UNL     1       1.083   2.869  21.200  0.00  0.00    +0.000 C 
ATOM     11  C   UNL     1       0.799   2.523  19.745  0.00  0.00    +0.000 C 
ATOM     12  C   UNL     1       1.072   3.647  18.733  0.00  0.00    +0.000 C 
ATOM     13  C   UNL     1       3.639   3.623  18.307  0.00  0.00    +0.000 C 
ATOM     14  N   UNL     1       4.414   4.351  17.558  0.00  0.00    +0.000 NA
ENDROOT
BRANCH   1  17
ATOM     15  C   UNL     1       1.805  11.753  18.351  0.00  0.00    +0.000 A 
ATOM     16  C   UNL     1       2.583  10.688  17.940  0.00  0.00    +0.000 A 
ATOM     17  C   UNL     1       1.967   9.403  18.160  0.00  0.00    +0.000 A 
ATOM     18  C   UNL     1       0.732   9.569  18.761  0.00  0.00    +0.000 A 
ATOM     19  S   UNL     1       0.328  11.217  19.012  0.00  0.00    +0.000 S 
BRANCH  15  21
ATOM     20  N   UNL     1       2.513  14.246  18.181  0.00  0.00    +0.000 NA
ATOM     21  C   UNL     1       2.188  13.126  18.260  0.00  0.00    +0.000 C 
ENDBRANCH  15  21
ENDBRANCH   1  17
BRANCH  13  22
ATOM     22  S   UNL     1       4.025   1.959  18.600  0.00  0.00    +0.000 S 
ATOM     23  H   UNL     1       3.205   1.775  19.641  0.00  0.00    +0.000 HD
ENDBRANCH  13  22
TORSDOF 3
ENDMDL
MODEL 3
REMARK VINA RESULT:      -7.1      3.827      6.939
REMARK  Name = 
REMARK  3 active torsions:
REMARK  status: ('A' for Active; 'I' for Inactive)
REMARK    1  A    between atoms: C_2  and  C_3
REMARK    2  A    between atoms: C_5  and  C_6
REMARK    3  A    between atoms: C_18  and  S_19
REMARK                            x       y       z     vdW  Elec       q    Type
REMARK                         _______ _______ _______ _____ _____    ______ ____
ROOT
ATOM      1  C   UNL     1       2.319   8.162  17.974  0.00  0.00    +0.000 A 
ATOM      2  C   UNL     1       3.611   8.164  17.396  0.00  0.00    +0.000 A 
ATOM      3  C   UNL     1       4.316   6.978  17.177  0.00  0.00    +0.000 A 
ATOM      4  C   UNL     1       3.750   5.791  17.595  0.00  0.00    +0.000 A 
ATOM      5  C   UNL     1       2.499   5.765  18.220  0.00  0.00    +0.000 A 
ATOM      6  C   UNL     1       1.749   6.933  18.361  0.00  0.00    +0.000 A 
ATOM      7  C   UNL     1       2.390   4.426  18.965  0.00  0.00    +0.000 C 
ATOM      8  C   UNL     1       2.605   4.810  20.442  0.00  0.00    +0.000 C 
ATOM      9  C   UNL     1       2.287   3.765  21.493  0.00  0.00    +0.000 C 
ATOM     10  C   UNL     1       1.119   2.838  21.200  0.00  0.00    +0.000 C 
ATOM     11  C   UNL     1       0.872   2.494  19.739  0.00  0.00    +0.000 C 
ATOM     12  C   UNL     1       1.091   3.645  18.743  0.00  0.00    +0.000 C 
ATOM     13  C   UNL     1       3.660   3.774  18.347  0.00  0.00    +0.000 C 
ATOM     14  N   UNL     1       4.399   4.554  17.615  0.00  0.00    +0.000 NA
ENDROOT
BRANCH   1  17
ATOM     15  C   UNL     1      -0.070  11.014  18.634  0.00  0.00    +0.000 A 
ATOM     16  C   UNL     1       0.252   9.680  18.469  0.00  0.00    +0.000 A 
ATOM     17  C   UNL     1       1.658   9.449  18.247  0.00  0.00    +0.000 A 
ATOM     18  C   UNL     1       2.337  10.654  18.234  0.00  0.00    +0.000 A 
ATOM     19  S   UNL     1       1.313  12.001  18.516  0.00  0.00    +0.000 S 
BRANCH  15  21
ATOM     20  N   UNL     1      -2.475  11.917  19.020  0.00  0.00    +0.000 NA
ATOM     21  C   UNL     1      -1.391  11.512  18.852  0.00  0.00    +0.000 C 
ENDBRANCH  15  21
ENDBRANCH   1  17
BRANCH  13  22
ATOM     22  S   UNL     1       4.138   2.131  18.625  0.00  0.00    +0.000 S 
ATOM     23  H   UNL     1       4.036   1.708  17.360  0.00  0.00    +0.000 HD
ENDBRANCH  13  22
TORSDOF 3
ENDMDL
MODEL 4
REMARK VINA RESULT:      -6.5      5.544      8.107
REMARK  Name = 
REMARK  3 active torsions:
REMARK  status: ('A' for Active; 'I' for Inactive)
REMARK    1  A    between atoms: C_2  and  C_3
REMARK    2  A    between atoms: C_5  and  C_6
REMARK    3  A    between atoms: C_18  and  S_19
REMARK                            x       y       z     vdW  Elec       q    Type
REMARK                         _______ _______ _______ _____ _____    ______ ____
ROOT
ATOM      1  C   UNL     1       1.539   8.283  19.847  0.00  0.00    +0.000 A 
ATOM      2  C   UNL     1       1.077   7.926  21.136  0.00  0.00    +0.000 A 
ATOM      3  C   UNL     1       0.222   8.758  21.863  0.00  0.00    +0.000 A 
ATOM      4  C   UNL     1      -0.121   9.981  21.323  0.00  0.00    +0.000 A 
ATOM      5  C   UNL     1       0.367  10.384  20.076  0.00  0.00    +0.000 A 
ATOM      6  C   UNL     1       1.147   9.523  19.303  0.00  0.00    +0.000 A 
ATOM      7  C   UNL     1       0.208  11.910  19.996  0.00  0.00    +0.000 C 
ATOM      8  C   UNL     1       1.640  12.439  20.210  0.00  0.00    +0.000 C 
ATOM      9  C   UNL     1       1.899  13.903  19.918  0.00  0.00    +0.000 C 
ATOM     10  C   UNL     1       1.119  14.516  18.768  0.00  0.00    +0.000 C 
ATOM     11  C   UNL     1      -0.277  13.964  18.520  0.00  0.00    +0.000 C 
ATOM     12  C   UNL     1      -0.432  12.446  18.712  0.00  0.00    +0.000 C 
ATOM     13  C   UNL     1      -0.663  12.065  21.276  0.00  0.00    +0.000 C 
ATOM     14  N   UNL     1      -0.809  10.993  21.996  0.00  0.00    +0.000 NA
ENDROOT
BRANCH   1  17
ATOM     15  C   UNL     1       3.997   6.610  17.516  0.00  0.00    +0.000 A 
ATOM     16  C   UNL     1       3.220   7.669  17.945  0.00  0.00    +0.000 A 
ATOM     17  C   UNL     1       2.496   7.398  19.162  0.00  0.00    +0.000 A 
ATOM     18  C   UNL     1       2.755   6.107  19.587  0.00  0.00    +0.000 A 
ATOM     19  S   UNL     1       3.857   5.278  18.569  0.00  0.00    +0.000 S 
BRANCH  15  21
ATOM     20  N   UNL     1       5.445   6.622  15.359  0.00  0.00    +0.000 NA
ATOM     21  C   UNL     1       4.798   6.613  16.333  0.00  0.00    +0.000 C 
ENDBRANCH  15  21
ENDBRANCH   1  17
BRANCH  13  22
ATOM     22  S   UNL     1      -1.373  13.561  21.787  0.00  0.00    +0.000 S 
ATOM     23  H   UNL     1      -1.867  13.930  20.599  0.00  0.00    +0.000 HD
ENDBRANCH  13  22
TORSDOF 3
ENDMDL
MODEL 5
REMARK VINA RESULT:      -6.4      5.684      8.343
REMARK  Name = 
REMARK  3 active torsions:
REMARK  status: ('A' for Active; 'I' for Inactive)
REMARK    1  A    between atoms: C_2  and  C_3
REMARK    2  A    between atoms: C_5  and  C_6
REMARK    3  A    between atoms: C_18  and  S_19
REMARK                            x       y       z     vdW  Elec       q    Type
REMARK                         _______ _______ _______ _____ _____    ______ ____
ROOT
ATOM      1  C   UNL     1       1.441   8.389  19.926  0.00  0.00    +0.000 A 
ATOM      2  C   UNL     1       0.968   8.044  21.214  0.00  0.00    +0.000 A 
ATOM      3  C   UNL     1       0.134   8.898  21.940  0.00  0.00    +0.000 A 
ATOM      4  C   UNL     1      -0.176  10.129  21.400  0.00  0.00    +0.000 A 
ATOM      5  C   UNL     1       0.323  10.520  20.154  0.00  0.00    +0.000 A 
ATOM      6  C   UNL     1       1.082   9.639  19.382  0.00  0.00    +0.000 A 
ATOM      7  C   UNL     1       0.205  12.050  20.074  0.00  0.00    +0.000 C 
ATOM      8  C   UNL     1       1.649  12.541  20.291  0.00  0.00    +0.000 C 
ATOM      9  C   UNL     1       1.946  13.999  19.999  0.00  0.00    +0.000 C 
ATOM     10  C   UNL     1       1.184  14.631  18.848  0.00  0.00    +0.000 C 
ATOM     11  C   UNL     1      -0.226  14.116  18.598  0.00  0.00    +0.000 C 
ATOM     12  C   UNL     1      -0.419  12.603  18.789  0.00  0.00    +0.000 C 
ATOM     13  C   UNL     1      -0.664  12.227  21.353  0.00  0.00    +0.000 C 
ATOM     14  N   UNL     1      -0.838  11.159  22.073  0.00  0.00    +0.000 NA
ENDROOT
BRANCH   1  17
ATOM     15  C   UNL     1       3.816   5.640  18.888  0.00  0.00    +0.000 A 
ATOM     16  C   UNL     1       2.905   6.234  19.740  0.00  0.00    +0.000 A 
ATOM     17  C   UNL     1       2.376   7.480  19.243  0.00  0.00    +0.000 A 
ATOM     18  C   UNL     1       2.949   7.780  18.020  0.00  0.00    +0.000 A 
ATOM     19  S   UNL     1       4.051   6.579  17.486  0.00  0.00    +0.000 S 
BRANCH  15  21
ATOM     20  N   UNL     1       5.056   3.410  19.376  0.00  0.00    +0.000 NA
ATOM     21  C   UNL     1       4.496   4.412  19.151  0.00  0.00    +0.000 C 
ENDBRANCH  15  21
ENDBRANCH   1  17
BRANCH  13  22
ATOM     22  S   UNL     1      -1.336  13.741  21.863  0.00  0.00    +0.000 S 
ATOM     23  H   UNL     1      -1.139  13.580  23.177  0.00  0.00    +0.000 HD
ENDBRANCH  13  22
TORSDOF 3
ENDMDL
MODEL 6
REMARK VINA RESULT:      -6.3      4.553      7.555
REMARK  Name = 
REMARK  3 active torsions:
REMARK  status: ('A' for Active; 'I' for Inactive)
REMARK    1  A    between atoms: C_2  and  C_3
REMARK    2  A    between atoms: C_5  and  C_6
REMARK    3  A    between atoms: C_18  and  S_19
REMARK                            x       y       z     vdW  Elec       q    Type
REMARK                         _______ _______ _______ _____ _____    ______ ____
ROOT
ATOM      1  C   UNL     1       1.054   9.096  17.970  0.00  0.00    +0.000 A 
ATOM      2  C   UNL     1       2.341   9.652  17.778  0.00  0.00    +0.000 A 
ATOM      3  C   UNL     1       3.472   8.845  17.630  0.00  0.00    +0.000 A 
ATOM      4  C   UNL     1       3.322   7.477  17.737  0.00  0.00    +0.000 A 
ATOM      5  C   UNL     1       2.070   6.903  17.984  0.00  0.00    +0.000 A 
ATOM      6  C   UNL     1       0.922   7.695  18.043  0.00  0.00    +0.000 A 
ATOM      7  C   UNL     1       2.316   5.482  18.513  0.00  0.00    +0.000 C 
ATOM      8  C   UNL     1       2.045   5.602  20.025  0.00  0.00    +0.000 C 
ATOM      9  C   UNL     1       1.926   4.317  20.821  0.00  0.00    +0.000 C 
ATOM     10  C   UNL     1       1.289   3.134  20.113  0.00  0.00    +0.000 C 
ATOM     11  C   UNL     1       1.513   3.037  18.611  0.00  0.00    +0.000 C 
ATOM     12  C   UNL     1       1.491   4.374  17.852  0.00  0.00    +0.000 C 
ATOM     13  C   UNL     1       3.840   5.438  18.201  0.00  0.00    +0.000 C 
ATOM     14  N   UNL     1       4.369   6.555  17.797  0.00  0.00    +0.000 NA
ENDROOT
BRANCH   1  17
ATOM     15  C   UNL     1      -2.194  11.024  17.888  0.00  0.00    +0.000 A 
ATOM     16  C   UNL     1      -1.346  10.007  17.492  0.00  0.00    +0.000 A 
ATOM     17  C   UNL     1      -0.086  10.000  18.194  0.00  0.00    +0.000 A 
ATOM     18  C   UNL     1      -0.040  11.053  19.089  0.00  0.00    +0.000 A 
ATOM     19  S   UNL     1      -1.480  11.985  19.100  0.00  0.00    +0.000 S 
BRANCH  15  21
ATOM     20  N   UNL     1      -4.553  11.468  16.894  0.00  0.00    +0.000 NA
ATOM     21  C   UNL     1      -3.492  11.262  17.340  0.00  0.00    +0.000 C 
ENDBRANCH  15  21
ENDBRANCH   1  17
BRANCH  13  22
ATOM     22  S   UNL     1       4.831   4.032  18.413  0.00  0.00    +0.000 S 
ATOM     23  H   UNL     1       6.006   4.665  18.510  0.00  0.00    +0.000 HD
ENDBRANCH  13  22
TORSDOF 3
ENDMDL
MODEL 7
REMARK VINA RESULT:      -6.2      6.170      9.138
REMARK  Name = 
REMARK  3 active torsions:
REMARK  status: ('A' for Active; 'I' for Inactive)
REMARK    1  A    between atoms: C_2  and  C_3
REMARK    2  A    between atoms: C_5  and  C_6
REMARK    3  A    between atoms: C_18  and  S_19
REMARK                            x       y       z     vdW  Elec       q    Type
REMARK                         _______ _______ _______ _____ _____    ______ ____
ROOT
ATOM      1  C   UNL     1       0.927   8.789  20.849  0.00  0.00    +0.000 A 
ATOM      2  C   UNL     1       0.615   8.661  22.223  0.00  0.00    +0.000 A 
ATOM      3  C   UNL     1       0.010   9.700  22.936  0.00  0.00    +0.000 A 
ATOM      4  C   UNL     1      -0.225  10.894  22.284  0.00  0.00    +0.000 A 
ATOM      5  C   UNL     1       0.125  11.067  20.942  0.00  0.00    +0.000 A 
ATOM      6  C   UNL     1       0.645  10.007  20.198  0.00  0.00    +0.000 A 
ATOM      7  C   UNL     1       0.183  12.579  20.677  0.00  0.00    +0.000 C 
ATOM      8  C   UNL     1       1.693  12.885  20.630  0.00  0.00    +0.000 C 
ATOM      9  C   UNL     1       2.119  14.244  20.111  0.00  0.00    +0.000 C 
ATOM     10  C   UNL     1       1.275  14.843  19.000  0.00  0.00    +0.000 C 
ATOM     11  C   UNL     1      -0.209  14.505  19.013  0.00  0.00    +0.000 C 
ATOM     12  C   UNL     1      -0.555  13.065  19.427  0.00  0.00    +0.000 C 
ATOM     13  C   UNL     1      -0.454  13.020  22.026  0.00  0.00    +0.000 C 
ATOM     14  N   UNL     1      -0.647  12.075  22.898  0.00  0.00    +0.000 NA
ENDROOT
BRANCH   1  17
ATOM     15  C   UNL     1       2.584   5.554  19.819  0.00  0.00    +0.000 A 
ATOM     16  C   UNL     1       1.822   6.343  20.659  0.00  0.00    +0.000 A 
ATOM     17  C   UNL     1       1.630   7.687  20.172  0.00  0.00    +0.000 A 
ATOM     18  C   UNL     1       2.293   7.852  18.970  0.00  0.00    +0.000 A 
ATOM     19  S   UNL     1       3.083   6.423  18.442  0.00  0.00    +0.000 S 
BRANCH  15  21
ATOM     20  N   UNL     1       3.210   3.077  20.291  0.00  0.00    +0.000 NA
ATOM     21  C   UNL     1       2.933   4.193  20.075  0.00  0.00    +0.000 C 
ENDBRANCH  15  21
ENDBRANCH   1  17
BRANCH  13  22
ATOM     22  S   UNL     1      -0.851  14.661  22.418  0.00  0.00    +0.000 S 
ATOM     23  H   UNL     1      -0.827  15.145  21.171  0.00  0.00    +0.000 HD
ENDBRANCH  13  22
TORSDOF 3
ENDMDL
MODEL 8
REMARK VINA RESULT:      -6.1     10.872     13.071
REMARK  Name = 
REMARK  3 active torsions:
REMARK  status: ('A' for Active; 'I' for Inactive)
REMARK    1  A    between atoms: C_2  and  C_3
REMARK    2  A    between atoms: C_5  and  C_6
REMARK    3  A    between atoms: C_18  and  S_19
REMARK                            x       y       z     vdW  Elec       q    Type
REMARK                         _______ _______ _______ _____ _____    ______ ____
ROOT
ATOM      1  C   UNL     1      -5.174  11.608  18.885  0.00  0.00    +0.000 A 
ATOM      2  C   UNL     1      -6.392  10.892  18.970  0.00  0.00    +0.000 A 
ATOM      3  C   UNL     1      -7.367  11.218  19.916  0.00  0.00    +0.000 A 
ATOM      4  C   UNL     1      -7.094  12.223  20.822  0.00  0.00    +0.000 A 
ATOM      5  C   UNL     1      -5.876  12.909  20.797  0.00  0.00    +0.000 A 
ATOM      6  C   UNL     1      -4.934  12.653  19.800  0.00  0.00    +0.000 A 
ATOM      7  C   UNL     1      -5.703  13.581  22.167  0.00  0.00    +0.000 C 
ATOM      8  C   UNL     1      -4.662  12.696  22.881  0.00  0.00    +0.000 C 
ATOM      9  C   UNL     1      -4.047  13.228  24.161  0.00  0.00    +0.000 C 
ATOM     10  C   UNL     1      -3.822  14.728  24.236  0.00  0.00    +0.000 C 
ATOM     11  C   UNL     1      -4.819  15.605  23.493  0.00  0.00    +0.000 C 
ATOM     12  C   UNL     1      -5.299  15.058  22.138  0.00  0.00    +0.000 C 
ATOM     13  C   UNL     1      -7.145  13.307  22.683  0.00  0.00    +0.000 C 
ATOM     14  N   UNL     1      -7.879  12.540  21.933  0.00  0.00    +0.000 NA
ENDROOT
BRANCH   1  17
ATOM     15  C   UNL     1      -3.204  10.454  15.875  0.00  0.00    +0.000 A 
ATOM     16  C   UNL     1      -4.340  10.921  16.507  0.00  0.00    +0.000 A 
ATOM     17  C   UNL     1      -4.156  11.170  17.916  0.00  0.00    +0.000 A 
ATOM     18  C   UNL     1      -2.863  10.847  18.286  0.00  0.00    +0.000 A 
ATOM     19  S   UNL     1      -1.908  10.302  16.970  0.00  0.00    +0.000 S 
BRANCH  15  21
ATOM     20  N   UNL     1      -3.047   9.837  13.356  0.00  0.00    +0.000 NA
ATOM     21  C   UNL     1      -3.123  10.118  14.489  0.00  0.00    +0.000 C 
ENDBRANCH  15  21
ENDBRANCH   1  17
BRANCH  13  22
ATOM     22  S   UNL     1      -7.769  13.913  24.182  0.00  0.00    +0.000 S 
ATOM     23  H   UNL     1      -8.737  13.004  24.344  0.00  0.00    +0.000 HD
ENDBRANCH  13  22
TORSDOF 3
ENDMDL
MODEL 9
REMARK VINA RESULT:      -6.0      9.971     13.332
REMARK  Name = 
REMARK  3 active torsions:
REMARK  status: ('A' for Active; 'I' for Inactive)
REMARK    1  A    between atoms: C_2  and  C_3
REMARK    2  A    between atoms: C_5  and  C_6
REMARK    3  A    between atoms: C_18  and  S_19
REMARK                            x       y       z     vdW  Elec       q    Type
REMARK                         _______ _______ _______ _____ _____    ______ ____
ROOT
ATOM      1  C   UNL     1       8.975  12.251  21.783  0.00  0.00    +0.000 A 
ATOM      2  C   UNL     1       9.001  10.992  21.137  0.00  0.00    +0.000 A 
ATOM      3  C   UNL     1       9.795  10.765  20.009  0.00  0.00    +0.000 A 
ATOM      4  C   UNL     1      10.516  11.821  19.490  0.00  0.00    +0.000 A 
ATOM      5  C   UNL     1      10.465  13.090  20.075  0.00  0.00    +0.000 A 
ATOM      6  C   UNL     1       9.748  13.304  21.253  0.00  0.00    +0.000 A 
ATOM      7  C   UNL     1      10.957  14.097  19.025  0.00  0.00    +0.000 C 
ATOM      8  C   UNL     1       9.665  14.778  18.535  0.00  0.00    +0.000 C 
ATOM      9  C   UNL     1       9.806  16.027  17.688  0.00  0.00    +0.000 C 
ATOM     10  C   UNL     1      10.968  16.946  18.019  0.00  0.00    +0.000 C 
ATOM     11  C   UNL     1      12.232  16.284  18.549  0.00  0.00    +0.000 C 
ATOM     12  C   UNL     1      12.006  15.103  19.508  0.00  0.00    +0.000 C 
ATOM     13  C   UNL     1      11.480  13.046  18.003  0.00  0.00    +0.000 C 
ATOM     14  N   UNL     1      11.204  11.805  18.275  0.00  0.00    +0.000 NA
ENDROOT
BRANCH   1  17
ATOM     15  C   UNL     1       6.887  11.998  24.922  0.00  0.00    +0.000 A 
ATOM     16  C   UNL     1       7.865  11.566  24.046  0.00  0.00    +0.000 A 
ATOM     17  C   UNL     1       8.063  12.448  22.922  0.00  0.00    +0.000 A 
ATOM     18  C   UNL     1       7.186  13.515  23.000  0.00  0.00    +0.000 A 
ATOM     19  S   UNL     1       6.194  13.463  24.397  0.00  0.00    +0.000 S 
BRANCH  15  21
ATOM     20  N   UNL     1       6.155  10.742  27.075  0.00  0.00    +0.000 NA
ATOM     21  C   UNL     1       6.488  11.302  26.104  0.00  0.00    +0.000 C 
ENDBRANCH  15  21
ENDBRANCH   1  17
BRANCH  13  22
ATOM     22  S   UNL     1      12.333  13.450  16.550  0.00  0.00    +0.000 S 
ATOM     23  H   UNL     1      12.622  12.201  16.169  0.00  0.00    +0.000 HD
ENDBRANCH  13  22
TORSDOF 3
ENDMDL
