MODEL 1
REMARK VINA RESULT:      -7.0      0.000      0.000
REMARK  Name = 
REMARK  13 active torsions:
REMARK  status: ('A' for Active; 'I' for Inactive)
REMARK    1  A    between atoms: C_1  and  C_2
REMARK    2  A    between atoms: C_2  and  C_3
REMARK    3  A    between atoms: C_3  and  N_4
REMARK    4  A    between atoms: N_4  and  C_5
REMARK    5  A    between atoms: N_4  and  C_24
REMARK    6  A    between atoms: C_5  and  C_6
REMARK    7  A    between atoms: C_6  and  C_7
REMARK    8  A    between atoms: C_7  and  C_8
REMARK    9  A    between atoms: C_8  and  N_9
REMARK   10  A    between atoms: C_10  and  C_12
REMARK   11  A    between atoms: C_15  and  C_16
REMARK   12  A    between atoms: C_24  and  C_25
REMARK   13  A    between atoms: C_27  and  C_28
REMARK                            x       y       z     vdW  Elec       q    Type
REMARK                         _______ _______ _______ _____ _____    ______ ____
ROOT
ATOM      1  C   UNL     1      -2.656  10.158  16.774  0.00  0.00    +0.000 C 
ENDROOT
BRANCH   1   2
ATOM      2  C   UNL     1      -2.109  10.141  18.193  0.00  0.00    +0.000 C 
BRANCH   2   3
ATOM      3  C   UNL     1      -0.727  10.807  18.332  0.00  0.00    +0.000 C 
BRANCH   3   4
ATOM      4  N   UNL     1       0.252  10.047  19.133  0.00  0.00    +0.000 NA
BRANCH   4   5
ATOM      5  C   UNL     1       0.498  10.651  20.458  0.00  0.00    +0.000 C 
BRANCH   5   7
ATOM      6  C   UNL     1      -0.191   8.483  21.644  0.00  0.00    +0.000 C 
ATOM      7  C   UNL     1       0.752   9.677  21.624  0.00  0.00    +0.000 C 
ENDBRANCH   5   7
ENDBRANCH   4   5
BRANCH   4   8
ATOM      8  C   UNL     1       1.489   9.878  18.351  0.00  0.00    +0.000 C 
BRANCH   8   9
ATOM      9  C   UNL     1       1.731   8.468  17.925  0.00  0.00    +0.000 C 
ATOM     10  C   UNL     1       3.100   8.050  17.460  0.00  0.00    +0.000 C 
ATOM     11  C   UNL     1       2.593   7.575  18.799  0.00  0.00    +0.000 C 
BRANCH  11  12
ATOM     12  C   UNL     1       2.259   6.119  19.003  0.00  0.00    +0.000 A 
ATOM     13  C   UNL     1       2.313   5.222  17.924  0.00  0.00    +0.000 A 
ATOM     14  C   UNL     1       2.026   3.864  18.090  0.00  0.00    +0.000 A 
ATOM     15  C   UNL     1       1.674   3.380  19.347  0.00  0.00    +0.000 A 
ATOM     16 CL   UNL     1       1.299   1.717  19.555  0.00  0.00    +0.000 Cl
ATOM     17  C   UNL     1       1.624   4.241  20.436  0.00  0.00    +0.000 A 
ATOM     18  C   UNL     1       1.919   5.594  20.262  0.00  0.00    +0.000 A 
ENDBRANCH  11  12
ENDBRANCH   8   9
ENDBRANCH   4   8
ENDBRANCH   3   4
ENDBRANCH   2   3
ENDBRANCH   1   2
BRANCH   1  19
ATOM     19  C   UNL     1      -3.909  11.010  16.661  0.00  0.00    +0.000 C 
BRANCH  19  20
ATOM     20  N   UNL     1      -4.021  11.906  17.777  0.00  0.00    +0.000 N 
ATOM     21  C   UNL     1      -5.105  11.878  18.623  0.00  0.00    +0.000 C 
ATOM     22  O   UNL     1      -6.039  11.093  18.529  0.00  0.00    +0.000 OA
ATOM     23  H   UNL     1      -3.192  12.415  18.055  0.00  0.00    +0.000 HD
BRANCH  21  24
ATOM     24  C   UNL     1      -5.051  12.871  19.719  0.00  0.00    +0.000 A 
ATOM     25  C   UNL     1      -3.859  13.109  20.408  0.00  0.00    +0.000 A 
ATOM     26  C   UNL     1      -3.844  14.003  21.474  0.00  0.00    +0.000 A 
ATOM     27  C   UNL     1      -5.003  14.695  21.867  0.00  0.00    +0.000 A 
ATOM     28  C   UNL     1      -6.185  14.461  21.134  0.00  0.00    +0.000 A 
ATOM     29  C   UNL     1      -6.212  13.562  20.066  0.00  0.00    +0.000 A 
BRANCH  27  30
ATOM     30  C   UNL     1      -4.955  15.616  23.017  0.00  0.00    +0.000 A 
ATOM     31  C   UNL     1      -3.968  15.548  24.002  0.00  0.00    +0.000 A 
ATOM     32  C   UNL     1      -3.996  16.459  25.056  0.00  0.00    +0.000 A 
ATOM     33  C   UNL     1      -5.007  17.410  25.104  0.00  0.00    +0.000 A 
ATOM     34  C   UNL     1      -5.950  17.415  24.097  0.00  0.00    +0.000 A 
ATOM     35  N   UNL     1      -5.945  16.544  23.064  0.00  0.00    +0.000 NA
ENDBRANCH  27  30
ENDBRANCH  21  24
ENDBRANCH  19  20
ENDBRANCH   1  19
TORSDOF 12
ENDMDL
MODEL 2
REMARK VINA RESULT:      -7.0      6.869     11.695
REMARK  Name = 
REMARK  13 active torsions:
REMARK  status: ('A' for Active; 'I' for Inactive)
REMARK    1  A    between atoms: C_1  and  C_2
REMARK    2  A    between atoms: C_2  and  C_3
REMARK    3  A    between atoms: C_3  and  N_4
REMARK    4  A    between atoms: N_4  and  C_5
REMARK    5  A    between atoms: N_4  and  C_24
REMARK    6  A    between atoms: C_5  and  C_6
REMARK    7  A    between atoms: C_6  and  C_7
REMARK    8  A    between atoms: C_7  and  C_8
REMARK    9  A    between atoms: C_8  and  N_9
REMARK   10  A    between atoms: C_10  and  C_12
REMARK   11  A    between atoms: C_15  and  C_16
REMARK   12  A    between atoms: C_24  and  C_25
REMARK   13  A    between atoms: C_27  and  C_28
REMARK                            x       y       z     vdW  Elec       q    Type
REMARK                         _______ _______ _______ _____ _____    ______ ____
ROOT
ATOM      1  C   UNL     1       7.313   5.834  19.696  0.00  0.00    +0.000 C 
ENDROOT
BRANCH   1   2
ATOM      2  C   UNL     1       6.233   4.826  19.337  0.00  0.00    +0.000 C 
BRANCH   2   3
ATOM      3  C   UNL     1       5.686   4.988  17.906  0.00  0.00    +0.000 C 
BRANCH   3   4
ATOM      4  N   UNL     1       4.224   4.826  17.776  0.00  0.00    +0.000 NA
BRANCH   4   5
ATOM      5  C   UNL     1       3.848   3.746  16.843  0.00  0.00    +0.000 C 
BRANCH   5   7
ATOM      6  C   UNL     1       3.335   1.754  18.376  0.00  0.00    +0.000 C 
ATOM      7  C   UNL     1       2.800   2.735  17.343  0.00  0.00    +0.000 C 
ENDBRANCH   5   7
ENDBRANCH   4   5
BRANCH   4   8
ATOM      8  C   UNL     1       3.626   6.122  17.411  0.00  0.00    +0.000 C 
BRANCH   8   9
ATOM      9  C   UNL     1       2.422   6.468  18.223  0.00  0.00    +0.000 C 
ATOM     10  C   UNL     1       2.151   5.738  19.511  0.00  0.00    +0.000 C 
ATOM     11  C   UNL     1       2.610   7.175  19.553  0.00  0.00    +0.000 C 
BRANCH  11  12
ATOM     12  C   UNL     1       1.661   8.255  20.007  0.00  0.00    +0.000 A 
ATOM     13  C   UNL     1       1.217   8.292  21.339  0.00  0.00    +0.000 A 
ATOM     14  C   UNL     1       0.352   9.292  21.792  0.00  0.00    +0.000 A 
ATOM     15  C   UNL     1      -0.087  10.277  20.911  0.00  0.00    +0.000 A 
ATOM     16 CL   UNL     1      -1.167  11.498  21.453  0.00  0.00    +0.000 Cl
ATOM     17  C   UNL     1       0.345  10.275  19.591  0.00  0.00    +0.000 A 
ATOM     18  C   UNL     1       1.214   9.275  19.150  0.00  0.00    +0.000 A 
ENDBRANCH  11  12
ENDBRANCH   8   9
ENDBRANCH   4   8
ENDBRANCH   3   4
ENDBRANCH   2   3
ENDBRANCH   1   2
BRANCH   1  19
ATOM     19  C   UNL     1       8.054   6.332  18.466  0.00  0.00    +0.000 C 
BRANCH  19  20
ATOM     20  N   UNL     1       8.554   7.661  18.672  0.00  0.00    +0.000 N 
ATOM     21  C   UNL     1       7.970   8.755  18.077  0.00  0.00    +0.000 C 
ATOM     22  O   UNL     1       6.982   8.710  17.357  0.00  0.00    +0.000 OA
ATOM     23  H   UNL     1       9.210   7.804  19.429  0.00  0.00    +0.000 HD
BRANCH  21  24
ATOM     24  C   UNL     1       8.617  10.047  18.403  0.00  0.00    +0.000 A 
ATOM     25  C   UNL     1       8.352  11.188  17.642  0.00  0.00    +0.000 A 
ATOM     26  C   UNL     1       9.015  12.378  17.928  0.00  0.00    +0.000 A 
ATOM     27  C   UNL     1       9.937  12.467  18.986  0.00  0.00    +0.000 A 
ATOM     28  C   UNL     1      10.161  11.309  19.758  0.00  0.00    +0.000 A 
ATOM     29  C   UNL     1       9.505  10.109  19.476  0.00  0.00    +0.000 A 
BRANCH  27  30
ATOM     30  C   UNL     1      10.639  13.737  19.243  0.00  0.00    +0.000 A 
ATOM     31  C   UNL     1      10.295  14.595  20.289  0.00  0.00    +0.000 A 
ATOM     32  C   UNL     1      11.012  15.777  20.462  0.00  0.00    +0.000 A 
ATOM     33  C   UNL     1      12.051  16.075  19.590  0.00  0.00    +0.000 A 
ATOM     34  C   UNL     1      12.332  15.180  18.578  0.00  0.00    +0.000 A 
ATOM     35  N   UNL     1      11.653  14.028  18.388  0.00  0.00    +0.000 NA
ENDBRANCH  27  30
ENDBRANCH  21  24
ENDBRANCH  19  20
ENDBRANCH   1  19
TORSDOF 12
ENDMDL
MODEL 3
REMARK VINA RESULT:      -6.8      6.149     11.186
REMARK  Name = 
REMARK  13 active torsions:
REMARK  status: ('A' for Active; 'I' for Inactive)
REMARK    1  A    between atoms: C_1  and  C_2
REMARK    2  A    between atoms: C_2  and  C_3
REMARK    3  A    between atoms: C_3  and  N_4
REMARK    4  A    between atoms: N_4  and  C_5
REMARK    5  A    between atoms: N_4  and  C_24
REMARK    6  A    between atoms: C_5  and  C_6
REMARK    7  A    between atoms: C_6  and  C_7
REMARK    8  A    between atoms: C_7  and  C_8
REMARK    9  A    between atoms: C_8  and  N_9
REMARK   10  A    between atoms: C_10  and  C_12
REMARK   11  A    between atoms: C_15  and  C_16
REMARK   12  A    between atoms: C_24  and  C_25
REMARK   13  A    between atoms: C_27  and  C_28
REMARK                            x       y       z     vdW  Elec       q    Type
REMARK                         _______ _______ _______ _____ _____    ______ ____
ROOT
ATOM      1  C   UNL     1       6.142   4.931  15.560  0.00  0.00    +0.000 C 
ENDROOT
BRANCH   1   2
ATOM      2  C   UNL     1       4.779   5.297  16.129  0.00  0.00    +0.000 C 
BRANCH   2   3
ATOM      3  C   UNL     1       4.157   4.193  17.005  0.00  0.00    +0.000 C 
BRANCH   3   4
ATOM      4  N   UNL     1       3.143   4.662  17.969  0.00  0.00    +0.000 NA
BRANCH   4   5
ATOM      5  C   UNL     1       1.799   4.114  17.697  0.00  0.00    +0.000 C 
BRANCH   5   7
ATOM      6  C   UNL     1       1.005   3.282  19.991  0.00  0.00    +0.000 C 
ATOM      7  C   UNL     1       1.356   2.915  18.556  0.00  0.00    +0.000 C 
ENDBRANCH   5   7
ENDBRANCH   4   5
BRANCH   4   8
ATOM      8  C   UNL     1       3.156   6.134  18.006  0.00  0.00    +0.000 C 
BRANCH   8   9
ATOM      9  C   UNL     1       2.016   6.717  18.774  0.00  0.00    +0.000 C 
ATOM     10  C   UNL     1       2.089   6.805  20.274  0.00  0.00    +0.000 C 
ATOM     11  C   UNL     1       2.198   8.064  19.450  0.00  0.00    +0.000 C 
BRANCH  11  12
ATOM     12  C   UNL     1       1.086   9.082  19.481  0.00  0.00    +0.000 A 
ATOM     13  C   UNL     1       0.607   9.644  18.287  0.00  0.00    +0.000 A 
ATOM     14  C   UNL     1      -0.435  10.576  18.285  0.00  0.00    +0.000 A 
ATOM     15  C   UNL     1      -1.016  10.964  19.490  0.00  0.00    +0.000 A 
ATOM     16 CL   UNL     1      -2.283  12.125  19.499  0.00  0.00    +0.000 Cl
ATOM     17  C   UNL     1      -0.573  10.417  20.687  0.00  0.00    +0.000 A 
ATOM     18  C   UNL     1       0.464   9.482  20.677  0.00  0.00    +0.000 A 
ENDBRANCH  11  12
ENDBRANCH   8   9
ENDBRANCH   4   8
ENDBRANCH   3   4
ENDBRANCH   2   3
ENDBRANCH   1   2
BRANCH   1  19
ATOM     19  C   UNL     1       7.230   4.988  16.620  0.00  0.00    +0.000 C 
BRANCH  19  20
ATOM     20  N   UNL     1       7.621   6.344  16.880  0.00  0.00    +0.000 N 
ATOM     21  C   UNL     1       7.755   6.827  18.160  0.00  0.00    +0.000 C 
ATOM     22  O   UNL     1       7.587   6.162  19.174  0.00  0.00    +0.000 OA
ATOM     23  H   UNL     1       8.001   6.878  16.110  0.00  0.00    +0.000 HD
BRANCH  21  24
ATOM     24  C   UNL     1       8.167   8.246  18.239  0.00  0.00    +0.000 A 
ATOM     25  C   UNL     1       9.081   8.670  19.208  0.00  0.00    +0.000 A 
ATOM     26  C   UNL     1       9.410  10.019  19.303  0.00  0.00    +0.000 A 
ATOM     27  C   UNL     1       8.857  10.972  18.429  0.00  0.00    +0.000 A 
ATOM     28  C   UNL     1       7.963  10.512  17.441  0.00  0.00    +0.000 A 
ATOM     29  C   UNL     1       7.623   9.162  17.340  0.00  0.00    +0.000 A 
BRANCH  27  30
ATOM     30  C   UNL     1       9.209  12.395  18.576  0.00  0.00    +0.000 A 
ATOM     31  C   UNL     1       9.900  13.111  17.596  0.00  0.00    +0.000 A 
ATOM     32  C   UNL     1      10.192  14.456  17.816  0.00  0.00    +0.000 A 
ATOM     33  C   UNL     1       9.792  15.052  19.005  0.00  0.00    +0.000 A 
ATOM     34  C   UNL     1       9.116  14.281  19.929  0.00  0.00    +0.000 A 
ATOM     35  N   UNL     1       8.820  12.976  19.740  0.00  0.00    +0.000 NA
ENDBRANCH  27  30
ENDBRANCH  21  24
ENDBRANCH  19  20
ENDBRANCH   1  19
TORSDOF 12
ENDMDL
MODEL 4
REMARK VINA RESULT:      -6.7      3.361     10.598
REMARK  Name = 
REMARK  13 active torsions:
REMARK  status: ('A' for Active; 'I' for Inactive)
REMARK    1  A    between atoms: C_1  and  C_2
REMARK    2  A    between atoms: C_2  and  C_3
REMARK    3  A    between atoms: C_3  and  N_4
REMARK    4  A    between atoms: N_4  and  C_5
REMARK    5  A    between atoms: N_4  and  C_24
REMARK    6  A    between atoms: C_5  and  C_6
REMARK    7  A    between atoms: C_6  and  C_7
REMARK    8  A    between atoms: C_7  and  C_8
REMARK    9  A    between atoms: C_8  and  N_9
REMARK   10  A    between atoms: C_10  and  C_12
REMARK   11  A    between atoms: C_15  and  C_16
REMARK   12  A    between atoms: C_24  and  C_25
REMARK   13  A    between atoms: C_27  and  C_28
REMARK                            x       y       z     vdW  Elec       q    Type
REMARK                         _______ _______ _______ _____ _____    ______ ____
ROOT
ATOM      1  C   UNL     1      -0.107  11.559  21.294  0.00  0.00    +0.000 C 
ENDROOT
BRANCH   1   2
ATOM      2  C   UNL     1      -0.843  11.765  22.609  0.00  0.00    +0.000 C 
BRANCH   2   3
ATOM      3  C   UNL     1      -1.247  13.229  22.869  0.00  0.00    +0.000 C 
BRANCH   3   4
ATOM      4  N   UNL     1      -2.677  13.435  23.175  0.00  0.00    +0.000 NA
BRANCH   4   5
ATOM      5  C   UNL     1      -3.299  12.261  23.821  0.00  0.00    +0.000 C 
BRANCH   5   7
ATOM      6  C   UNL     1      -5.799  12.319  24.392  0.00  0.00    +0.000 C 
ATOM      7  C   UNL     1      -4.376  12.548  24.882  0.00  0.00    +0.000 C 
ENDBRANCH   5   7
ENDBRANCH   4   5
BRANCH   4   8
ATOM      8  C   UNL     1      -3.379  13.843  21.947  0.00  0.00    +0.000 C 
BRANCH   8   9
ATOM      9  C   UNL     1      -3.703  12.700  21.042  0.00  0.00    +0.000 C 
ATOM     10  C   UNL     1      -5.139  12.319  20.799  0.00  0.00    +0.000 C 
ATOM     11  C   UNL     1      -4.349  12.986  19.699  0.00  0.00    +0.000 C 
BRANCH  11  12
ATOM     12  C   UNL     1      -3.972  12.206  18.465  0.00  0.00    +0.000 A 
ATOM     13  C   UNL     1      -2.631  11.861  18.229  0.00  0.00    +0.000 A 
ATOM     14  C   UNL     1      -2.255  11.123  17.103  0.00  0.00    +0.000 A 
ATOM     15  C   UNL     1      -3.223  10.718  16.188  0.00  0.00    +0.000 A 
ATOM     16 CL   UNL     1      -2.768   9.828  14.790  0.00  0.00    +0.000 Cl
ATOM     17  C   UNL     1      -4.560  11.033  16.401  0.00  0.00    +0.000 A 
ATOM     18  C   UNL     1      -4.925  11.765  17.532  0.00  0.00    +0.000 A 
ENDBRANCH  11  12
ENDBRANCH   8   9
ENDBRANCH   4   8
ENDBRANCH   3   4
ENDBRANCH   2   3
ENDBRANCH   1   2
BRANCH   1  19
ATOM     19  C   UNL     1      -0.721  10.440  20.471  0.00  0.00    +0.000 C 
BRANCH  19  20
ATOM     20  N   UNL     1       0.297   9.649  19.841  0.00  0.00    +0.000 N 
ATOM     21  C   UNL     1       0.825   8.532  20.445  0.00  0.00    +0.000 C 
ATOM     22  O   UNL     1       0.472   8.099  21.534  0.00  0.00    +0.000 OA
ATOM     23  H   UNL     1       0.469   9.804  18.856  0.00  0.00    +0.000 HD
BRANCH  21  24
ATOM     24  C   UNL     1       1.864   7.839  19.650  0.00  0.00    +0.000 A 
ATOM     25  C   UNL     1       2.315   8.378  18.443  0.00  0.00    +0.000 A 
ATOM     26  C   UNL     1       3.248   7.682  17.681  0.00  0.00    +0.000 A 
ATOM     27  C   UNL     1       3.769   6.447  18.109  0.00  0.00    +0.000 A 
ATOM     28  C   UNL     1       3.320   5.941  19.346  0.00  0.00    +0.000 A 
ATOM     29  C   UNL     1       2.380   6.630  20.115  0.00  0.00    +0.000 A 
BRANCH  27  30
ATOM     30  C   UNL     1       4.737   5.726  17.263  0.00  0.00    +0.000 A 
ATOM     31  C   UNL     1       4.459   4.488  16.680  0.00  0.00    +0.000 A 
ATOM     32  C   UNL     1       5.432   3.874  15.894  0.00  0.00    +0.000 A 
ATOM     33  C   UNL     1       6.655   4.506  15.710  0.00  0.00    +0.000 A 
ATOM     34  C   UNL     1       6.859   5.727  16.320  0.00  0.00    +0.000 A 
ATOM     35  N   UNL     1       5.933   6.344  17.087  0.00  0.00    +0.000 NA
ENDBRANCH  27  30
ENDBRANCH  21  24
ENDBRANCH  19  20
ENDBRANCH   1  19
TORSDOF 12
ENDMDL
MODEL 5
REMARK VINA RESULT:      -6.7      2.780     10.084
REMARK  Name = 
REMARK  13 active torsions:
REMARK  status: ('A' for Active; 'I' for Inactive)
REMARK    1  A    between atoms: C_1  and  C_2
REMARK    2  A    between atoms: C_2  and  C_3
REMARK    3  A    between atoms: C_3  and  N_4
REMARK    4  A    between atoms: N_4  and  C_5
REMARK    5  A    between atoms: N_4  and  C_24
REMARK    6  A    between atoms: C_5  and  C_6
REMARK    7  A    between atoms: C_6  and  C_7
REMARK    8  A    between atoms: C_7  and  C_8
REMARK    9  A    between atoms: C_8  and  N_9
REMARK   10  A    between atoms: C_10  and  C_12
REMARK   11  A    between atoms: C_15  and  C_16
REMARK   12  A    between atoms: C_24  and  C_25
REMARK   13  A    between atoms: C_27  and  C_28
REMARK                            x       y       z     vdW  Elec       q    Type
REMARK                         _______ _______ _______ _____ _____    ______ ____
ROOT
ATOM      1  C   UNL     1      -1.504  11.096  23.222  0.00  0.00    +0.000 C 
ENDROOT
BRANCH   1   2
ATOM      2  C   UNL     1      -2.725  11.982  23.421  0.00  0.00    +0.000 C 
BRANCH   2   3
ATOM      3  C   UNL     1      -2.633  13.335  22.692  0.00  0.00    +0.000 C 
BRANCH   3   4
ATOM      4  N   UNL     1      -3.927  13.898  22.258  0.00  0.00    +0.000 NA
BRANCH   4   5
ATOM      5  C   UNL     1      -4.380  15.016  23.110  0.00  0.00    +0.000 C 
BRANCH   5   7
ATOM      6  C   UNL     1      -6.733  15.979  23.451  0.00  0.00    +0.000 C 
ATOM      7  C   UNL     1      -5.757  14.859  23.781  0.00  0.00    +0.000 C 
ENDBRANCH   5   7
ENDBRANCH   4   5
BRANCH   4   8
ATOM      8  C   UNL     1      -4.921  12.814  22.174  0.00  0.00    +0.000 C 
BRANCH   8   9
ATOM      9  C   UNL     1      -5.239  12.411  20.772  0.00  0.00    +0.000 C 
ATOM     10  C   UNL     1      -5.751  13.436  19.796  0.00  0.00    +0.000 C 
ATOM     11  C   UNL     1      -4.348  12.902  19.646  0.00  0.00    +0.000 C 
BRANCH  11  12
ATOM     12  C   UNL     1      -4.001  12.015  18.477  0.00  0.00    +0.000 A 
ATOM     13  C   UNL     1      -4.863  11.932  17.371  0.00  0.00    +0.000 A 
ATOM     14  C   UNL     1      -4.557  11.131  16.267  0.00  0.00    +0.000 A 
ATOM     15  C   UNL     1      -3.376  10.395  16.254  0.00  0.00    +0.000 A 
ATOM     16 CL   UNL     1      -3.002   9.392  14.909  0.00  0.00    +0.000 Cl
ATOM     17  C   UNL     1      -2.497  10.465  17.327  0.00  0.00    +0.000 A 
ATOM     18  C   UNL     1      -2.809  11.273  18.423  0.00  0.00    +0.000 A 
ENDBRANCH  11  12
ENDBRANCH   8   9
ENDBRANCH   4   8
ENDBRANCH   3   4
ENDBRANCH   2   3
ENDBRANCH   1   2
BRANCH   1  19
ATOM     19  C   UNL     1      -0.518  11.706  22.240  0.00  0.00    +0.000 C 
BRANCH  19  20
ATOM     20  N   UNL     1       0.188  10.683  21.522  0.00  0.00    +0.000 N 
ATOM     21  C   UNL     1       0.468  10.801  20.180  0.00  0.00    +0.000 C 
ATOM     22  O   UNL     1       0.177  11.771  19.493  0.00  0.00    +0.000 OA
ATOM     23  H   UNL     1       0.661   9.971  22.063  0.00  0.00    +0.000 HD
BRANCH  21  24
ATOM     24  C   UNL     1       1.203   9.653  19.605  0.00  0.00    +0.000 A 
ATOM     25  C   UNL     1       1.615   9.667  18.271  0.00  0.00    +0.000 A 
ATOM     26  C   UNL     1       2.253   8.553  17.732  0.00  0.00    +0.000 A 
ATOM     27  C   UNL     1       2.514   7.411  18.510  0.00  0.00    +0.000 A 
ATOM     28  C   UNL     1       2.116   7.436  19.863  0.00  0.00    +0.000 A 
ATOM     29  C   UNL     1       1.471   8.547  20.411  0.00  0.00    +0.000 A 
BRANCH  27  30
ATOM     30  C   UNL     1       3.168   6.240  17.900  0.00  0.00    +0.000 A 
ATOM     31  C   UNL     1       4.378   6.322  17.208  0.00  0.00    +0.000 A 
ATOM     32  C   UNL     1       4.929   5.165  16.662  0.00  0.00    +0.000 A 
ATOM     33  C   UNL     1       4.261   3.957  16.818  0.00  0.00    +0.000 A 
ATOM     34  C   UNL     1       3.069   3.953  17.512  0.00  0.00    +0.000 A 
ATOM     35  N   UNL     1       2.513   5.060  18.051  0.00  0.00    +0.000 NA
ENDBRANCH  27  30
ENDBRANCH  21  24
ENDBRANCH  19  20
ENDBRANCH   1  19
TORSDOF 12
ENDMDL
MODEL 6
REMARK VINA RESULT:      -6.6      5.780     11.221
REMARK  Name = 
REMARK  13 active torsions:
REMARK  status: ('A' for Active; 'I' for Inactive)
REMARK    1  A    between atoms: C_1  and  C_2
REMARK    2  A    between atoms: C_2  and  C_3
REMARK    3  A    between atoms: C_3  and  N_4
REMARK    4  A    between atoms: N_4  and  C_5
REMARK    5  A    between atoms: N_4  and  C_24
REMARK    6  A    between atoms: C_5  and  C_6
REMARK    7  A    between atoms: C_6  and  C_7
REMARK    8  A    between atoms: C_7  and  C_8
REMARK    9  A    between atoms: C_8  and  N_9
REMARK   10  A    between atoms: C_10  and  C_12
REMARK   11  A    between atoms: C_15  and  C_16
REMARK   12  A    between atoms: C_24  and  C_25
REMARK   13  A    between atoms: C_27  and  C_28
REMARK                            x       y       z     vdW  Elec       q    Type
REMARK                         _______ _______ _______ _____ _____    ______ ____
ROOT
ATOM      1  C   UNL     1       3.300   3.166  16.940  0.00  0.00    +0.000 C 
ENDROOT
BRANCH   1   2
ATOM      2  C   UNL     1       2.069   3.190  17.834  0.00  0.00    +0.000 C 
BRANCH   2   3
ATOM      3  C   UNL     1       1.703   4.596  18.344  0.00  0.00    +0.000 C 
BRANCH   3   4
ATOM      4  N   UNL     1       2.717   5.228  19.211  0.00  0.00    +0.000 NA
BRANCH   4   5
ATOM      5  C   UNL     1       2.555   4.872  20.635  0.00  0.00    +0.000 C 
BRANCH   5   7
ATOM      6  C   UNL     1       1.799   2.622  21.611  0.00  0.00    +0.000 C 
ATOM      7  C   UNL     1       1.377   3.944  20.984  0.00  0.00    +0.000 C 
ENDBRANCH   5   7
ENDBRANCH   4   5
BRANCH   4   8
ATOM      8  C   UNL     1       2.704   6.684  18.987  0.00  0.00    +0.000 C 
BRANCH   8   9
ATOM      9  C   UNL     1       1.521   7.364  19.593  0.00  0.00    +0.000 C 
ATOM     10  C   UNL     1       1.552   7.772  21.042  0.00  0.00    +0.000 C 
ATOM     11  C   UNL     1       1.631   8.831  19.970  0.00  0.00    +0.000 C 
BRANCH  11  12
ATOM     12  C   UNL     1       0.478   9.781  19.764  0.00  0.00    +0.000 A 
ATOM     13  C   UNL     1      -0.143   9.879  18.508  0.00  0.00    +0.000 A 
ATOM     14  C   UNL     1      -1.225  10.738  18.294  0.00  0.00    +0.000 A 
ATOM     15  C   UNL     1      -1.704  11.520  19.342  0.00  0.00    +0.000 A 
ATOM     16 CL   UNL     1      -3.019  12.594  19.084  0.00  0.00    +0.000 Cl
ATOM     17  C   UNL     1      -1.118  11.436  20.599  0.00  0.00    +0.000 A 
ATOM     18  C   UNL     1      -0.042  10.570  20.804  0.00  0.00    +0.000 A 
ENDBRANCH  11  12
ENDBRANCH   8   9
ENDBRANCH   4   8
ENDBRANCH   3   4
ENDBRANCH   2   3
ENDBRANCH   1   2
BRANCH   1  19
ATOM     19  C   UNL     1       4.576   2.962  17.740  0.00  0.00    +0.000 C 
BRANCH  19  20
ATOM     20  N   UNL     1       5.245   4.212  17.962  0.00  0.00    +0.000 N 
ATOM     21  C   UNL     1       6.246   4.657  17.131  0.00  0.00    +0.000 C 
ATOM     22  O   UNL     1       6.635   4.063  16.133  0.00  0.00    +0.000 OA
ATOM     23  H   UNL     1       4.825   4.859  18.617  0.00  0.00    +0.000 HD
BRANCH  21  24
ATOM     24  C   UNL     1       6.822   5.966  17.511  0.00  0.00    +0.000 A 
ATOM     25  C   UNL     1       6.406   7.139  16.877  0.00  0.00    +0.000 A 
ATOM     26  C   UNL     1       7.001   8.352  17.207  0.00  0.00    +0.000 A 
ATOM     27  C   UNL     1       8.007   8.432  18.188  0.00  0.00    +0.000 A 
ATOM     28  C   UNL     1       8.385   7.238  18.835  0.00  0.00    +0.000 A 
ATOM     29  C   UNL     1       7.797   6.015  18.507  0.00  0.00    +0.000 A 
BRANCH  27  30
ATOM     30  C   UNL     1       8.633   9.730  18.494  0.00  0.00    +0.000 A 
ATOM     31  C   UNL     1       9.455   9.933  19.604  0.00  0.00    +0.000 A 
ATOM     32  C   UNL     1      10.008  11.194  19.820  0.00  0.00    +0.000 A 
ATOM     33  C   UNL     1       9.728  12.219  18.926  0.00  0.00    +0.000 A 
ATOM     34  C   UNL     1       8.905  11.945  17.852  0.00  0.00    +0.000 A 
ATOM     35  N   UNL     1       8.356  10.733  17.621  0.00  0.00    +0.000 NA
ENDBRANCH  27  30
ENDBRANCH  21  24
ENDBRANCH  19  20
ENDBRANCH   1  19
TORSDOF 12
ENDMDL
MODEL 7
REMARK VINA RESULT:      -6.5      3.512      5.305
REMARK  Name = 
REMARK  13 active torsions:
REMARK  status: ('A' for Active; 'I' for Inactive)
REMARK    1  A    between atoms: C_1  and  C_2
REMARK    2  A    between atoms: C_2  and  C_3
REMARK    3  A    between atoms: C_3  and  N_4
REMARK    4  A    between atoms: N_4  and  C_5
REMARK    5  A    between atoms: N_4  and  C_24
REMARK    6  A    between atoms: C_5  and  C_6
REMARK    7  A    between atoms: C_6  and  C_7
REMARK    8  A    between atoms: C_7  and  C_8
REMARK    9  A    between atoms: C_8  and  N_9
REMARK   10  A    between atoms: C_10  and  C_12
REMARK   11  A    between atoms: C_15  and  C_16
REMARK   12  A    between atoms: C_24  and  C_25
REMARK   13  A    between atoms: C_27  and  C_28
REMARK                            x       y       z     vdW  Elec       q    Type
REMARK                         _______ _______ _______ _____ _____    ______ ____
ROOT
ATOM      1  C   UNL     1       2.299   7.844  19.221  0.00  0.00    +0.000 C 
ENDROOT
BRANCH   1   2
ATOM      2  C   UNL     1       1.621   7.283  20.462  0.00  0.00    +0.000 C 
BRANCH   2   3
ATOM      3  C   UNL     1       1.920   5.792  20.710  0.00  0.00    +0.000 C 
BRANCH   3   4
ATOM      4  N   UNL     1       2.329   5.032  19.512  0.00  0.00    +0.000 NA
BRANCH   4   5
ATOM      5  C   UNL     1       1.503   3.829  19.289  0.00  0.00    +0.000 C 
BRANCH   5   7
ATOM      6  C   UNL     1       1.436   2.610  21.546  0.00  0.00    +0.000 C 
ATOM      7  C   UNL     1       0.646   3.350  20.475  0.00  0.00    +0.000 C 
ENDBRANCH   5   7
ENDBRANCH   4   5
BRANCH   4   8
ATOM      8  C   UNL     1       3.766   4.722  19.605  0.00  0.00    +0.000 C 
BRANCH   8   9
ATOM      9  C   UNL     1       4.569   5.298  18.485  0.00  0.00    +0.000 C 
ATOM     10  C   UNL     1       5.972   5.779  18.740  0.00  0.00    +0.000 C 
ATOM     11  C   UNL     1       5.752   4.512  17.950  0.00  0.00    +0.000 C 
BRANCH  11  12
ATOM     12  C   UNL     1       6.069   4.479  16.477  0.00  0.00    +0.000 A 
ATOM     13  C   UNL     1       7.290   4.987  16.003  0.00  0.00    +0.000 A 
ATOM     14  C   UNL     1       7.617   4.952  14.645  0.00  0.00    +0.000 A 
ATOM     15  C   UNL     1       6.719   4.406  13.732  0.00  0.00    +0.000 A 
ATOM     16 CL   UNL     1       7.103   4.378  12.058  0.00  0.00    +0.000 Cl
ATOM     17  C   UNL     1       5.508   3.884  14.171  0.00  0.00    +0.000 A 
ATOM     18  C   UNL     1       5.194   3.918  15.530  0.00  0.00    +0.000 A 
ENDBRANCH  11  12
ENDBRANCH   8   9
ENDBRANCH   4   8
ENDBRANCH   3   4
ENDBRANCH   2   3
ENDBRANCH   1   2
BRANCH   1  19
ATOM     19  C   UNL     1       1.395   8.807  18.469  0.00  0.00    +0.000 C 
BRANCH  19  20
ATOM     20  N   UNL     1       0.804   9.759  19.366  0.00  0.00    +0.000 N 
ATOM     21  C   UNL     1      -0.297  10.502  19.010  0.00  0.00    +0.000 C 
ATOM     22  O   UNL     1      -0.882  10.409  17.938  0.00  0.00    +0.000 OA
ATOM     23  H   UNL     1       1.080   9.723  20.338  0.00  0.00    +0.000 HD
BRANCH  21  24
ATOM     24  C   UNL     1      -0.773  11.432  20.059  0.00  0.00    +0.000 A 
ATOM     25  C   UNL     1      -0.160  11.464  21.314  0.00  0.00    +0.000 A 
ATOM     26  C   UNL     1      -0.659  12.304  22.305  0.00  0.00    +0.000 A 
ATOM     27  C   UNL     1      -1.763  13.142  22.068  0.00  0.00    +0.000 A 
ATOM     28  C   UNL     1      -2.342  13.113  20.783  0.00  0.00    +0.000 A 
ATOM     29  C   UNL     1      -1.852  12.271  19.783  0.00  0.00    +0.000 A 
BRANCH  27  30
ATOM     30  C   UNL     1      -2.280  13.999  23.150  0.00  0.00    +0.000 A 
ATOM     31  C   UNL     1      -1.450  14.716  24.013  0.00  0.00    +0.000 A 
ATOM     32  C   UNL     1      -2.022  15.504  25.009  0.00  0.00    +0.000 A 
ATOM     33  C   UNL     1      -3.405  15.556  25.122  0.00  0.00    +0.000 A 
ATOM     34  C   UNL     1      -4.163  14.818  24.235  0.00  0.00    +0.000 A 
ATOM     35  N   UNL     1      -3.633  14.047  23.260  0.00  0.00    +0.000 NA
ENDBRANCH  27  30
ENDBRANCH  21  24
ENDBRANCH  19  20
ENDBRANCH   1  19
TORSDOF 12
ENDMDL
MODEL 8
REMARK VINA RESULT:      -6.5      4.777     12.315
REMARK  Name = 
REMARK  13 active torsions:
REMARK  status: ('A' for Active; 'I' for Inactive)
REMARK    1  A    between atoms: C_1  and  C_2
REMARK    2  A    between atoms: C_2  and  C_3
REMARK    3  A    between atoms: C_3  and  N_4
REMARK    4  A    between atoms: N_4  and  C_5
REMARK    5  A    between atoms: N_4  and  C_24
REMARK    6  A    between atoms: C_5  and  C_6
REMARK    7  A    between atoms: C_6  and  C_7
REMARK    8  A    between atoms: C_7  and  C_8
REMARK    9  A    between atoms: C_8  and  N_9
REMARK   10  A    between atoms: C_10  and  C_12
REMARK   11  A    between atoms: C_15  and  C_16
REMARK   12  A    between atoms: C_24  and  C_25
REMARK   13  A    between atoms: C_27  and  C_28
REMARK                            x       y       z     vdW  Elec       q    Type
REMARK                         _______ _______ _______ _____ _____    ______ ____
ROOT
ATOM      1  C   UNL     1       1.766   8.399  21.149  0.00  0.00    +0.000 C 
ENDROOT
BRANCH   1   2
ATOM      2  C   UNL     1       0.739   8.943  22.130  0.00  0.00    +0.000 C 
BRANCH   2   3
ATOM      3  C   UNL     1       0.045  10.231  21.649  0.00  0.00    +0.000 C 
BRANCH   3   4
ATOM      4  N   UNL     1       0.216  10.532  20.214  0.00  0.00    +0.000 NA
BRANCH   4   5
ATOM      5  C   UNL     1       1.393  11.382  19.944  0.00  0.00    +0.000 C 
BRANCH   5   7
ATOM      6  C   UNL     1       2.541  12.667  18.043  0.00  0.00    +0.000 C 
ATOM      7  C   UNL     1       1.251  12.417  18.812  0.00  0.00    +0.000 C 
ENDBRANCH   5   7
ENDBRANCH   4   5
BRANCH   4   8
ATOM      8  C   UNL     1      -1.033  11.112  19.690  0.00  0.00    +0.000 C 
BRANCH   8   9
ATOM      9  C   UNL     1      -1.734  11.991  20.672  0.00  0.00    +0.000 C 
ATOM     10  C   UNL     1      -1.807  13.475  20.432  0.00  0.00    +0.000 C 
ATOM     11  C   UNL     1      -3.050  12.634  20.273  0.00  0.00    +0.000 C 
BRANCH  11  12
ATOM     12  C   UNL     1      -4.184  12.774  21.257  0.00  0.00    +0.000 A 
ATOM     13  C   UNL     1      -5.516  12.729  20.814  0.00  0.00    +0.000 A 
ATOM     14  C   UNL     1      -6.586  12.839  21.706  0.00  0.00    +0.000 A 
ATOM     15  C   UNL     1      -6.337  12.998  23.067  0.00  0.00    +0.000 A 
ATOM     16 CL   UNL     1      -7.646  13.154  24.168  0.00  0.00    +0.000 Cl
ATOM     17  C   UNL     1      -5.031  13.034  23.538  0.00  0.00    +0.000 A 
ATOM     18  C   UNL     1      -3.969  12.918  22.639  0.00  0.00    +0.000 A 
ENDBRANCH  11  12
ENDBRANCH   8   9
ENDBRANCH   4   8
ENDBRANCH   3   4
ENDBRANCH   2   3
ENDBRANCH   1   2
BRANCH   1  19
ATOM     19  C   UNL     1       1.396   7.010  20.656  0.00  0.00    +0.000 C 
BRANCH  19  20
ATOM     20  N   UNL     1       2.160   6.661  19.491  0.00  0.00    +0.000 N 
ATOM     21  C   UNL     1       3.102   5.660  19.516  0.00  0.00    +0.000 C 
ATOM     22  O   UNL     1       3.358   4.970  20.495  0.00  0.00    +0.000 OA
ATOM     23  H   UNL     1       1.844   7.018  18.599  0.00  0.00    +0.000 HD
BRANCH  21  24
ATOM     24  C   UNL     1       3.791   5.435  18.225  0.00  0.00    +0.000 A 
ATOM     25  C   UNL     1       3.811   4.167  17.640  0.00  0.00    +0.000 A 
ATOM     26  C   UNL     1       4.514   3.964  16.456  0.00  0.00    +0.000 A 
ATOM     27  C   UNL     1       5.193   5.017  15.817  0.00  0.00    +0.000 A 
ATOM     28  C   UNL     1       5.130   6.293  16.413  0.00  0.00    +0.000 A 
ATOM     29  C   UNL     1       4.431   6.506  17.603  0.00  0.00    +0.000 A 
BRANCH  27  30
ATOM     30  C   UNL     1       5.948   4.759  14.578  0.00  0.00    +0.000 A 
ATOM     31  C   UNL     1       5.498   3.891  13.582  0.00  0.00    +0.000 A 
ATOM     32  C   UNL     1       6.275   3.705  12.440  0.00  0.00    +0.000 A 
ATOM     33  C   UNL     1       7.479   4.385  12.321  0.00  0.00    +0.000 A 
ATOM     34  C   UNL     1       7.862   5.225  13.347  0.00  0.00    +0.000 A 
ATOM     35  N   UNL     1       7.127   5.423  14.464  0.00  0.00    +0.000 NA
ENDBRANCH  27  30
ENDBRANCH  21  24
ENDBRANCH  19  20
ENDBRANCH   1  19
TORSDOF 12
ENDMDL
MODEL 9
REMARK VINA RESULT:      -6.5      3.448      5.106
REMARK  Name = 
REMARK  13 active torsions:
REMARK  status: ('A' for Active; 'I' for Inactive)
REMARK    1  A    between atoms: C_1  and  C_2
REMARK    2  A    between atoms: C_2  and  C_3
REMARK    3  A    between atoms: C_3  and  N_4
REMARK    4  A    between atoms: N_4  and  C_5
REMARK    5  A    between atoms: N_4  and  C_24
REMARK    6  A    between atoms: C_5  and  C_6
REMARK    7  A    between atoms: C_6  and  C_7
REMARK    8  A    between atoms: C_7  and  C_8
REMARK    9  A    between atoms: C_8  and  N_9
REMARK   10  A    between atoms: C_10  and  C_12
REMARK   11  A    between atoms: C_15  and  C_16
REMARK   12  A    between atoms: C_24  and  C_25
REMARK   13  A    between atoms: C_27  and  C_28
REMARK                            x       y       z     vdW  Elec       q    Type
REMARK                         _______ _______ _______ _____ _____    ______ ____
ROOT
ATOM      1  C   UNL     1       0.903   8.259  20.836  0.00  0.00    +0.000 C 
ENDROOT
BRANCH   1   2
ATOM      2  C   UNL     1       2.178   7.497  20.509  0.00  0.00    +0.000 C 
BRANCH   2   3
ATOM      3  C   UNL     1       2.060   6.600  19.262  0.00  0.00    +0.000 C 
BRANCH   3   4
ATOM      4  N   UNL     1       1.650   5.208  19.533  0.00  0.00    +0.000 NA
BRANCH   4   5
ATOM      5  C   UNL     1       1.966   4.776  20.909  0.00  0.00    +0.000 C 
BRANCH   5   7
ATOM      6  C   UNL     1       2.659   2.397  21.574  0.00  0.00    +0.000 C 
ATOM      7  C   UNL     1       1.511   3.360  21.309  0.00  0.00    +0.000 C 
ENDBRANCH   5   7
ENDBRANCH   4   5
BRANCH   4   8
ATOM      8  C   UNL     1       2.240   4.324  18.513  0.00  0.00    +0.000 C 
BRANCH   8   9
ATOM      9  C   UNL     1       3.610   4.741  18.090  0.00  0.00    +0.000 C 
ATOM     10  C   UNL     1       4.815   4.202  18.813  0.00  0.00    +0.000 C 
ATOM     11  C   UNL     1       4.511   3.724  17.414  0.00  0.00    +0.000 C 
BRANCH  11  12
ATOM     12  C   UNL     1       5.416   4.115  16.273  0.00  0.00    +0.000 A 
ATOM     13  C   UNL     1       4.975   3.993  14.945  0.00  0.00    +0.000 A 
ATOM     14  C   UNL     1       5.786   4.364  13.870  0.00  0.00    +0.000 A 
ATOM     15  C   UNL     1       7.063   4.865  14.109  0.00  0.00    +0.000 A 
ATOM     16 CL   UNL     1       8.075   5.305  12.792  0.00  0.00    +0.000 Cl
ATOM     17  C   UNL     1       7.524   5.009  15.411  0.00  0.00    +0.000 A 
ATOM     18  C   UNL     1       6.703   4.641  16.479  0.00  0.00    +0.000 A 
ENDBRANCH  11  12
ENDBRANCH   8   9
ENDBRANCH   4   8
ENDBRANCH   3   4
ENDBRANCH   2   3
ENDBRANCH   1   2
BRANCH   1  19
ATOM     19  C   UNL     1       1.071   9.756  20.632  0.00  0.00    +0.000 C 
BRANCH  19  20
ATOM     20  N   UNL     1      -0.079  10.470  21.108  0.00  0.00    +0.000 N 
ATOM     21  C   UNL     1      -0.881  11.200  20.262  0.00  0.00    +0.000 C 
ATOM     22  O   UNL     1      -0.715  11.288  19.053  0.00  0.00    +0.000 OA
ATOM     23  H   UNL     1      -0.412  10.256  22.039  0.00  0.00    +0.000 HD
BRANCH  21  24
ATOM     24  C   UNL     1      -2.022  11.869  20.926  0.00  0.00    +0.000 A 
ATOM     25  C   UNL     1      -2.062  11.998  22.317  0.00  0.00    +0.000 A 
ATOM     26  C   UNL     1      -3.171  12.577  22.926  0.00  0.00    +0.000 A 
ATOM     27  C   UNL     1      -4.254  13.058  22.169  0.00  0.00    +0.000 A 
ATOM     28  C   UNL     1      -4.175  12.944  20.766  0.00  0.00    +0.000 A 
ATOM     29  C   UNL     1      -3.068  12.360  20.146  0.00  0.00    +0.000 A 
BRANCH  27  30
ATOM     30  C   UNL     1      -5.424  13.642  22.849  0.00  0.00    +0.000 A 
ATOM     31  C   UNL     1      -6.446  12.867  23.402  0.00  0.00    +0.000 A 
ATOM     32  C   UNL     1      -7.516  13.501  24.029  0.00  0.00    +0.000 A 
ATOM     33  C   UNL     1      -7.543  14.888  24.088  0.00  0.00    +0.000 A 
ATOM     34  C   UNL     1      -6.500  15.588  23.518  0.00  0.00    +0.000 A 
ATOM     35  N   UNL     1      -5.451  14.998  22.904  0.00  0.00    +0.000 NA
ENDBRANCH  27  30
ENDBRANCH  21  24
ENDBRANCH  19  20
ENDBRANCH   1  19
TORSDOF 12
ENDMDL
