MODEL 1
REMARK VINA RESULT:      -7.7      0.000      0.000
REMARK  Name = 
REMARK  12 active torsions:
REMARK  status: ('A' for Active; 'I' for Inactive)
REMARK    1  A    between atoms: C_1  and  C_2
REMARK    2  A    between atoms: C_2  and  C_3
REMARK    3  A    between atoms: C_3  and  C_4
REMARK    4  A    between atoms: C_4  and  N_5
REMARK    5  A    between atoms: N_5  and  C_6
REMARK    6  A    between atoms: N_5  and  C_7
REMARK    7  A    between atoms: C_7  and  C_8
REMARK    8  A    between atoms: C_9  and  C_10
REMARK    9  A    between atoms: C_15  and  O_16
REMARK   10  A    between atoms: O_16  and  C_17
REMARK   11  A    between atoms: C_17  and  C_18
REMARK   12  A    between atoms: C_26  and  O_27
REMARK                            x       y       z     vdW  Elec       q    Type
REMARK                         _______ _______ _______ _____ _____    ______ ____
ROOT
ATOM      1  C   UNL     1       1.134   9.584  19.485  0.00  0.00    +0.000 A 
ATOM      2  C   UNL     1       1.011   8.637  20.503  0.00  0.00    +0.000 A 
ATOM      3  C   UNL     1       0.222   8.876  21.756  0.00  0.00    +0.000 C 
ATOM      4  N   UNL     1       1.647   7.433  20.465  0.00  0.00    +0.000 NA
ATOM      5  C   UNL     1       2.432   7.132  19.422  0.00  0.00    +0.000 A 
ATOM      6  C   UNL     1       3.121   5.925  19.424  0.00  0.00    +0.000 A 
ATOM      7  C   UNL     1       3.989   5.570  18.387  0.00  0.00    +0.000 A 
ATOM      8  C   UNL     1       4.171   6.435  17.319  0.00  0.00    +0.000 A 
ATOM      9  C   UNL     1       3.437   7.616  17.266  0.00  0.00    +0.000 A 
ATOM     10  C   UNL     1       2.595   8.000  18.329  0.00  0.00    +0.000 A 
ATOM     11  C   UNL     1       1.917   9.231  18.380  0.00  0.00    +0.000 A 
ENDROOT
BRANCH  11  12
ATOM     12  O   UNL     1       2.026  10.164  17.376  0.00  0.00    +0.000 OA
ATOM     13  H   UNL     1       2.933  10.193  17.040  0.00  0.00    +0.000 HD
ENDBRANCH  11  12
BRANCH   1  14
ATOM     14  C   UNL     1       0.555  10.978  19.587  0.00  0.00    +0.000 C 
BRANCH  14  15
ATOM     15  N   UNL     1      -0.266  11.356  18.412  0.00  0.00    +0.000 NA
ATOM     16  C   UNL     1      -0.446  12.810  18.408  0.00  0.00    +0.000 C 
BRANCH  15  17
ATOM     17  C   UNL     1      -1.561  10.646  18.412  0.00  0.00    +0.000 C 
BRANCH  17  18
ATOM     18  C   UNL     1      -1.777   9.806  17.148  0.00  0.00    +0.000 C 
BRANCH  18  20
ATOM     19  C   UNL     1      -3.096  10.397  15.096  0.00  0.00    +0.000 C 
ATOM     20  C   UNL     1      -3.175  10.022  16.567  0.00  0.00    +0.000 C 
ENDBRANCH  18  20
ENDBRANCH  17  18
ENDBRANCH  15  17
ENDBRANCH  14  15
ENDBRANCH   1  14
BRANCH   8  21
ATOM     21  O   UNL     1       5.087   6.063  16.376  0.00  0.00    +0.000 OA
BRANCH  21  22
ATOM     22  C   UNL     1       5.011   4.688  15.986  0.00  0.00    +0.000 C 
BRANCH  22  23
ATOM     23  C   UNL     1       5.750   4.503  14.693  0.00  0.00    +0.000 A 
ATOM     24  C   UNL     1       5.211   3.683  13.690  0.00  0.00    +0.000 A 
ATOM     25  C   UNL     1       5.902   3.498  12.494  0.00  0.00    +0.000 A 
ATOM     26  C   UNL     1       7.123   4.139  12.286  0.00  0.00    +0.000 A 
ATOM     27  C   UNL     1       7.658   4.965  13.274  0.00  0.00    +0.000 A 
ATOM     28  C   UNL     1       6.972   5.146  14.473  0.00  0.00    +0.000 A 
ENDBRANCH  22  23
ENDBRANCH  21  22
ENDBRANCH   8  21
TORSDOF 9
ENDMDL
MODEL 2
REMARK VINA RESULT:      -7.6      1.821      2.746
REMARK  Name = 
REMARK  12 active torsions:
REMARK  status: ('A' for Active; 'I' for Inactive)
REMARK    1  A    between atoms: C_1  and  C_2
REMARK    2  A    between atoms: C_2  and  C_3
REMARK    3  A    between atoms: C_3  and  C_4
REMARK    4  A    between atoms: C_4  and  N_5
REMARK    5  A    between atoms: N_5  and  C_6
REMARK    6  A    between atoms: N_5  and  C_7
REMARK    7  A    between atoms: C_7  and  C_8
REMARK    8  A    between atoms: C_9  and  C_10
REMARK    9  A    between atoms: C_15  and  O_16
REMARK   10  A    between atoms: O_16  and  C_17
REMARK   11  A    between atoms: C_17  and  C_18
REMARK   12  A    between atoms: C_26  and  O_27
REMARK                            x       y       z     vdW  Elec       q    Type
REMARK                         _______ _______ _______ _____ _____    ______ ____
ROOT
ATOM      1  C   UNL     1       1.152   9.497  19.627  0.00  0.00    +0.000 A 
ATOM      2  C   UNL     1       0.963   8.732  20.778  0.00  0.00    +0.000 A 
ATOM      3  C   UNL     1       0.309   9.265  22.020  0.00  0.00    +0.000 C 
ATOM      4  N   UNL     1       1.407   7.450  20.888  0.00  0.00    +0.000 NA
ATOM      5  C   UNL     1       2.062   6.886  19.864  0.00  0.00    +0.000 A 
ATOM      6  C   UNL     1       2.560   5.598  20.012  0.00  0.00    +0.000 A 
ATOM      7  C   UNL     1       3.290   4.969  18.998  0.00  0.00    +0.000 A 
ATOM      8  C   UNL     1       3.522   5.638  17.805  0.00  0.00    +0.000 A 
ATOM      9  C   UNL     1       2.971   6.901  17.614  0.00  0.00    +0.000 A 
ATOM     10  C   UNL     1       2.274   7.557  18.648  0.00  0.00    +0.000 A 
ATOM     11  C   UNL     1       1.792   8.875  18.549  0.00  0.00    +0.000 A 
ENDROOT
BRANCH  11  12
ATOM     12  O   UNL     1       1.967   9.631  17.414  0.00  0.00    +0.000 OA
ATOM     13  H   UNL     1       2.815   9.421  16.996  0.00  0.00    +0.000 HD
ENDBRANCH  11  12
BRANCH   1  14
ATOM     14  C   UNL     1       0.797  10.966  19.549  0.00  0.00    +0.000 C 
BRANCH  14  15
ATOM     15  N   UNL     1      -0.207  11.269  18.501  0.00  0.00    +0.000 NA
ATOM     16  C   UNL     1      -0.460  12.712  18.490  0.00  0.00    +0.000 C 
BRANCH  15  17
ATOM     17  C   UNL     1      -1.450  10.497  18.709  0.00  0.00    +0.000 C 
BRANCH  17  18
ATOM     18  C   UNL     1      -2.601  10.976  17.818  0.00  0.00    +0.000 C 
BRANCH  18  20
ATOM     19  C   UNL     1      -2.831  10.494  15.366  0.00  0.00    +0.000 C 
ATOM     20  C   UNL     1      -2.968   9.925  16.769  0.00  0.00    +0.000 C 
ENDBRANCH  18  20
ENDBRANCH  17  18
ENDBRANCH  15  17
ENDBRANCH  14  15
ENDBRANCH   1  14
BRANCH   8  21
ATOM     21  O   UNL     1       4.302   4.999  16.884  0.00  0.00    +0.000 OA
BRANCH  21  22
ATOM     22  C   UNL     1       5.238   5.847  16.209  0.00  0.00    +0.000 C 
BRANCH  22  23
ATOM     23  C   UNL     1       6.338   6.218  17.161  0.00  0.00    +0.000 A 
ATOM     24  C   UNL     1       6.914   7.495  17.101  0.00  0.00    +0.000 A 
ATOM     25  C   UNL     1       7.945   7.838  17.973  0.00  0.00    +0.000 A 
ATOM     26  C   UNL     1       8.398   6.916  18.916  0.00  0.00    +0.000 A 
ATOM     27  C   UNL     1       7.821   5.649  18.990  0.00  0.00    +0.000 A 
ATOM     28  C   UNL     1       6.794   5.302  18.115  0.00  0.00    +0.000 A 
ENDBRANCH  22  23
ENDBRANCH  21  22
ENDBRANCH   8  21
TORSDOF 9
ENDMDL
MODEL 3
REMARK VINA RESULT:      -7.4      2.037      2.744
REMARK  Name = 
REMARK  12 active torsions:
REMARK  status: ('A' for Active; 'I' for Inactive)
REMARK    1  A    between atoms: C_1  and  C_2
REMARK    2  A    between atoms: C_2  and  C_3
REMARK    3  A    between atoms: C_3  and  C_4
REMARK    4  A    between atoms: C_4  and  N_5
REMARK    5  A    between atoms: N_5  and  C_6
REMARK    6  A    between atoms: N_5  and  C_7
REMARK    7  A    between atoms: C_7  and  C_8
REMARK    8  A    between atoms: C_9  and  C_10
REMARK    9  A    between atoms: C_15  and  O_16
REMARK   10  A    between atoms: O_16  and  C_17
REMARK   11  A    between atoms: C_17  and  C_18
REMARK   12  A    between atoms: C_26  and  O_27
REMARK                            x       y       z     vdW  Elec       q    Type
REMARK                         _______ _______ _______ _____ _____    ______ ____
ROOT
ATOM      1  C   UNL     1       1.051   9.965  19.690  0.00  0.00    +0.000 A 
ATOM      2  C   UNL     1       0.819   9.279  20.883  0.00  0.00    +0.000 A 
ATOM      3  C   UNL     1       0.194   9.916  22.089  0.00  0.00    +0.000 C 
ATOM      4  N   UNL     1       1.193   7.982  21.067  0.00  0.00    +0.000 NA
ATOM      5  C   UNL     1       1.817   7.327  20.079  0.00  0.00    +0.000 A 
ATOM      6  C   UNL     1       2.245   6.023  20.302  0.00  0.00    +0.000 A 
ATOM      7  C   UNL     1       2.941   5.300  19.328  0.00  0.00    +0.000 A 
ATOM      8  C   UNL     1       3.209   5.886  18.100  0.00  0.00    +0.000 A 
ATOM      9  C   UNL     1       2.728   7.164  17.835  0.00  0.00    +0.000 A 
ATOM     10  C   UNL     1       2.067   7.915  18.827  0.00  0.00    +0.000 A 
ATOM     11  C   UNL     1       1.657   9.249  18.652  0.00  0.00    +0.000 A 
ENDROOT
BRANCH  11  12
ATOM     12  O   UNL     1       1.874   9.928  17.477  0.00  0.00    +0.000 OA
ATOM     13  H   UNL     1       1.483  10.812  17.520  0.00  0.00    +0.000 HD
ENDBRANCH  11  12
BRANCH   1  14
ATOM     14  C   UNL     1       0.776  11.444  19.528  0.00  0.00    +0.000 C 
BRANCH  14  15
ATOM     15  N   UNL     1      -0.247  11.737  18.495  0.00  0.00    +0.000 NA
ATOM     16  C   UNL     1      -0.459  13.186  18.436  0.00  0.00    +0.000 C 
BRANCH  15  17
ATOM     17  C   UNL     1      -1.506  11.012  18.765  0.00  0.00    +0.000 C 
BRANCH  17  18
ATOM     18  C   UNL     1      -2.676  11.520  17.917  0.00  0.00    +0.000 C 
BRANCH  18  20
ATOM     19  C   UNL     1      -2.977   9.688  16.229  0.00  0.00    +0.000 C 
ATOM     20  C   UNL     1      -2.516  11.119  16.450  0.00  0.00    +0.000 C 
ENDBRANCH  18  20
ENDBRANCH  17  18
ENDBRANCH  15  17
ENDBRANCH  14  15
ENDBRANCH   1  14
BRANCH   8  21
ATOM     21  O   UNL     1       3.955   5.154  17.220  0.00  0.00    +0.000 OA
BRANCH  21  22
ATOM     22  C   UNL     1       4.873   5.924  16.437  0.00  0.00    +0.000 C 
BRANCH  22  23
ATOM     23  C   UNL     1       6.072   6.260  17.276  0.00  0.00    +0.000 A 
ATOM     24  C   UNL     1       6.521   5.353  18.248  0.00  0.00    +0.000 A 
ATOM     25  C   UNL     1       7.625   5.668  19.039  0.00  0.00    +0.000 A 
ATOM     26  C   UNL     1       8.293   6.878  18.856  0.00  0.00    +0.000 A 
ATOM     27  C   UNL     1       7.859   7.778  17.883  0.00  0.00    +0.000 A 
ATOM     28  C   UNL     1       6.752   7.468  17.096  0.00  0.00    +0.000 A 
ENDBRANCH  22  23
ENDBRANCH  21  22
ENDBRANCH   8  21
TORSDOF 9
ENDMDL
MODEL 4
REMARK VINA RESULT:      -7.4      2.340      2.892
REMARK  Name = 
REMARK  12 active torsions:
REMARK  status: ('A' for Active; 'I' for Inactive)
REMARK    1  A    between atoms: C_1  and  C_2
REMARK    2  A    between atoms: C_2  and  C_3
REMARK    3  A    between atoms: C_3  and  C_4
REMARK    4  A    between atoms: C_4  and  N_5
REMARK    5  A    between atoms: N_5  and  C_6
REMARK    6  A    between atoms: N_5  and  C_7
REMARK    7  A    between atoms: C_7  and  C_8
REMARK    8  A    between atoms: C_9  and  C_10
REMARK    9  A    between atoms: C_15  and  O_16
REMARK   10  A    between atoms: O_16  and  C_17
REMARK   11  A    between atoms: C_17  and  C_18
REMARK   12  A    between atoms: C_26  and  O_27
REMARK                            x       y       z     vdW  Elec       q    Type
REMARK                         _______ _______ _______ _____ _____    ______ ____
ROOT
ATOM      1  C   UNL     1       0.947  10.182  20.153  0.00  0.00    +0.000 A 
ATOM      2  C   UNL     1       0.689   9.378  21.264  0.00  0.00    +0.000 A 
ATOM      3  C   UNL     1       0.092   9.901  22.537  0.00  0.00    +0.000 C 
ATOM      4  N   UNL     1       1.011   8.055  21.301  0.00  0.00    +0.000 NA
ATOM      5  C   UNL     1       1.607   7.489  20.243  0.00  0.00    +0.000 A 
ATOM      6  C   UNL     1       1.982   6.153  20.318  0.00  0.00    +0.000 A 
ATOM      7  C   UNL     1       2.647   5.514  19.266  0.00  0.00    +0.000 A 
ATOM      8  C   UNL     1       2.937   6.222  18.109  0.00  0.00    +0.000 A 
ATOM      9  C   UNL     1       2.507   7.540  17.990  0.00  0.00    +0.000 A 
ATOM     10  C   UNL     1       1.878   8.201  19.063  0.00  0.00    +0.000 A 
ATOM     11  C   UNL     1       1.522   9.562  19.039  0.00  0.00    +0.000 A 
ENDROOT
BRANCH  11  12
ATOM     12  O   UNL     1       1.765  10.358  17.944  0.00  0.00    +0.000 OA
ATOM     13  H   UNL     1       1.141  10.154  17.234  0.00  0.00    +0.000 HD
ENDBRANCH  11  12
BRANCH   1  14
ATOM     14  C   UNL     1       0.731  11.680  20.157  0.00  0.00    +0.000 C 
BRANCH  14  15
ATOM     15  N   UNL     1      -0.148  12.146  19.058  0.00  0.00    +0.000 NA
ATOM     16  C   UNL     1       0.297  13.473  18.625  0.00  0.00    +0.000 C 
BRANCH  15  17
ATOM     17  C   UNL     1      -1.566  12.153  19.470  0.00  0.00    +0.000 C 
BRANCH  17  18
ATOM     18  C   UNL     1      -2.508  11.668  18.363  0.00  0.00    +0.000 C 
BRANCH  18  20
ATOM     19  C   UNL     1      -3.345   9.453  17.532  0.00  0.00    +0.000 C 
ATOM     20  C   UNL     1      -2.112  10.278  17.863  0.00  0.00    +0.000 C 
ENDBRANCH  18  20
ENDBRANCH  17  18
ENDBRANCH  15  17
ENDBRANCH  14  15
ENDBRANCH   1  14
BRANCH   8  21
ATOM     21  O   UNL     1       3.651   5.563  17.149  0.00  0.00    +0.000 OA
BRANCH  21  22
ATOM     22  C   UNL     1       4.691   4.719  17.658  0.00  0.00    +0.000 C 
BRANCH  22  23
ATOM     23  C   UNL     1       5.903   5.556  17.948  0.00  0.00    +0.000 A 
ATOM     24  C   UNL     1       6.209   6.652  17.128  0.00  0.00    +0.000 A 
ATOM     25  C   UNL     1       7.342   7.421  17.386  0.00  0.00    +0.000 A 
ATOM     26  C   UNL     1       8.165   7.112  18.468  0.00  0.00    +0.000 A 
ATOM     27  C   UNL     1       7.859   6.031  19.295  0.00  0.00    +0.000 A 
ATOM     28  C   UNL     1       6.731   5.257  19.035  0.00  0.00    +0.000 A 
ENDBRANCH  22  23
ENDBRANCH  21  22
ENDBRANCH   8  21
TORSDOF 9
ENDMDL
MODEL 5
REMARK VINA RESULT:      -7.2      2.832      4.079
REMARK  Name = 
REMARK  12 active torsions:
REMARK  status: ('A' for Active; 'I' for Inactive)
REMARK    1  A    between atoms: C_1  and  C_2
REMARK    2  A    between atoms: C_2  and  C_3
REMARK    3  A    between atoms: C_3  and  C_4
REMARK    4  A    between atoms: C_4  and  N_5
REMARK    5  A    between atoms: N_5  and  C_6
REMARK    6  A    between atoms: N_5  and  C_7
REMARK    7  A    between atoms: C_7  and  C_8
REMARK    8  A    between atoms: C_9  and  C_10
REMARK    9  A    between atoms: C_15  and  O_16
REMARK   10  A    between atoms: O_16  and  C_17
REMARK   11  A    between atoms: C_17  and  C_18
REMARK   12  A    between atoms: C_26  and  O_27
REMARK                            x       y       z     vdW  Elec       q    Type
REMARK                         _______ _______ _______ _____ _____    ______ ____
ROOT
ATOM      1  C   UNL     1       1.010  10.120  19.593  0.00  0.00    +0.000 A 
ATOM      2  C   UNL     1       0.705   9.573  20.840  0.00  0.00    +0.000 A 
ATOM      3  C   UNL     1       0.073  10.361  21.951  0.00  0.00    +0.000 C 
ATOM      4  N   UNL     1       1.009   8.288  21.171  0.00  0.00    +0.000 NA
ATOM      5  C   UNL     1       1.632   7.504  20.280  0.00  0.00    +0.000 A 
ATOM      6  C   UNL     1       1.988   6.214  20.653  0.00  0.00    +0.000 A 
ATOM      7  C   UNL     1       2.679   5.361  19.785  0.00  0.00    +0.000 A 
ATOM      8  C   UNL     1       3.016   5.802  18.515  0.00  0.00    +0.000 A 
ATOM      9  C   UNL     1       2.607   7.066  18.101  0.00  0.00    +0.000 A 
ATOM     10  C   UNL     1       1.951   7.946  18.985  0.00  0.00    +0.000 A 
ATOM     11  C   UNL     1       1.614   9.272  18.658  0.00  0.00    +0.000 A 
ENDROOT
BRANCH  11  12
ATOM     12  O   UNL     1       1.903   9.814  17.428  0.00  0.00    +0.000 OA
ATOM     13  H   UNL     1       2.336   9.158  16.864  0.00  0.00    +0.000 HD
ENDBRANCH  11  12
BRANCH   1  14
ATOM     14  C   UNL     1       0.813  11.585  19.269  0.00  0.00    +0.000 C 
BRANCH  14  15
ATOM     15  N   UNL     1       2.043  12.393  19.454  0.00  0.00    +0.000 NA
ATOM     16  C   UNL     1       1.832  13.329  20.561  0.00  0.00    +0.000 C 
BRANCH  15  17
ATOM     17  C   UNL     1       2.417  13.094  18.209  0.00  0.00    +0.000 C 
BRANCH  17  18
ATOM     18  C   UNL     1       2.271  14.616  18.319  0.00  0.00    +0.000 C 
BRANCH  18  20
ATOM     19  C   UNL     1       3.069  16.816  17.411  0.00  0.00    +0.000 C 
ATOM     20  C   UNL     1       3.392  15.338  17.569  0.00  0.00    +0.000 C 
ENDBRANCH  18  20
ENDBRANCH  17  18
ENDBRANCH  15  17
ENDBRANCH  14  15
ENDBRANCH   1  14
BRANCH   8  21
ATOM     21  O   UNL     1       3.753   4.949  17.744  0.00  0.00    +0.000 OA
BRANCH  21  22
ATOM     22  C   UNL     1       4.604   5.596  16.790  0.00  0.00    +0.000 C 
BRANCH  22  23
ATOM     23  C   UNL     1       5.860   6.044  17.478  0.00  0.00    +0.000 A 
ATOM     24  C   UNL     1       6.484   7.238  17.088  0.00  0.00    +0.000 A 
ATOM     25  C   UNL     1       7.659   7.649  17.715  0.00  0.00    +0.000 A 
ATOM     26  C   UNL     1       8.209   6.881  18.741  0.00  0.00    +0.000 A 
ATOM     27  C   UNL     1       7.587   5.699  19.142  0.00  0.00    +0.000 A 
ATOM     28  C   UNL     1       6.416   5.283  18.513  0.00  0.00    +0.000 A 
ENDBRANCH  22  23
ENDBRANCH  21  22
ENDBRANCH   8  21
TORSDOF 9
ENDMDL
MODEL 6
REMARK VINA RESULT:      -7.2      2.605      8.658
REMARK  Name = 
REMARK  12 active torsions:
REMARK  status: ('A' for Active; 'I' for Inactive)
REMARK    1  A    between atoms: C_1  and  C_2
REMARK    2  A    between atoms: C_2  and  C_3
REMARK    3  A    between atoms: C_3  and  C_4
REMARK    4  A    between atoms: C_4  and  N_5
REMARK    5  A    between atoms: N_5  and  C_6
REMARK    6  A    between atoms: N_5  and  C_7
REMARK    7  A    between atoms: C_7  and  C_8
REMARK    8  A    between atoms: C_9  and  C_10
REMARK    9  A    between atoms: C_15  and  O_16
REMARK   10  A    between atoms: O_16  and  C_17
REMARK   11  A    between atoms: C_17  and  C_18
REMARK   12  A    between atoms: C_26  and  O_27
REMARK                            x       y       z     vdW  Elec       q    Type
REMARK                         _______ _______ _______ _____ _____    ______ ____
ROOT
ATOM      1  C   UNL     1       4.145   5.255  17.930  0.00  0.00    +0.000 A 
ATOM      2  C   UNL     1       3.654   4.795  19.153  0.00  0.00    +0.000 A 
ATOM      3  C   UNL     1       3.914   3.413  19.676  0.00  0.00    +0.000 C 
ATOM      4  N   UNL     1       2.849   5.551  19.950  0.00  0.00    +0.000 NA
ATOM      5  C   UNL     1       2.496   6.783  19.557  0.00  0.00    +0.000 A 
ATOM      6  C   UNL     1       1.627   7.520  20.352  0.00  0.00    +0.000 A 
ATOM      7  C   UNL     1       1.186   8.793  19.978  0.00  0.00    +0.000 A 
ATOM      8  C   UNL     1       1.628   9.348  18.786  0.00  0.00    +0.000 A 
ATOM      9  C   UNL     1       2.552   8.654  18.012  0.00  0.00    +0.000 A 
ATOM     10  C   UNL     1       2.964   7.352  18.360  0.00  0.00    +0.000 A 
ATOM     11  C   UNL     1       3.809   6.561  17.560  0.00  0.00    +0.000 A 
ENDROOT
BRANCH  11  12
ATOM     12  O   UNL     1       4.303   7.011  16.359  0.00  0.00    +0.000 OA
ATOM     13  H   UNL     1       4.820   7.818  16.488  0.00  0.00    +0.000 HD
ENDBRANCH  11  12
BRANCH   1  14
ATOM     14  C   UNL     1       4.914   4.372  16.971  0.00  0.00    +0.000 C 
BRANCH  14  15
ATOM     15  N   UNL     1       6.262   4.897  16.648  0.00  0.00    +0.000 NA
ATOM     16  C   UNL     1       6.739   4.254  15.421  0.00  0.00    +0.000 C 
BRANCH  15  17
ATOM     17  C   UNL     1       7.200   4.696  17.771  0.00  0.00    +0.000 C 
BRANCH  17  18
ATOM     18  C   UNL     1       7.674   6.015  18.392  0.00  0.00    +0.000 C 
BRANCH  18  20
ATOM     19  C   UNL     1       8.137   8.446  17.980  0.00  0.00    +0.000 C 
ATOM     20  C   UNL     1       7.518   7.179  17.413  0.00  0.00    +0.000 C 
ENDBRANCH  18  20
ENDBRANCH  17  18
ENDBRANCH  15  17
ENDBRANCH  14  15
ENDBRANCH   1  14
BRANCH   8  21
ATOM     21  O   UNL     1       1.104  10.562  18.443  0.00  0.00    +0.000 OA
BRANCH  21  22
ATOM     22  C   UNL     1       2.080  11.581  18.196  0.00  0.00    +0.000 C 
BRANCH  22  23
ATOM     23  C   UNL     1       1.471  12.922  18.482  0.00  0.00    +0.000 A 
ATOM     24  C   UNL     1       2.272  14.074  18.458  0.00  0.00    +0.000 A 
ATOM     25  C   UNL     1       1.713  15.319  18.737  0.00  0.00    +0.000 A 
ATOM     26  C   UNL     1       0.353  15.425  19.027  0.00  0.00    +0.000 A 
ATOM     27  C   UNL     1      -0.452  14.286  19.040  0.00  0.00    +0.000 A 
ATOM     28  C   UNL     1       0.106  13.039  18.768  0.00  0.00    +0.000 A 
ENDBRANCH  22  23
ENDBRANCH  21  22
ENDBRANCH   8  21
TORSDOF 9
ENDMDL
MODEL 7
REMARK VINA RESULT:      -7.2      2.299      8.421
REMARK  Name = 
REMARK  12 active torsions:
REMARK  status: ('A' for Active; 'I' for Inactive)
REMARK    1  A    between atoms: C_1  and  C_2
REMARK    2  A    between atoms: C_2  and  C_3
REMARK    3  A    between atoms: C_3  and  C_4
REMARK    4  A    between atoms: C_4  and  N_5
REMARK    5  A    between atoms: N_5  and  C_6
REMARK    6  A    between atoms: N_5  and  C_7
REMARK    7  A    between atoms: C_7  and  C_8
REMARK    8  A    between atoms: C_9  and  C_10
REMARK    9  A    between atoms: C_15  and  O_16
REMARK   10  A    between atoms: O_16  and  C_17
REMARK   11  A    between atoms: C_17  and  C_18
REMARK   12  A    between atoms: C_26  and  O_27
REMARK                            x       y       z     vdW  Elec       q    Type
REMARK                         _______ _______ _______ _____ _____    ______ ____
ROOT
ATOM      1  C   UNL     1       2.613   6.351  18.943  0.00  0.00    +0.000 A 
ATOM      2  C   UNL     1       2.159   5.863  20.169  0.00  0.00    +0.000 A 
ATOM      3  C   UNL     1       2.344   4.439  20.606  0.00  0.00    +0.000 C 
ATOM      4  N   UNL     1       1.460   6.630  21.050  0.00  0.00    +0.000 NA
ATOM      5  C   UNL     1       1.179   7.903  20.741  0.00  0.00    +0.000 A 
ATOM      6  C   UNL     1       0.415   8.657  21.623  0.00  0.00    +0.000 A 
ATOM      7  C   UNL     1       0.050   9.977  21.340  0.00  0.00    +0.000 A 
ATOM      8  C   UNL     1       0.464  10.563  20.153  0.00  0.00    +0.000 A 
ATOM      9  C   UNL     1       1.288   9.846  19.290  0.00  0.00    +0.000 A 
ATOM     10  C   UNL     1       1.620   8.502  19.548  0.00  0.00    +0.000 A 
ATOM     11  C   UNL     1       2.356   7.696  18.660  0.00  0.00    +0.000 A 
ENDROOT
BRANCH  11  12
ATOM     12  O   UNL     1       2.814   8.173  17.455  0.00  0.00    +0.000 OA
ATOM     13  H   UNL     1       2.715   7.501  16.766  0.00  0.00    +0.000 HD
ENDBRANCH  11  12
BRANCH   1  14
ATOM     14  C   UNL     1       3.257   5.468  17.896  0.00  0.00    +0.000 C 
BRANCH  14  15
ATOM     15  N   UNL     1       4.642   5.877  17.560  0.00  0.00    +0.000 NA
ATOM     16  C   UNL     1       5.065   5.170  16.349  0.00  0.00    +0.000 C 
BRANCH  15  17
ATOM     17  C   UNL     1       5.564   5.629  18.688  0.00  0.00    +0.000 C 
BRANCH  17  18
ATOM     18  C   UNL     1       7.009   5.395  18.232  0.00  0.00    +0.000 C 
BRANCH  18  20
ATOM     19  C   UNL     1       7.684   7.737  17.634  0.00  0.00    +0.000 C 
ATOM     20  C   UNL     1       7.906   6.580  18.594  0.00  0.00    +0.000 C 
ENDBRANCH  18  20
ENDBRANCH  17  18
ENDBRANCH  15  17
ENDBRANCH  14  15
ENDBRANCH   1  14
BRANCH   8  21
ATOM     21  O   UNL     1       0.014  11.828  19.903  0.00  0.00    +0.000 OA
BRANCH  21  22
ATOM     22  C   UNL     1      -0.320  12.079  18.533  0.00  0.00    +0.000 C 
BRANCH  22  23
ATOM     23  C   UNL     1      -1.677  11.505  18.247  0.00  0.00    +0.000 A 
ATOM     24  C   UNL     1      -2.812  12.048  18.868  0.00  0.00    +0.000 A 
ATOM     25  C   UNL     1      -4.072  11.508  18.616  0.00  0.00    +0.000 A 
ATOM     26  C   UNL     1      -4.208  10.436  17.735  0.00  0.00    +0.000 A 
ATOM     27  C   UNL     1      -3.086   9.900  17.104  0.00  0.00    +0.000 A 
ATOM     28  C   UNL     1      -1.825  10.434  17.359  0.00  0.00    +0.000 A 
ENDBRANCH  22  23
ENDBRANCH  21  22
ENDBRANCH   8  21
TORSDOF 9
ENDMDL
MODEL 8
REMARK VINA RESULT:      -7.2      0.805      1.335
REMARK  Name = 
REMARK  12 active torsions:
REMARK  status: ('A' for Active; 'I' for Inactive)
REMARK    1  A    between atoms: C_1  and  C_2
REMARK    2  A    between atoms: C_2  and  C_3
REMARK    3  A    between atoms: C_3  and  C_4
REMARK    4  A    between atoms: C_4  and  N_5
REMARK    5  A    between atoms: N_5  and  C_6
REMARK    6  A    between atoms: N_5  and  C_7
REMARK    7  A    between atoms: C_7  and  C_8
REMARK    8  A    between atoms: C_9  and  C_10
REMARK    9  A    between atoms: C_15  and  O_16
REMARK   10  A    between atoms: O_16  and  C_17
REMARK   11  A    between atoms: C_17  and  C_18
REMARK   12  A    between atoms: C_26  and  O_27
REMARK                            x       y       z     vdW  Elec       q    Type
REMARK                         _______ _______ _______ _____ _____    ______ ____
ROOT
ATOM      1  C   UNL     1       1.072   9.553  19.510  0.00  0.00    +0.000 A 
ATOM      2  C   UNL     1       0.974   8.609  20.532  0.00  0.00    +0.000 A 
ATOM      3  C   UNL     1       0.183   8.836  21.788  0.00  0.00    +0.000 C 
ATOM      4  N   UNL     1       1.636   7.420  20.498  0.00  0.00    +0.000 NA
ATOM      5  C   UNL     1       2.424   7.132  19.454  0.00  0.00    +0.000 A 
ATOM      6  C   UNL     1       3.140   5.940  19.460  0.00  0.00    +0.000 A 
ATOM      7  C   UNL     1       4.013   5.600  18.421  0.00  0.00    +0.000 A 
ATOM      8  C   UNL     1       4.171   6.464  17.348  0.00  0.00    +0.000 A 
ATOM      9  C   UNL     1       3.410   7.627  17.292  0.00  0.00    +0.000 A 
ATOM     10  C   UNL     1       2.564   7.998  18.356  0.00  0.00    +0.000 A 
ATOM     11  C   UNL     1       1.858   9.213  18.404  0.00  0.00    +0.000 A 
ENDROOT
BRANCH  11  12
ATOM     12  O   UNL     1       1.942  10.144  17.395  0.00  0.00    +0.000 OA
ATOM     13  H   UNL     1       2.825  10.539  17.374  0.00  0.00    +0.000 HD
ENDBRANCH  11  12
BRANCH   1  14
ATOM     14  C   UNL     1       0.462  10.935  19.607  0.00  0.00    +0.000 C 
BRANCH  14  15
ATOM     15  N   UNL     1      -0.417  11.267  18.460  0.00  0.00    +0.000 NA
ATOM     16  C   UNL     1      -0.498  12.724  18.332  0.00  0.00    +0.000 C 
BRANCH  15  17
ATOM     17  C   UNL     1      -1.753  10.657  18.612  0.00  0.00    +0.000 C 
BRANCH  17  18
ATOM     18  C   UNL     1      -2.811  11.316  17.721  0.00  0.00    +0.000 C 
BRANCH  18  20
ATOM     19  C   UNL     1      -5.295  11.037  17.949  0.00  0.00    +0.000 C 
ATOM     20  C   UNL     1      -4.054  11.702  18.524  0.00  0.00    +0.000 C 
ENDBRANCH  18  20
ENDBRANCH  17  18
ENDBRANCH  15  17
ENDBRANCH  14  15
ENDBRANCH   1  14
BRANCH   8  21
ATOM     21  O   UNL     1       5.092   6.108  16.404  0.00  0.00    +0.000 OA
BRANCH  21  22
ATOM     22  C   UNL     1       5.112   4.710  16.093  0.00  0.00    +0.000 C 
BRANCH  22  23
ATOM     23  C   UNL     1       5.783   4.513  14.765  0.00  0.00    +0.000 A 
ATOM     24  C   UNL     1       7.019   5.126  14.508  0.00  0.00    +0.000 A 
ATOM     25  C   UNL     1       7.638   4.957  13.271  0.00  0.00    +0.000 A 
ATOM     26  C   UNL     1       7.037   4.167  12.292  0.00  0.00    +0.000 A 
ATOM     27  C   UNL     1       5.816   3.544  12.545  0.00  0.00    +0.000 A 
ATOM     28  C   UNL     1       5.192   3.717  13.779  0.00  0.00    +0.000 A 
ENDBRANCH  22  23
ENDBRANCH  21  22
ENDBRANCH   8  21
TORSDOF 9
ENDMDL
MODEL 9
REMARK VINA RESULT:      -7.2      3.088      9.226
REMARK  Name = 
REMARK  12 active torsions:
REMARK  status: ('A' for Active; 'I' for Inactive)
REMARK    1  A    between atoms: C_1  and  C_2
REMARK    2  A    between atoms: C_2  and  C_3
REMARK    3  A    between atoms: C_3  and  C_4
REMARK    4  A    between atoms: C_4  and  N_5
REMARK    5  A    between atoms: N_5  and  C_6
REMARK    6  A    between atoms: N_5  and  C_7
REMARK    7  A    between atoms: C_7  and  C_8
REMARK    8  A    between atoms: C_9  and  C_10
REMARK    9  A    between atoms: C_15  and  O_16
REMARK   10  A    between atoms: O_16  and  C_17
REMARK   11  A    between atoms: C_17  and  C_18
REMARK   12  A    between atoms: C_26  and  O_27
REMARK                            x       y       z     vdW  Elec       q    Type
REMARK                         _______ _______ _______ _____ _____    ______ ____
ROOT
ATOM      1  C   UNL     1       3.998   5.571  18.857  0.00  0.00    +0.000 A 
ATOM      2  C   UNL     1       4.246   6.220  17.647  0.00  0.00    +0.000 A 
ATOM      3  C   UNL     1       5.255   5.736  16.647  0.00  0.00    +0.000 C 
ATOM      4  N   UNL     1       3.628   7.382  17.298  0.00  0.00    +0.000 NA
ATOM      5  C   UNL     1       2.750   7.944  18.140  0.00  0.00    +0.000 A 
ATOM      6  C   UNL     1       2.171   9.159  17.796  0.00  0.00    +0.000 A 
ATOM      7  C   UNL     1       1.282   9.819  18.650  0.00  0.00    +0.000 A 
ATOM      8  C   UNL     1       0.956   9.251  19.873  0.00  0.00    +0.000 A 
ATOM      9  C   UNL     1       1.472   8.002  20.203  0.00  0.00    +0.000 A 
ATOM     10  C   UNL     1       2.403   7.354  19.368  0.00  0.00    +0.000 A 
ATOM     11  C   UNL     1       3.041   6.145  19.701  0.00  0.00    +0.000 A 
ENDROOT
BRANCH  11  12
ATOM     12  O   UNL     1       2.794   5.496  20.888  0.00  0.00    +0.000 OA
ATOM     13  H   UNL     1       2.789   6.126  21.622  0.00  0.00    +0.000 HD
ENDBRANCH  11  12
BRANCH   1  14
ATOM     14  C   UNL     1       4.787   4.365  19.319  0.00  0.00    +0.000 C 
BRANCH  14  15
ATOM     15  N   UNL     1       3.973   3.128  19.390  0.00  0.00    +0.000 NA
ATOM     16  C   UNL     1       4.599   2.204  20.339  0.00  0.00    +0.000 C 
BRANCH  15  17
ATOM     17  C   UNL     1       3.811   2.515  18.056  0.00  0.00    +0.000 C 
BRANCH  17  18
ATOM     18  C   UNL     1       2.373   2.057  17.785  0.00  0.00    +0.000 C 
BRANCH  18  20
ATOM     19  C   UNL     1       1.148   4.221  17.455  0.00  0.00    +0.000 C 
ATOM     20  C   UNL     1       1.356   3.032  18.379  0.00  0.00    +0.000 C 
ENDBRANCH  18  20
ENDBRANCH  17  18
ENDBRANCH  15  17
ENDBRANCH  14  15
ENDBRANCH   1  14
BRANCH   8  21
ATOM     21  O   UNL     1       0.140   9.980  20.691  0.00  0.00    +0.000 OA
BRANCH  21  22
ATOM     22  C   UNL     1      -0.795  10.818  20.001  0.00  0.00    +0.000 C 
BRANCH  22  23
ATOM     23  C   UNL     1      -1.354  11.824  20.965  0.00  0.00    +0.000 A 
ATOM     24  C   UNL     1      -0.776  11.973  22.234  0.00  0.00    +0.000 A 
ATOM     25  C   UNL     1      -1.302  12.896  23.136  0.00  0.00    +0.000 A 
ATOM     26  C   UNL     1      -2.394  13.683  22.773  0.00  0.00    +0.000 A 
ATOM     27  C   UNL     1      -2.965  13.549  21.508  0.00  0.00    +0.000 A 
ATOM     28  C   UNL     1      -2.445  12.623  20.607  0.00  0.00    +0.000 A 
ENDBRANCH  22  23
ENDBRANCH  21  22
ENDBRANCH   8  21
TORSDOF 9
ENDMDL
