MODEL 1
REMARK VINA RESULT:      -7.2      0.000      0.000
REMARK  Name = 
REMARK  5 active torsions:
REMARK  status: ('A' for Active; 'I' for Inactive)
REMARK    1  A    between atoms: C_1  and  C_2
REMARK    2  A    between atoms: C_2  and  N_3
REMARK    3  A    between atoms: C_4  and  C_5
REMARK    4  A    between atoms: C_16  and  C_17
REMARK    5  A    between atoms: C_22  and  N_23
REMARK                            x       y       z     vdW  Elec       q    Type
REMARK                         _______ _______ _______ _____ _____    ______ ____
ROOT
ATOM      1  N   UNL     1       5.530   4.766  16.315  0.00  0.00    +0.000 N 
ATOM      2  C   UNL     1       6.654   4.558  15.543  0.00  0.00    +0.000 A 
ATOM      3  N   UNL     1       7.785   4.650  16.265  0.00  0.00    +0.000 NA
ATOM      4  C   UNL     1       7.375   4.930  17.502  0.00  0.00    +0.000 A 
ATOM      5  C   UNL     1       8.205   5.108  18.587  0.00  0.00    +0.000 A 
ATOM      6  N   UNL     1       7.644   5.386  19.781  0.00  0.00    +0.000 NA
ATOM      7  C   UNL     1       6.295   5.506  19.933  0.00  0.00    +0.000 A 
ATOM      8  C   UNL     1       5.384   5.344  18.852  0.00  0.00    +0.000 A 
ATOM      9  C   UNL     1       6.002   5.020  17.580  0.00  0.00    +0.000 A 
ENDROOT
BRANCH   2  10
ATOM     10  C   UNL     1       6.723   4.294  14.067  0.00  0.00    +0.000 A 
ATOM     11  N   UNL     1       5.960   3.424  13.386  0.00  0.00    +0.000 NA
ATOM     12  O   UNL     1       6.308   3.521  12.133  0.00  0.00    +0.000 OA
ATOM     13  N   UNL     1       7.257   4.386  11.925  0.00  0.00    +0.000 NA
ATOM     14  C   UNL     1       7.555   4.894  13.128  0.00  0.00    +0.000 A 
ATOM     15  N   UNL     1       8.553   5.881  13.325  0.00  0.00    +0.000 N 
ATOM     16  H   UNL     1       9.072   6.246  12.512  0.00  0.00    +0.000 HD
ATOM     17  H   UNL     1       8.800   6.240  14.254  0.00  0.00    +0.000 HD
ENDBRANCH   2  10
BRANCH   8  18
ATOM     18  C   UNL     1       3.899   5.432  19.158  0.00  0.00    +0.000 C 
ATOM     19  O   UNL     1       3.349   6.498  18.958  0.00  0.00    +0.000 OA
ATOM     20  N   UNL     1       3.108   4.376  19.591  0.00  0.00    +0.000 N 
ATOM     21  C   UNL     1       1.661   4.488  19.699  0.00  0.00    +0.000 C 
ATOM     22  C   UNL     1       1.197   3.057  19.985  0.00  0.00    +0.000 C 
ATOM     23  C   UNL     1       2.332   2.506  20.825  0.00  0.00    +0.000 C 
ATOM     24  C   UNL     1       3.543   3.059  20.056  0.00  0.00    +0.000 C 
BRANCH  23  25
ATOM     25  N   UNL     1       2.255   3.030  22.196  0.00  0.00    +0.000 NA
ATOM     26  H   UNL     1       3.136   2.876  22.733  0.00  0.00    +0.000 HD
ATOM     27  H   UNL     1       1.477   2.553  22.705  0.00  0.00    +0.000 HD
ENDBRANCH  23  25
ENDBRANCH   8  18
BRANCH   1  29
ATOM     28  C   UNL     1       3.465   3.427  16.337  0.00  0.00    +0.000 C 
ATOM     29  C   UNL     1       4.150   4.692  15.810  0.00  0.00    +0.000 C 
ENDBRANCH   1  29
TORSDOF 4
ENDMDL
MODEL 2
REMARK VINA RESULT:      -6.9      3.270      7.462
REMARK  Name = 
REMARK  5 active torsions:
REMARK  status: ('A' for Active; 'I' for Inactive)
REMARK    1  A    between atoms: C_1  and  C_2
REMARK    2  A    between atoms: C_2  and  N_3
REMARK    3  A    between atoms: C_4  and  C_5
REMARK    4  A    between atoms: C_16  and  C_17
REMARK    5  A    between atoms: C_22  and  N_23
REMARK                            x       y       z     vdW  Elec       q    Type
REMARK                         _______ _______ _______ _____ _____    ______ ____
ROOT
ATOM      1  N   UNL     1       2.460   6.779  19.351  0.00  0.00    +0.000 N 
ATOM      2  C   UNL     1       1.688   7.221  20.407  0.00  0.00    +0.000 A 
ATOM      3  N   UNL     1       1.290   6.209  21.198  0.00  0.00    +0.000 NA
ATOM      4  C   UNL     1       1.803   5.116  20.634  0.00  0.00    +0.000 A 
ATOM      5  C   UNL     1       1.652   3.834  21.116  0.00  0.00    +0.000 A 
ATOM      6  N   UNL     1       2.233   2.825  20.437  0.00  0.00    +0.000 NA
ATOM      7  C   UNL     1       2.944   3.040  19.294  0.00  0.00    +0.000 A 
ATOM      8  C   UNL     1       3.129   4.337  18.739  0.00  0.00    +0.000 A 
ATOM      9  C   UNL     1       2.519   5.414  19.495  0.00  0.00    +0.000 A 
ENDROOT
BRANCH   2  10
ATOM     10  C   UNL     1       1.254   8.626  20.706  0.00  0.00    +0.000 A 
ATOM     11  N   UNL     1       0.555   9.426  19.886  0.00  0.00    +0.000 NA
ATOM     12  O   UNL     1       0.356  10.543  20.530  0.00  0.00    +0.000 OA
ATOM     13  N   UNL     1       0.879  10.553  21.721  0.00  0.00    +0.000 NA
ATOM     14  C   UNL     1       1.467   9.358  21.870  0.00  0.00    +0.000 A 
ATOM     15  N   UNL     1       2.156   8.977  23.048  0.00  0.00    +0.000 N 
ATOM     16  H   UNL     1       2.203   9.633  23.842  0.00  0.00    +0.000 HD
ATOM     17  H   UNL     1       2.632   8.072  23.141  0.00  0.00    +0.000 HD
ENDBRANCH   2  10
BRANCH   8  18
ATOM     18  C   UNL     1       4.000   4.459  17.500  0.00  0.00    +0.000 C 
ATOM     19  O   UNL     1       3.522   4.096  16.443  0.00  0.00    +0.000 OA
ATOM     20  N   UNL     1       5.275   5.007  17.470  0.00  0.00    +0.000 N 
ATOM     21  C   UNL     1       5.983   5.251  16.223  0.00  0.00    +0.000 C 
ATOM     22  C   UNL     1       7.217   6.051  16.644  0.00  0.00    +0.000 C 
ATOM     23  C   UNL     1       7.539   5.466  18.005  0.00  0.00    +0.000 C 
ATOM     24  C   UNL     1       6.128   5.361  18.605  0.00  0.00    +0.000 C 
BRANCH  23  25
ATOM     25  N   UNL     1       8.181   4.151  17.858  0.00  0.00    +0.000 NA
ATOM     26  H   UNL     1       8.462   3.952  16.873  0.00  0.00    +0.000 HD
ATOM     27  H   UNL     1       7.515   3.406  18.163  0.00  0.00    +0.000 HD
ENDBRANCH  23  25
ENDBRANCH   8  18
BRANCH   1  29
ATOM     28  C   UNL     1       1.993   8.168  17.374  0.00  0.00    +0.000 C 
ATOM     29  C   UNL     1       3.067   7.659  18.341  0.00  0.00    +0.000 C 
ENDBRANCH   1  29
TORSDOF 4
ENDMDL
MODEL 3
REMARK VINA RESULT:      -6.9      6.555      9.073
REMARK  Name = 
REMARK  5 active torsions:
REMARK  status: ('A' for Active; 'I' for Inactive)
REMARK    1  A    between atoms: C_1  and  C_2
REMARK    2  A    between atoms: C_2  and  N_3
REMARK    3  A    between atoms: C_4  and  C_5
REMARK    4  A    between atoms: C_16  and  C_17
REMARK    5  A    between atoms: C_22  and  N_23
REMARK                            x       y       z     vdW  Elec       q    Type
REMARK                         _______ _______ _______ _____ _____    ______ ____
ROOT
ATOM      1  N   UNL     1       1.073   9.442  19.808  0.00  0.00    +0.000 N 
ATOM      2  C   UNL     1       1.528   8.218  20.254  0.00  0.00    +0.000 A 
ATOM      3  N   UNL     1       1.238   8.015  21.552  0.00  0.00    +0.000 NA
ATOM      4  C   UNL     1       0.604   9.123  21.935  0.00  0.00    +0.000 A 
ATOM      5  C   UNL     1       0.113   9.354  23.201  0.00  0.00    +0.000 A 
ATOM      6  N   UNL     1      -0.510  10.526  23.440  0.00  0.00    +0.000 NA
ATOM      7  C   UNL     1      -0.649  11.478  22.475  0.00  0.00    +0.000 A 
ATOM      8  C   UNL     1      -0.156  11.306  21.151  0.00  0.00    +0.000 A 
ATOM      9  C   UNL     1       0.488  10.030  20.903  0.00  0.00    +0.000 A 
ENDROOT
BRANCH   2  10
ATOM     10  C   UNL     1       2.297   7.184  19.484  0.00  0.00    +0.000 A 
ATOM     11  N   UNL     1       2.818   7.342  18.257  0.00  0.00    +0.000 NA
ATOM     12  O   UNL     1       3.431   6.229  17.964  0.00  0.00    +0.000 OA
ATOM     13  N   UNL     1       3.350   5.331  18.902  0.00  0.00    +0.000 NA
ATOM     14  C   UNL     1       2.631   5.894  19.882  0.00  0.00    +0.000 A 
ATOM     15  N   UNL     1       2.319   5.226  21.093  0.00  0.00    +0.000 N 
ATOM     16  H   UNL     1       2.667   4.268  21.247  0.00  0.00    +0.000 HD
ATOM     17  H   UNL     1       1.739   5.652  21.825  0.00  0.00    +0.000 HD
ENDBRANCH   2  10
BRANCH   8  18
ATOM     18  C   UNL     1      -0.433  12.409  20.144  0.00  0.00    +0.000 C 
ATOM     19  O   UNL     1      -1.584  12.559  19.782  0.00  0.00    +0.000 OA
ATOM     20  N   UNL     1       0.514  13.297  19.650  0.00  0.00    +0.000 N 
ATOM     21  C   UNL     1       0.147  14.436  18.823  0.00  0.00    +0.000 C 
ATOM     22  C   UNL     1       1.442  15.243  18.704  0.00  0.00    +0.000 C 
ATOM     23  C   UNL     1       2.504  14.160  18.694  0.00  0.00    +0.000 C 
ATOM     24  C   UNL     1       1.968  13.233  19.796  0.00  0.00    +0.000 C 
BRANCH  23  25
ATOM     25  N   UNL     1       2.547  13.500  17.381  0.00  0.00    +0.000 NA
ATOM     26  H   UNL     1       3.463  13.035  17.197  0.00  0.00    +0.000 HD
ATOM     27  H   UNL     1       2.386  14.210  16.632  0.00  0.00    +0.000 HD
ENDBRANCH  23  25
ENDBRANCH   8  18
BRANCH   1  29
ATOM     28  C   UNL     1      -0.122   9.790  17.686  0.00  0.00    +0.000 C 
ATOM     29  C   UNL     1       1.212   9.927  18.427  0.00  0.00    +0.000 C 
ENDBRANCH   1  29
TORSDOF 4
ENDMDL
MODEL 4
REMARK VINA RESULT:      -6.6      3.310      7.472
REMARK  Name = 
REMARK  5 active torsions:
REMARK  status: ('A' for Active; 'I' for Inactive)
REMARK    1  A    between atoms: C_1  and  C_2
REMARK    2  A    between atoms: C_2  and  N_3
REMARK    3  A    between atoms: C_4  and  C_5
REMARK    4  A    between atoms: C_16  and  C_17
REMARK    5  A    between atoms: C_22  and  N_23
REMARK                            x       y       z     vdW  Elec       q    Type
REMARK                         _______ _______ _______ _____ _____    ______ ____
ROOT
ATOM      1  N   UNL     1       2.477   6.861  19.516  0.00  0.00    +0.000 N 
ATOM      2  C   UNL     1       1.662   7.249  20.559  0.00  0.00    +0.000 A 
ATOM      3  N   UNL     1       1.131   6.195  21.203  0.00  0.00    +0.000 NA
ATOM      4  C   UNL     1       1.604   5.130  20.557  0.00  0.00    +0.000 A 
ATOM      5  C   UNL     1       1.323   3.821  20.881  0.00  0.00    +0.000 A 
ATOM      6  N   UNL     1       1.879   2.845  20.134  0.00  0.00    +0.000 NA
ATOM      7  C   UNL     1       2.689   3.122  19.073  0.00  0.00    +0.000 A 
ATOM      8  C   UNL     1       3.011   4.452  18.681  0.00  0.00    +0.000 A 
ATOM      9  C   UNL     1       2.425   5.489  19.510  0.00  0.00    +0.000 A 
ENDROOT
BRANCH   2  10
ATOM     10  C   UNL     1       1.310   8.645  20.984  0.00  0.00    +0.000 A 
ATOM     11  N   UNL     1       1.632   9.217  22.154  0.00  0.00    +0.000 NA
ATOM     12  O   UNL     1       1.173  10.437  22.115  0.00  0.00    +0.000 OA
ATOM     13  N   UNL     1       0.557  10.723  21.005  0.00  0.00    +0.000 NA
ATOM     14  C   UNL     1       0.614   9.610  20.262  0.00  0.00    +0.000 A 
ATOM     15  N   UNL     1       0.048   9.516  18.966  0.00  0.00    +0.000 N 
ATOM     16  H   UNL     1      -0.419  10.339  18.556  0.00  0.00    +0.000 HD
ATOM     17  H   UNL     1       0.066   8.649  18.416  0.00  0.00    +0.000 HD
ENDBRANCH   2  10
BRANCH   8  18
ATOM     18  C   UNL     1       3.980   4.633  17.525  0.00  0.00    +0.000 C 
ATOM     19  O   UNL     1       3.590   4.328  16.415  0.00  0.00    +0.000 OA
ATOM     20  N   UNL     1       5.254   5.177  17.629  0.00  0.00    +0.000 N 
ATOM     21  C   UNL     1       6.061   5.482  16.458  0.00  0.00    +0.000 C 
ATOM     22  C   UNL     1       7.258   6.253  17.019  0.00  0.00    +0.000 C 
ATOM     23  C   UNL     1       7.466   5.597  18.370  0.00  0.00    +0.000 C 
ATOM     24  C   UNL     1       6.010   5.468  18.846  0.00  0.00    +0.000 C 
BRANCH  23  25
ATOM     25  N   UNL     1       8.118   4.289  18.208  0.00  0.00    +0.000 NA
ATOM     26  H   UNL     1       9.158   4.350  18.262  0.00  0.00    +0.000 HD
ATOM     27  H   UNL     1       7.863   3.890  17.276  0.00  0.00    +0.000 HD
ENDBRANCH  23  25
ENDBRANCH   8  18
BRANCH   1  29
ATOM     28  C   UNL     1       2.471   8.001  17.335  0.00  0.00    +0.000 C 
ATOM     29  C   UNL     1       3.222   7.791  18.654  0.00  0.00    +0.000 C 
ENDBRANCH   1  29
TORSDOF 4
ENDMDL
MODEL 5
REMARK VINA RESULT:      -6.4      1.329      1.707
REMARK  Name = 
REMARK  5 active torsions:
REMARK  status: ('A' for Active; 'I' for Inactive)
REMARK    1  A    between atoms: C_1  and  C_2
REMARK    2  A    between atoms: C_2  and  N_3
REMARK    3  A    between atoms: C_4  and  C_5
REMARK    4  A    between atoms: C_16  and  C_17
REMARK    5  A    between atoms: C_22  and  N_23
REMARK                            x       y       z     vdW  Elec       q    Type
REMARK                         _______ _______ _______ _____ _____    ______ ____
ROOT
ATOM      1  N   UNL     1       5.980   4.054  16.324  0.00  0.00    +0.000 N 
ATOM      2  C   UNL     1       6.761   4.670  15.368  0.00  0.00    +0.000 A 
ATOM      3  N   UNL     1       7.549   5.623  15.898  0.00  0.00    +0.000 NA
ATOM      4  C   UNL     1       7.258   5.618  17.199  0.00  0.00    +0.000 A 
ATOM      5  C   UNL     1       7.838   6.439  18.140  0.00  0.00    +0.000 A 
ATOM      6  N   UNL     1       7.442   6.318  19.423  0.00  0.00    +0.000 NA
ATOM      7  C   UNL     1       6.485   5.424  19.801  0.00  0.00    +0.000 A 
ATOM      8  C   UNL     1       5.840   4.555  18.877  0.00  0.00    +0.000 A 
ATOM      9  C   UNL     1       6.295   4.680  17.505  0.00  0.00    +0.000 A 
ENDROOT
BRANCH   2  10
ATOM     10  C   UNL     1       6.779   4.416  13.889  0.00  0.00    +0.000 A 
ATOM     11  N   UNL     1       5.956   3.592  13.221  0.00  0.00    +0.000 NA
ATOM     12  O   UNL     1       6.277   3.681  11.961  0.00  0.00    +0.000 OA
ATOM     13  N   UNL     1       7.263   4.499  11.734  0.00  0.00    +0.000 NA
ATOM     14  C   UNL     1       7.617   4.981  12.933  0.00  0.00    +0.000 A 
ATOM     15  N   UNL     1       8.669   5.914  13.111  0.00  0.00    +0.000 N 
ATOM     16  H   UNL     1       9.185   6.259  12.288  0.00  0.00    +0.000 HD
ATOM     17  H   UNL     1       8.956   6.253  14.037  0.00  0.00    +0.000 HD
ENDBRANCH   2  10
BRANCH   8  18
ATOM     18  C   UNL     1       4.839   3.554  19.428  0.00  0.00    +0.000 C 
ATOM     19  O   UNL     1       5.265   2.468  19.769  0.00  0.00    +0.000 OA
ATOM     20  N   UNL     1       3.487   3.802  19.627  0.00  0.00    +0.000 N 
ATOM     21  C   UNL     1       2.622   2.858  20.318  0.00  0.00    +0.000 C 
ATOM     22  C   UNL     1       1.310   3.623  20.505  0.00  0.00    +0.000 C 
ATOM     23  C   UNL     1       1.245   4.474  19.252  0.00  0.00    +0.000 C 
ATOM     24  C   UNL     1       2.705   4.946  19.159  0.00  0.00    +0.000 C 
BRANCH  23  25
ATOM     25  N   UNL     1       0.849   3.655  18.097  0.00  0.00    +0.000 NA
ATOM     26  H   UNL     1       0.934   4.170  17.194  0.00  0.00    +0.000 HD
ATOM     27  H   UNL     1      -0.147   3.359  18.210  0.00  0.00    +0.000 HD
ENDBRANCH  23  25
ENDBRANCH   8  18
BRANCH   1  29
ATOM     28  C   UNL     1       3.604   3.461  16.094  0.00  0.00    +0.000 C 
ATOM     29  C   UNL     1       5.047   2.951  16.050  0.00  0.00    +0.000 C 
ENDBRANCH   1  29
TORSDOF 4
ENDMDL
MODEL 6
REMARK VINA RESULT:      -6.4      6.062      8.495
REMARK  Name = 
REMARK  5 active torsions:
REMARK  status: ('A' for Active; 'I' for Inactive)
REMARK    1  A    between atoms: C_1  and  C_2
REMARK    2  A    between atoms: C_2  and  N_3
REMARK    3  A    between atoms: C_4  and  C_5
REMARK    4  A    between atoms: C_16  and  C_17
REMARK    5  A    between atoms: C_22  and  N_23
REMARK                            x       y       z     vdW  Elec       q    Type
REMARK                         _______ _______ _______ _____ _____    ______ ____
ROOT
ATOM      1  N   UNL     1       1.127   8.885  19.598  0.00  0.00    +0.000 N 
ATOM      2  C   UNL     1       1.769   7.839  20.228  0.00  0.00    +0.000 A 
ATOM      3  N   UNL     1       1.593   7.868  21.561  0.00  0.00    +0.000 NA
ATOM      4  C   UNL     1       0.844   8.949  21.780  0.00  0.00    +0.000 A 
ATOM      5  C   UNL     1       0.410   9.370  23.017  0.00  0.00    +0.000 A 
ATOM      6  N   UNL     1      -0.346  10.485  23.083  0.00  0.00    +0.000 NA
ATOM      7  C   UNL     1      -0.673  11.200  21.970  0.00  0.00    +0.000 A 
ATOM      8  C   UNL     1      -0.249  10.824  20.664  0.00  0.00    +0.000 A 
ATOM      9  C   UNL     1       0.542   9.609  20.609  0.00  0.00    +0.000 A 
ENDROOT
BRANCH   2  10
ATOM     10  C   UNL     1       2.616   6.768  19.603  0.00  0.00    +0.000 A 
ATOM     11  N   UNL     1       3.326   6.886  18.470  0.00  0.00    +0.000 NA
ATOM     12  O   UNL     1       3.943   5.751  18.294  0.00  0.00    +0.000 OA
ATOM     13  N   UNL     1       3.691   4.875  19.223  0.00  0.00    +0.000 NA
ATOM     14  C   UNL     1       2.846   5.478  20.070  0.00  0.00    +0.000 A 
ATOM     15  N   UNL     1       2.330   4.845  21.228  0.00  0.00    +0.000 N 
ATOM     16  H   UNL     1       2.622   3.881  21.451  0.00  0.00    +0.000 HD
ATOM     17  H   UNL     1       1.657   5.302  21.854  0.00  0.00    +0.000 HD
ENDBRANCH   2  10
BRANCH   8  18
ATOM     18  C   UNL     1      -0.735  11.661  19.494  0.00  0.00    +0.000 C 
ATOM     19  O   UNL     1      -0.315  12.798  19.406  0.00  0.00    +0.000 OA
ATOM     20  N   UNL     1      -1.575  11.211  18.483  0.00  0.00    +0.000 N 
ATOM     21  C   UNL     1      -1.862  12.011  17.302  0.00  0.00    +0.000 C 
ATOM     22  C   UNL     1      -2.623  11.056  16.380  0.00  0.00    +0.000 C 
ATOM     23  C   UNL     1      -3.407  10.207  17.362  0.00  0.00    +0.000 C 
ATOM     24  C   UNL     1      -2.337   9.963  18.438  0.00  0.00    +0.000 C 
BRANCH  23  25
ATOM     25  N   UNL     1      -4.558  10.960  17.882  0.00  0.00    +0.000 NA
ATOM     26  H   UNL     1      -5.464  10.638  17.476  0.00  0.00    +0.000 HD
ATOM     27  H   UNL     1      -4.441  11.973  17.652  0.00  0.00    +0.000 HD
ENDBRANCH  23  25
ENDBRANCH   8  18
BRANCH   1  29
ATOM     28  C   UNL     1       2.084  10.214  17.762  0.00  0.00    +0.000 C 
ATOM     29  C   UNL     1       1.110   9.095  18.143  0.00  0.00    +0.000 C 
ENDBRANCH   1  29
TORSDOF 4
ENDMDL
MODEL 7
REMARK VINA RESULT:      -6.4      2.955      7.093
REMARK  Name = 
REMARK  5 active torsions:
REMARK  status: ('A' for Active; 'I' for Inactive)
REMARK    1  A    between atoms: C_1  and  C_2
REMARK    2  A    between atoms: C_2  and  N_3
REMARK    3  A    between atoms: C_4  and  C_5
REMARK    4  A    between atoms: C_16  and  C_17
REMARK    5  A    between atoms: C_22  and  N_23
REMARK                            x       y       z     vdW  Elec       q    Type
REMARK                         _______ _______ _______ _____ _____    ______ ____
ROOT
ATOM      1  N   UNL     1       3.352   6.515  19.338  0.00  0.00    +0.000 N 
ATOM      2  C   UNL     1       2.188   6.892  19.976  0.00  0.00    +0.000 A 
ATOM      3  N   UNL     1       1.639   5.876  20.664  0.00  0.00    +0.000 NA
ATOM      4  C   UNL     1       2.454   4.843  20.451  0.00  0.00    +0.000 A 
ATOM      5  C   UNL     1       2.281   3.581  20.975  0.00  0.00    +0.000 A 
ATOM      6  N   UNL     1       3.193   2.634  20.672  0.00  0.00    +0.000 NA
ATOM      7  C   UNL     1       4.257   2.892  19.861  0.00  0.00    +0.000 A 
ATOM      8  C   UNL     1       4.488   4.171  19.281  0.00  0.00    +0.000 A 
ATOM      9  C   UNL     1       3.512   5.184  19.637  0.00  0.00    +0.000 A 
ENDROOT
BRANCH   2  10
ATOM     10  C   UNL     1       1.511   8.231  19.941  0.00  0.00    +0.000 A 
ATOM     11  N   UNL     1       1.057   8.856  18.844  0.00  0.00    +0.000 NA
ATOM     12  O   UNL     1       0.510   9.970  19.245  0.00  0.00    +0.000 OA
ATOM     13  N   UNL     1       0.571  10.142  20.533  0.00  0.00    +0.000 NA
ATOM     14  C   UNL     1       1.207   9.065  21.013  0.00  0.00    +0.000 A 
ATOM     15  N   UNL     1       1.474   8.875  22.392  0.00  0.00    +0.000 N 
ATOM     16  H   UNL     1       1.156   9.583  23.071  0.00  0.00    +0.000 HD
ATOM     17  H   UNL     1       1.991   8.063  22.748  0.00  0.00    +0.000 HD
ENDBRANCH   2  10
BRANCH   8  18
ATOM     18  C   UNL     1       5.746   4.355  18.451  0.00  0.00    +0.000 C 
ATOM     19  O   UNL     1       6.793   4.509  19.049  0.00  0.00    +0.000 OA
ATOM     20  N   UNL     1       5.804   4.301  17.064  0.00  0.00    +0.000 N 
ATOM     21  C   UNL     1       7.067   4.313  16.343  0.00  0.00    +0.000 C 
ATOM     22  C   UNL     1       6.672   4.015  14.894  0.00  0.00    +0.000 C 
ATOM     23  C   UNL     1       5.321   4.694  14.777  0.00  0.00    +0.000 C 
ATOM     24  C   UNL     1       4.688   4.291  16.118  0.00  0.00    +0.000 C 
BRANCH  23  25
ATOM     25  N   UNL     1       5.489   6.149  14.654  0.00  0.00    +0.000 NA
ATOM     26  H   UNL     1       4.627   6.623  14.304  0.00  0.00    +0.000 HD
ATOM     27  H   UNL     1       6.266   6.352  13.985  0.00  0.00    +0.000 HD
ENDBRANCH  23  25
ENDBRANCH   8  18
BRANCH   1  29
ATOM     28  C   UNL     1       3.656   7.509  17.108  0.00  0.00    +0.000 C 
ATOM     29  C   UNL     1       4.193   7.420  18.540  0.00  0.00    +0.000 C 
ENDBRANCH   1  29
TORSDOF 4
ENDMDL
MODEL 8
REMARK VINA RESULT:      -6.3     10.620     12.757
REMARK  Name = 
REMARK  5 active torsions:
REMARK  status: ('A' for Active; 'I' for Inactive)
REMARK    1  A    between atoms: C_1  and  C_2
REMARK    2  A    between atoms: C_2  and  N_3
REMARK    3  A    between atoms: C_4  and  C_5
REMARK    4  A    between atoms: C_16  and  C_17
REMARK    5  A    between atoms: C_22  and  N_23
REMARK                            x       y       z     vdW  Elec       q    Type
REMARK                         _______ _______ _______ _____ _____    ______ ____
ROOT
ATOM      1  N   UNL     1       7.517  15.915  19.449  0.00  0.00    +0.000 N 
ATOM      2  C   UNL     1       6.675  16.900  18.974  0.00  0.00    +0.000 A 
ATOM      3  N   UNL     1       7.354  17.925  18.430  0.00  0.00    +0.000 NA
ATOM      4  C   UNL     1       8.638  17.594  18.571  0.00  0.00    +0.000 A 
ATOM      5  C   UNL     1       9.701  18.359  18.145  0.00  0.00    +0.000 A 
ATOM      6  N   UNL     1      10.948  17.890  18.355  0.00  0.00    +0.000 NA
ATOM      7  C   UNL     1      11.176  16.702  18.982  0.00  0.00    +0.000 A 
ATOM      8  C   UNL     1      10.122  15.870  19.454  0.00  0.00    +0.000 A 
ATOM      9  C   UNL     1       8.787  16.376  19.198  0.00  0.00    +0.000 A 
ENDROOT
BRANCH   2  10
ATOM     10  C   UNL     1       5.176  16.941  19.042  0.00  0.00    +0.000 A 
ATOM     11  N   UNL     1       4.444  17.792  19.777  0.00  0.00    +0.000 NA
ATOM     12  O   UNL     1       3.192  17.521  19.530  0.00  0.00    +0.000 OA
ATOM     13  N   UNL     1       3.031  16.543  18.688  0.00  0.00    +0.000 NA
ATOM     14  C   UNL     1       4.266  16.140  18.360  0.00  0.00    +0.000 A 
ATOM     15  N   UNL     1       4.518  15.079  17.454  0.00  0.00    +0.000 N 
ATOM     16  H   UNL     1       3.725  14.596  17.007  0.00  0.00    +0.000 HD
ATOM     17  H   UNL     1       5.466  14.754  17.233  0.00  0.00    +0.000 HD
ENDBRANCH   2  10
BRANCH   8  18
ATOM     18  C   UNL     1      10.499  14.535  20.075  0.00  0.00    +0.000 C 
ATOM     19  O   UNL     1      10.859  14.540  21.236  0.00  0.00    +0.000 OA
ATOM     20  N   UNL     1      10.406  13.304  19.439  0.00  0.00    +0.000 N 
ATOM     21  C   UNL     1      10.617  12.051  20.148  0.00  0.00    +0.000 C 
ATOM     22  C   UNL     1      10.201  10.977  19.139  0.00  0.00    +0.000 C 
ATOM     23  C   UNL     1      10.622  11.588  17.817  0.00  0.00    +0.000 C 
ATOM     24  C   UNL     1      10.162  13.041  18.021  0.00  0.00    +0.000 C 
BRANCH  23  25
ATOM     25  N   UNL     1      12.078  11.484  17.646  0.00  0.00    +0.000 NA
ATOM     26  H   UNL     1      12.471  10.619  18.078  0.00  0.00    +0.000 HD
ATOM     27  H   UNL     1      12.538  12.309  18.094  0.00  0.00    +0.000 HD
ENDBRANCH  23  25
ENDBRANCH   8  18
BRANCH   1  29
ATOM     28  C   UNL     1       7.053  14.794  21.589  0.00  0.00    +0.000 C 
ATOM     29  C   UNL     1       7.063  14.659  20.063  0.00  0.00    +0.000 C 
ENDBRANCH   1  29
TORSDOF 4
ENDMDL
MODEL 9
REMARK VINA RESULT:      -6.2     10.328     14.109
REMARK  Name = 
REMARK  5 active torsions:
REMARK  status: ('A' for Active; 'I' for Inactive)
REMARK    1  A    between atoms: C_1  and  C_2
REMARK    2  A    between atoms: C_2  and  N_3
REMARK    3  A    between atoms: C_4  and  C_5
REMARK    4  A    between atoms: C_16  and  C_17
REMARK    5  A    between atoms: C_22  and  N_23
REMARK                            x       y       z     vdW  Elec       q    Type
REMARK                         _______ _______ _______ _____ _____    ______ ____
ROOT
ATOM      1  N   UNL     1      -4.387  12.780  21.132  0.00  0.00    +0.000 N 
ATOM      2  C   UNL     1      -5.744  12.674  21.360  0.00  0.00    +0.000 A 
ATOM      3  N   UNL     1      -6.389  12.124  20.317  0.00  0.00    +0.000 NA
ATOM      4  C   UNL     1      -5.437  11.890  19.414  0.00  0.00    +0.000 A 
ATOM      5  C   UNL     1      -5.644  11.320  18.178  0.00  0.00    +0.000 A 
ATOM      6  N   UNL     1      -4.578  11.143  17.370  0.00  0.00    +0.000 NA
ATOM      7  C   UNL     1      -3.322  11.521  17.740  0.00  0.00    +0.000 A 
ATOM      8  C   UNL     1      -3.043  12.123  18.999  0.00  0.00    +0.000 A 
ATOM      9  C   UNL     1      -4.195  12.284  19.866  0.00  0.00    +0.000 A 
ENDROOT
BRANCH   2  10
ATOM     10  C   UNL     1      -6.513  13.121  22.570  0.00  0.00    +0.000 A 
ATOM     11  N   UNL     1      -6.430  14.327  23.154  0.00  0.00    +0.000 NA
ATOM     12  O   UNL     1      -7.277  14.322  24.146  0.00  0.00    +0.000 OA
ATOM     13  N   UNL     1      -7.916  13.196  24.275  0.00  0.00    +0.000 NA
ATOM     14  C   UNL     1      -7.455  12.403  23.299  0.00  0.00    +0.000 A 
ATOM     15  N   UNL     1      -7.909  11.075  23.102  0.00  0.00    +0.000 N 
ATOM     16  H   UNL     1      -8.640  10.693  23.721  0.00  0.00    +0.000 HD
ATOM     17  H   UNL     1      -7.527  10.462  22.374  0.00  0.00    +0.000 HD
ENDBRANCH   2  10
BRANCH   8  18
ATOM     18  C   UNL     1      -1.593  12.438  19.327  0.00  0.00    +0.000 C 
ATOM     19  O   UNL     1      -1.208  13.573  19.125  0.00  0.00    +0.000 OA
ATOM     20  N   UNL     1      -0.690  11.547  19.894  0.00  0.00    +0.000 N 
ATOM     21  C   UNL     1       0.630  11.965  20.340  0.00  0.00    +0.000 C 
ATOM     22  C   UNL     1       1.175  10.744  21.085  0.00  0.00    +0.000 C 
ATOM     23  C   UNL     1       0.584   9.590  20.299  0.00  0.00    +0.000 C 
ATOM     24  C   UNL     1      -0.848  10.105  20.080  0.00  0.00    +0.000 C 
BRANCH  23  25
ATOM     25  N   UNL     1       1.310   9.406  19.034  0.00  0.00    +0.000 NA
ATOM     26  H   UNL     1       1.366  10.285  18.474  0.00  0.00    +0.000 HD
ATOM     27  H   UNL     1       0.822   8.683  18.458  0.00  0.00    +0.000 HD
ENDBRANCH  23  25
ENDBRANCH   8  18
BRANCH   1  29
ATOM     28  C   UNL     1      -2.845  12.164  22.948  0.00  0.00    +0.000 C 
ATOM     29  C   UNL     1      -3.420  13.308  22.106  0.00  0.00    +0.000 C 
ENDBRANCH   1  29
TORSDOF 4
ENDMDL
