MODEL 1
REMARK VINA RESULT:      -5.8      0.000      0.000
REMARK  Name = 
REMARK  5 active torsions:
REMARK  status: ('A' for Active; 'I' for Inactive)
REMARK    1  A    between atoms: N_1  and  C_2
REMARK    2  A    between atoms: C_2  and  C_3
REMARK    3  A    between atoms: C_3  and  O_4
REMARK    4  A    between atoms: C_3  and  C_5
REMARK    5  A    between atoms: C_8  and  N_9
REMARK                            x       y       z     vdW  Elec       q    Type
REMARK                         _______ _______ _______ _____ _____    ______ ____
ROOT
ATOM      1  C   UNL     1       6.011   4.677  17.850  0.00  0.00    +0.000 A 
ATOM      2  C   UNL     1       5.413   4.145  16.694  0.00  0.00    +0.000 A 
ATOM      3  C   UNL     1       4.083   3.722  16.700  0.00  0.00    +0.000 A 
ATOM      4  C   UNL     1       3.330   3.824  17.876  0.00  0.00    +0.000 A 
ATOM      5  C   UNL     1       3.902   4.337  19.042  0.00  0.00    +0.000 A 
ATOM      6  C   UNL     1       5.237   4.759  19.023  0.00  0.00    +0.000 A 
ENDROOT
BRANCH   4   7
ATOM      7  N   UNL     1       1.926   3.397  17.868  0.00  0.00    +0.000 N 
ATOM      8  O   UNL     1       1.651   2.295  18.364  0.00  0.00    +0.000 OA
ATOM      9  O   UNL     1       1.096   4.171  17.367  0.00  0.00    +0.000 OA
ENDBRANCH   4   7
BRANCH   1  10
ATOM     10  C   UNL     1       7.443   5.183  17.882  0.00  0.00    +0.000 C 
BRANCH  10  11
ATOM     11  O   UNL     1       8.291   4.035  17.775  0.00  0.00    +0.000 OA
ATOM     12  H   UNL     1       7.874   3.434  17.134  0.00  0.00    +0.000 HD
ENDBRANCH  10  11
BRANCH  10  13
ATOM     13  C   UNL     1       7.824   6.032  19.129  0.00  0.00    +0.000 C 
BRANCH  13  14
ATOM     14  N   UNL     1       8.521   5.285  20.180  0.00  0.00    +0.000 NA
ATOM     15  H   UNL     1       9.023   4.502  19.762  0.00  0.00    +0.000 HD
ATOM     16  H   UNL     1       7.840   4.879  20.822  0.00  0.00    +0.000 HD
ENDBRANCH  13  14
ENDBRANCH  10  13
ENDBRANCH   1  10
TORSDOF 5
ENDMDL
MODEL 2
REMARK VINA RESULT:      -5.8      1.733      5.395
REMARK  Name = 
REMARK  5 active torsions:
REMARK  status: ('A' for Active; 'I' for Inactive)
REMARK    1  A    between atoms: N_1  and  C_2
REMARK    2  A    between atoms: C_2  and  C_3
REMARK    3  A    between atoms: C_3  and  O_4
REMARK    4  A    between atoms: C_3  and  C_5
REMARK    5  A    between atoms: C_8  and  N_9
REMARK                            x       y       z     vdW  Elec       q    Type
REMARK                         _______ _______ _______ _____ _____    ______ ____
ROOT
ATOM      1  C   UNL     1       3.272   4.044  18.129  0.00  0.00    +0.000 A 
ATOM      2  C   UNL     1       4.100   4.769  19.006  0.00  0.00    +0.000 A 
ATOM      3  C   UNL     1       5.410   5.098  18.654  0.00  0.00    +0.000 A 
ATOM      4  C   UNL     1       5.913   4.696  17.410  0.00  0.00    +0.000 A 
ATOM      5  C   UNL     1       5.117   3.965  16.525  0.00  0.00    +0.000 A 
ATOM      6  C   UNL     1       3.805   3.642  16.890  0.00  0.00    +0.000 A 
ENDROOT
BRANCH   4   7
ATOM      7  N   UNL     1       7.284   5.065  17.039  0.00  0.00    +0.000 N 
ATOM      8  O   UNL     1       7.469   6.184  16.539  0.00  0.00    +0.000 OA
ATOM      9  O   UNL     1       8.178   4.232  17.251  0.00  0.00    +0.000 OA
ENDBRANCH   4   7
BRANCH   1  10
ATOM     10  C   UNL     1       1.830   3.694  18.454  0.00  0.00    +0.000 C 
BRANCH  10  11
ATOM     11  O   UNL     1       1.028   4.209  17.387  0.00  0.00    +0.000 OA
ATOM     12  H   UNL     1       0.801   5.125  17.620  0.00  0.00    +0.000 HD
ENDBRANCH  10  11
BRANCH  10  13
ATOM     13  C   UNL     1       1.311   4.205  19.828  0.00  0.00    +0.000 C 
BRANCH  13  14
ATOM     14  N   UNL     1       0.816   3.151  20.718  0.00  0.00    +0.000 NA
ATOM     15  H   UNL     1       0.097   3.535  21.330  0.00  0.00    +0.000 HD
ATOM     16  H   UNL     1       1.570   2.832  21.326  0.00  0.00    +0.000 HD
ENDBRANCH  13  14
ENDBRANCH  10  13
ENDBRANCH   1  10
TORSDOF 5
ENDMDL
MODEL 3
REMARK VINA RESULT:      -5.8      1.647      5.167
REMARK  Name = 
REMARK  5 active torsions:
REMARK  status: ('A' for Active; 'I' for Inactive)
REMARK    1  A    between atoms: N_1  and  C_2
REMARK    2  A    between atoms: C_2  and  C_3
REMARK    3  A    between atoms: C_3  and  O_4
REMARK    4  A    between atoms: C_3  and  C_5
REMARK    5  A    between atoms: C_8  and  N_9
REMARK                            x       y       z     vdW  Elec       q    Type
REMARK                         _______ _______ _______ _____ _____    ______ ____
ROOT
ATOM      1  C   UNL     1       3.314   3.903  18.180  0.00  0.00    +0.000 A 
ATOM      2  C   UNL     1       3.809   3.869  16.864  0.00  0.00    +0.000 A 
ATOM      3  C   UNL     1       5.136   4.199  16.583  0.00  0.00    +0.000 A 
ATOM      4  C   UNL     1       5.990   4.576  17.627  0.00  0.00    +0.000 A 
ATOM      5  C   UNL     1       5.522   4.631  18.942  0.00  0.00    +0.000 A 
ATOM      6  C   UNL     1       4.190   4.296  19.210  0.00  0.00    +0.000 A 
ENDROOT
BRANCH   4   7
ATOM      7  N   UNL     1       7.389   4.901  17.327  0.00  0.00    +0.000 N 
ATOM      8  O   UNL     1       8.266   4.122  17.729  0.00  0.00    +0.000 OA
ATOM      9  O   UNL     1       7.610   5.937  16.682  0.00  0.00    +0.000 OA
ENDBRANCH   4   7
BRANCH   1  10
ATOM     10  C   UNL     1       1.890   3.518  18.538  0.00  0.00    +0.000 C 
BRANCH  10  11
ATOM     11  O   UNL     1       1.061   3.933  17.448  0.00  0.00    +0.000 OA
ATOM     12  H   UNL     1       0.150   3.679  17.671  0.00  0.00    +0.000 HD
ENDBRANCH  10  11
BRANCH  10  13
ATOM     13  C   UNL     1       1.359   4.095  19.882  0.00  0.00    +0.000 C 
BRANCH  13  14
ATOM     14  N   UNL     1       0.801   3.092  20.792  0.00  0.00    +0.000 NA
ATOM     15  H   UNL     1       0.163   3.545  21.445  0.00  0.00    +0.000 HD
ATOM     16  H   UNL     1       1.548   2.686  21.357  0.00  0.00    +0.000 HD
ENDBRANCH  13  14
ENDBRANCH  10  13
ENDBRANCH   1  10
TORSDOF 5
ENDMDL
MODEL 4
REMARK VINA RESULT:      -5.7      2.270      2.430
REMARK  Name = 
REMARK  5 active torsions:
REMARK  status: ('A' for Active; 'I' for Inactive)
REMARK    1  A    between atoms: N_1  and  C_2
REMARK    2  A    between atoms: C_2  and  C_3
REMARK    3  A    between atoms: C_3  and  O_4
REMARK    4  A    between atoms: C_3  and  C_5
REMARK    5  A    between atoms: C_8  and  N_9
REMARK                            x       y       z     vdW  Elec       q    Type
REMARK                         _______ _______ _______ _____ _____    ______ ____
ROOT
ATOM      1  C   UNL     1       4.643   5.036  17.061  0.00  0.00    +0.000 A 
ATOM      2  C   UNL     1       4.324   3.671  16.947  0.00  0.00    +0.000 A 
ATOM      3  C   UNL     1       3.190   3.142  17.564  0.00  0.00    +0.000 A 
ATOM      4  C   UNL     1       2.355   3.981  18.314  0.00  0.00    +0.000 A 
ATOM      5  C   UNL     1       2.655   5.337  18.454  0.00  0.00    +0.000 A 
ATOM      6  C   UNL     1       3.795   5.856  17.830  0.00  0.00    +0.000 A 
ENDROOT
BRANCH   4   7
ATOM      7  N   UNL     1       1.153   3.421  18.941  0.00  0.00    +0.000 N 
ATOM      8  O   UNL     1       0.748   3.943  19.990  0.00  0.00    +0.000 OA
ATOM      9  O   UNL     1       0.611   2.457  18.379  0.00  0.00    +0.000 OA
ENDBRANCH   4   7
BRANCH   1  10
ATOM     10  C   UNL     1       5.847   5.664  16.380  0.00  0.00    +0.000 C 
BRANCH  10  11
ATOM     11  O   UNL     1       5.351   6.399  15.256  0.00  0.00    +0.000 OA
ATOM     12  H   UNL     1       6.103   6.543  14.657  0.00  0.00    +0.000 HD
ENDBRANCH  10  11
BRANCH  10  13
ATOM     13  C   UNL     1       6.959   4.670  15.939  0.00  0.00    +0.000 C 
BRANCH  13  14
ATOM     14  N   UNL     1       7.867   4.263  17.015  0.00  0.00    +0.000 NA
ATOM     15  H   UNL     1       7.727   4.868  17.823  0.00  0.00    +0.000 HD
ATOM     16  H   UNL     1       8.834   4.398  16.719  0.00  0.00    +0.000 HD
ENDBRANCH  13  14
ENDBRANCH  10  13
ENDBRANCH   1  10
TORSDOF 5
ENDMDL
MODEL 5
REMARK VINA RESULT:      -5.7      0.837      1.575
REMARK  Name = 
REMARK  5 active torsions:
REMARK  status: ('A' for Active; 'I' for Inactive)
REMARK    1  A    between atoms: N_1  and  C_2
REMARK    2  A    between atoms: C_2  and  C_3
REMARK    3  A    between atoms: C_3  and  O_4
REMARK    4  A    between atoms: C_3  and  C_5
REMARK    5  A    between atoms: C_8  and  N_9
REMARK                            x       y       z     vdW  Elec       q    Type
REMARK                         _______ _______ _______ _____ _____    ______ ____
ROOT
ATOM      1  C   UNL     1       5.718   5.002  18.132  0.00  0.00    +0.000 A 
ATOM      2  C   UNL     1       4.978   5.341  19.279  0.00  0.00    +0.000 A 
ATOM      3  C   UNL     1       3.620   5.032  19.379  0.00  0.00    +0.000 A 
ATOM      4  C   UNL     1       2.980   4.378  18.318  0.00  0.00    +0.000 A 
ATOM      5  C   UNL     1       3.688   4.041  17.163  0.00  0.00    +0.000 A 
ATOM      6  C   UNL     1       5.049   4.355  17.075  0.00  0.00    +0.000 A 
ENDROOT
BRANCH   4   7
ATOM      7  N   UNL     1       1.558   4.038  18.440  0.00  0.00    +0.000 N 
ATOM      8  O   UNL     1       1.060   4.024  19.575  0.00  0.00    +0.000 OA
ATOM      9  O   UNL     1       0.938   3.787  17.396  0.00  0.00    +0.000 OA
ENDBRANCH   4   7
BRANCH   1  10
ATOM     10  C   UNL     1       7.204   5.285  17.992  0.00  0.00    +0.000 C 
BRANCH  10  11
ATOM     11  O   UNL     1       7.858   4.018  17.875  0.00  0.00    +0.000 OA
ATOM     12  H   UNL     1       8.815   4.194  17.859  0.00  0.00    +0.000 HD
ENDBRANCH  10  11
BRANCH  10  13
ATOM     13  C   UNL     1       7.834   6.125  19.140  0.00  0.00    +0.000 C 
BRANCH  13  14
ATOM     14  N   UNL     1       8.183   5.351  20.334  0.00  0.00    +0.000 NA
ATOM     15  H   UNL     1       7.359   4.850  20.666  0.00  0.00    +0.000 HD
ATOM     16  H   UNL     1       8.456   5.983  21.087  0.00  0.00    +0.000 HD
ENDBRANCH  13  14
ENDBRANCH  10  13
ENDBRANCH   1  10
TORSDOF 5
ENDMDL
MODEL 6
REMARK VINA RESULT:      -5.7      2.659      2.979
REMARK  Name = 
REMARK  5 active torsions:
REMARK  status: ('A' for Active; 'I' for Inactive)
REMARK    1  A    between atoms: N_1  and  C_2
REMARK    2  A    between atoms: C_2  and  C_3
REMARK    3  A    between atoms: C_3  and  O_4
REMARK    4  A    between atoms: C_3  and  C_5
REMARK    5  A    between atoms: C_8  and  N_9
REMARK                            x       y       z     vdW  Elec       q    Type
REMARK                         _______ _______ _______ _____ _____    ______ ____
ROOT
ATOM      1  C   UNL     1       4.491   5.365  17.014  0.00  0.00    +0.000 A 
ATOM      2  C   UNL     1       3.588   6.103  17.800  0.00  0.00    +0.000 A 
ATOM      3  C   UNL     1       2.500   5.486  18.420  0.00  0.00    +0.000 A 
ATOM      4  C   UNL     1       2.298   4.110  18.254  0.00  0.00    +0.000 A 
ATOM      5  C   UNL     1       3.172   3.355  17.469  0.00  0.00    +0.000 A 
ATOM      6  C   UNL     1       4.260   3.985  16.853  0.00  0.00    +0.000 A 
ENDROOT
BRANCH   4   7
ATOM      7  N   UNL     1       1.165   3.466  18.927  0.00  0.00    +0.000 N 
ATOM      8  O   UNL     1       0.643   2.486  18.376  0.00  0.00    +0.000 OA
ATOM      9  O   UNL     1       0.799   3.940  20.013  0.00  0.00    +0.000 OA
ENDBRANCH   4   7
BRANCH   1  10
ATOM     10  C   UNL     1       5.707   5.985  16.349  0.00  0.00    +0.000 C 
BRANCH  10  11
ATOM     11  O   UNL     1       5.228   6.755  15.242  0.00  0.00    +0.000 OA
ATOM     12  H   UNL     1       4.813   6.132  14.622  0.00  0.00    +0.000 HD
ENDBRANCH  10  11
BRANCH  10  13
ATOM     13  C   UNL     1       6.801   4.980  15.887  0.00  0.00    +0.000 C 
BRANCH  13  14
ATOM     14  N   UNL     1       7.490   5.362  14.651  0.00  0.00    +0.000 NA
ATOM     15  H   UNL     1       8.450   5.020  14.679  0.00  0.00    +0.000 HD
ATOM     16  H   UNL     1       7.550   6.379  14.591  0.00  0.00    +0.000 HD
ENDBRANCH  13  14
ENDBRANCH  10  13
ENDBRANCH   1  10
TORSDOF 5
ENDMDL
MODEL 7
REMARK VINA RESULT:      -5.7      2.068      5.349
REMARK  Name = 
REMARK  5 active torsions:
REMARK  status: ('A' for Active; 'I' for Inactive)
REMARK    1  A    between atoms: N_1  and  C_2
REMARK    2  A    between atoms: C_2  and  C_3
REMARK    3  A    between atoms: C_3  and  O_4
REMARK    4  A    between atoms: C_3  and  C_5
REMARK    5  A    between atoms: C_8  and  N_9
REMARK                            x       y       z     vdW  Elec       q    Type
REMARK                         _______ _______ _______ _____ _____    ______ ____
ROOT
ATOM      1  C   UNL     1       3.404   4.603  18.535  0.00  0.00    +0.000 A 
ATOM      2  C   UNL     1       4.496   5.016  19.320  0.00  0.00    +0.000 A 
ATOM      3  C   UNL     1       5.799   4.970  18.823  0.00  0.00    +0.000 A 
ATOM      4  C   UNL     1       6.028   4.501  17.523  0.00  0.00    +0.000 A 
ATOM      5  C   UNL     1       4.964   4.074  16.726  0.00  0.00    +0.000 A 
ATOM      6  C   UNL     1       3.661   4.125  17.235  0.00  0.00    +0.000 A 
ENDROOT
BRANCH   4   7
ATOM      7  N   UNL     1       7.399   4.476  17.001  0.00  0.00    +0.000 N 
ATOM      8  O   UNL     1       7.574   4.792  15.815  0.00  0.00    +0.000 OA
ATOM      9  O   UNL     1       8.303   4.144  17.782  0.00  0.00    +0.000 OA
ENDBRANCH   4   7
BRANCH   1  10
ATOM     10  C   UNL     1       1.966   4.668  19.019  0.00  0.00    +0.000 C 
BRANCH  10  11
ATOM     11  O   UNL     1       1.965   5.459  20.212  0.00  0.00    +0.000 OA
ATOM     12  H   UNL     1       1.735   4.864  20.946  0.00  0.00    +0.000 HD
ENDBRANCH  10  11
BRANCH  10  13
ATOM     13  C   UNL     1       1.283   3.293  19.271  0.00  0.00    +0.000 C 
BRANCH  13  14
ATOM     14  N   UNL     1       0.762   3.117  20.629  0.00  0.00    +0.000 NA
ATOM     15  H   UNL     1       1.523   3.223  21.300  0.00  0.00    +0.000 HD
ATOM     16  H   UNL     1       0.411   2.166  20.742  0.00  0.00    +0.000 HD
ENDBRANCH  13  14
ENDBRANCH  10  13
ENDBRANCH   1  10
TORSDOF 5
ENDMDL
MODEL 8
REMARK VINA RESULT:      -5.6      2.487      5.349
REMARK  Name = 
REMARK  5 active torsions:
REMARK  status: ('A' for Active; 'I' for Inactive)
REMARK    1  A    between atoms: N_1  and  C_2
REMARK    2  A    between atoms: C_2  and  C_3
REMARK    3  A    between atoms: C_3  and  O_4
REMARK    4  A    between atoms: C_3  and  C_5
REMARK    5  A    between atoms: C_8  and  N_9
REMARK                            x       y       z     vdW  Elec       q    Type
REMARK                         _______ _______ _______ _____ _____    ______ ____
ROOT
ATOM      1  C   UNL     1       3.459   5.197  18.936  0.00  0.00    +0.000 A 
ATOM      2  C   UNL     1       4.547   4.374  19.277  0.00  0.00    +0.000 A 
ATOM      3  C   UNL     1       5.763   4.467  18.597  0.00  0.00    +0.000 A 
ATOM      4  C   UNL     1       5.902   5.391  17.553  0.00  0.00    +0.000 A 
ATOM      5  C   UNL     1       4.834   6.212  17.186  0.00  0.00    +0.000 A 
ATOM      6  C   UNL     1       3.621   6.110  17.876  0.00  0.00    +0.000 A 
ENDROOT
BRANCH   4   7
ATOM      7  N   UNL     1       7.190   5.497  16.858  0.00  0.00    +0.000 N 
ATOM      8  O   UNL     1       7.529   6.610  16.429  0.00  0.00    +0.000 OA
ATOM      9  O   UNL     1       7.866   4.463  16.745  0.00  0.00    +0.000 OA
ENDBRANCH   4   7
BRANCH   1  10
ATOM     10  C   UNL     1       2.130   5.158  19.670  0.00  0.00    +0.000 C 
BRANCH  10  11
ATOM     11  O   UNL     1       2.418   5.328  21.061  0.00  0.00    +0.000 OA
ATOM     12  H   UNL     1       1.605   5.114  21.548  0.00  0.00    +0.000 HD
ENDBRANCH  10  11
BRANCH  10  13
ATOM     13  C   UNL     1       1.277   3.877  19.439  0.00  0.00    +0.000 C 
BRANCH  13  14
ATOM     14  N   UNL     1       0.764   3.263  20.667  0.00  0.00    +0.000 NA
ATOM     15  H   UNL     1       0.795   3.944  21.425  0.00  0.00    +0.000 HD
ATOM     16  H   UNL     1       1.374   2.494  20.948  0.00  0.00    +0.000 HD
ENDBRANCH  13  14
ENDBRANCH  10  13
ENDBRANCH   1  10
TORSDOF 5
ENDMDL
MODEL 9
REMARK VINA RESULT:      -5.6      2.736      2.888
REMARK  Name = 
REMARK  5 active torsions:
REMARK  status: ('A' for Active; 'I' for Inactive)
REMARK    1  A    between atoms: N_1  and  C_2
REMARK    2  A    between atoms: C_2  and  C_3
REMARK    3  A    between atoms: C_3  and  O_4
REMARK    4  A    between atoms: C_3  and  C_5
REMARK    5  A    between atoms: C_8  and  N_9
REMARK                            x       y       z     vdW  Elec       q    Type
REMARK                         _______ _______ _______ _____ _____    ______ ____
ROOT
ATOM      1  C   UNL     1       4.536   5.087  16.923  0.00  0.00    +0.000 A 
ATOM      2  C   UNL     1       4.276   3.705  16.917  0.00  0.00    +0.000 A 
ATOM      3  C   UNL     1       3.190   3.173  17.614  0.00  0.00    +0.000 A 
ATOM      4  C   UNL     1       2.347   4.027  18.337  0.00  0.00    +0.000 A 
ATOM      5  C   UNL     1       2.589   5.401  18.370  0.00  0.00    +0.000 A 
ATOM      6  C   UNL     1       3.681   5.923  17.666  0.00  0.00    +0.000 A 
ENDROOT
BRANCH   4   7
ATOM      7  N   UNL     1       1.195   3.462  19.049  0.00  0.00    +0.000 N 
ATOM      8  O   UNL     1       0.690   2.421  18.604  0.00  0.00    +0.000 OA
ATOM      9  O   UNL     1       0.798   4.060  20.060  0.00  0.00    +0.000 OA
ENDBRANCH   4   7
BRANCH   1  10
ATOM     10  C   UNL     1       5.684   5.716  16.151  0.00  0.00    +0.000 C 
BRANCH  10  11
ATOM     11  O   UNL     1       5.130   6.791  15.387  0.00  0.00    +0.000 OA
ATOM     12  H   UNL     1       5.184   6.532  14.451  0.00  0.00    +0.000 HD
ENDBRANCH  10  11
BRANCH  10  13
ATOM     13  C   UNL     1       6.484   4.746  15.235  0.00  0.00    +0.000 C 
BRANCH  13  14
ATOM     14  N   UNL     1       7.588   5.376  14.506  0.00  0.00    +0.000 NA
ATOM     15  H   UNL     1       7.231   6.165  13.967  0.00  0.00    +0.000 HD
ATOM     16  H   UNL     1       7.973   4.717  13.829  0.00  0.00    +0.000 HD
ENDBRANCH  13  14
ENDBRANCH  10  13
ENDBRANCH   1  10
TORSDOF 5
ENDMDL
