MODEL 1
REMARK VINA RESULT:      -7.5      0.000      0.000
REMARK  Name = 
REMARK  6 active torsions:
REMARK  status: ('A' for Active; 'I' for Inactive)
REMARK    1  A    between atoms: C_1  and  C_2
REMARK    2  A    between atoms: C_2  and  C_3
REMARK    3  A    between atoms: C_6  and  C_7
REMARK    4  A    between atoms: C_9  and  N_10
REMARK    5  A    between atoms: C_11  and  C_13
REMARK    6  A    between atoms: C_19  and  C_20
REMARK                            x       y       z     vdW  Elec       q    Type
REMARK                         _______ _______ _______ _____ _____    ______ ____
ROOT
ATOM      1  C   UNL     1       4.469   5.246  16.831  0.00  0.00    +0.000 A 
ATOM      2  C   UNL     1       4.092   6.375  17.525  0.00  0.00    +0.000 A 
ATOM      3  C   UNL     1       3.023   6.164  18.462  0.00  0.00    +0.000 A 
ATOM      4  C   UNL     1       2.633   4.828  18.448  0.00  0.00    +0.000 A 
ATOM      5  C   UNL     1       1.634   4.046  19.236  0.00  0.00    +0.000 C 
ATOM      6  S   UNL     1       3.511   3.918  17.277  0.00  0.00    +0.000 S 
ENDROOT
BRANCH   1  10
ATOM      7  C   UNL     1       6.624   4.622  14.108  0.00  0.00    +0.000 A 
ATOM      8  N   UNL     1       7.413   5.383  14.828  0.00  0.00    +0.000 NA
ATOM      9  N   UNL     1       6.698   5.706  15.960  0.00  0.00    +0.000 NA
ATOM     10  C   UNL     1       5.518   5.128  15.861  0.00  0.00    +0.000 A 
ATOM     11  O   UNL     1       5.404   4.410  14.685  0.00  0.00    +0.000 OA
BRANCH   7  13
ATOM     12  C   UNL     1       5.654   3.282  12.259  0.00  0.00    +0.000 C 
ATOM     13  C   UNL     1       6.879   4.011  12.783  0.00  0.00    +0.000 C 
ENDBRANCH   7  13
ENDBRANCH   1  10
BRANCH   3  14
ATOM     14  N   UNL     1       2.459   7.158  19.274  0.00  0.00    +0.000 N 
ATOM     15  C   UNL     1       1.841   8.306  18.780  0.00  0.00    +0.000 C 
ATOM     16  O   UNL     1       1.738   8.628  17.600  0.00  0.00    +0.000 OA
ATOM     17  H   UNL     1       2.469   7.035  20.282  0.00  0.00    +0.000 HD
BRANCH  15  18
ATOM     18  C   UNL     1       1.235   9.218  19.789  0.00  0.00    +0.000 A 
ATOM     19  C   UNL     1       1.292   8.867  21.136  0.00  0.00    +0.000 A 
ATOM     20  N   UNL     1       0.846   9.683  22.125  0.00  0.00    +0.000 NA
ATOM     21  C   UNL     1       0.343  10.864  21.707  0.00  0.00    +0.000 A 
ATOM     22  C   UNL     1       0.262  11.204  20.362  0.00  0.00    +0.000 A 
ATOM     23  N   UNL     1       0.698  10.394  19.361  0.00  0.00    +0.000 NA
ENDBRANCH  15  18
ENDBRANCH   3  14
TORSDOF 4
ENDMDL
MODEL 2
REMARK VINA RESULT:      -7.5      1.361      1.579
REMARK  Name = 
REMARK  6 active torsions:
REMARK  status: ('A' for Active; 'I' for Inactive)
REMARK    1  A    between atoms: C_1  and  C_2
REMARK    2  A    between atoms: C_2  and  C_3
REMARK    3  A    between atoms: C_6  and  C_7
REMARK    4  A    between atoms: C_9  and  N_10
REMARK    5  A    between atoms: C_11  and  C_13
REMARK    6  A    between atoms: C_19  and  C_20
REMARK                            x       y       z     vdW  Elec       q    Type
REMARK                         _______ _______ _______ _____ _____    ______ ____
ROOT
ATOM      1  C   UNL     1       4.191   5.015  18.449  0.00  0.00    +0.000 A 
ATOM      2  C   UNL     1       3.733   6.145  19.092  0.00  0.00    +0.000 A 
ATOM      3  C   UNL     1       2.539   5.941  19.865  0.00  0.00    +0.000 A 
ATOM      4  C   UNL     1       2.139   4.612  19.784  0.00  0.00    +0.000 A 
ATOM      5  C   UNL     1       1.027   3.838  20.414  0.00  0.00    +0.000 C 
ATOM      6  S   UNL     1       3.163   3.697  18.742  0.00  0.00    +0.000 S 
ENDROOT
BRANCH   1  10
ATOM      7  C   UNL     1       6.673   4.630  15.971  0.00  0.00    +0.000 A 
ATOM      8  N   UNL     1       7.446   4.868  17.004  0.00  0.00    +0.000 NA
ATOM      9  N   UNL     1       6.600   5.032  18.079  0.00  0.00    +0.000 NA
ATOM     10  C   UNL     1       5.367   4.889  17.638  0.00  0.00    +0.000 A 
ATOM     11  O   UNL     1       5.343   4.626  16.281  0.00  0.00    +0.000 OA
BRANCH   7  13
ATOM     12  C   UNL     1       5.858   4.009  13.712  0.00  0.00    +0.000 C 
ATOM     13  C   UNL     1       7.057   4.399  14.559  0.00  0.00    +0.000 C 
ENDBRANCH   7  13
ENDBRANCH   1  10
BRANCH   3  14
ATOM     14  N   UNL     1       1.877   6.938  20.596  0.00  0.00    +0.000 N 
ATOM     15  C   UNL     1       1.510   8.175  20.068  0.00  0.00    +0.000 C 
ATOM     16  O   UNL     1       1.741   8.580  18.932  0.00  0.00    +0.000 OA
ATOM     17  H   UNL     1       1.619   6.752  21.561  0.00  0.00    +0.000 HD
BRANCH  15  18
ATOM     18  C   UNL     1       0.751   9.082  20.971  0.00  0.00    +0.000 A 
ATOM     19  C   UNL     1       0.986   9.021  22.343  0.00  0.00    +0.000 A 
ATOM     20  N   UNL     1       0.405   9.873  23.226  0.00  0.00    +0.000 NA
ATOM     21  C   UNL     1      -0.420  10.789  22.675  0.00  0.00    +0.000 A 
ATOM     22  C   UNL     1      -0.676  10.835  21.310  0.00  0.00    +0.000 A 
ATOM     23  N   UNL     1      -0.106   9.984  20.416  0.00  0.00    +0.000 NA
ENDBRANCH  15  18
ENDBRANCH   3  14
TORSDOF 4
ENDMDL
MODEL 3
REMARK VINA RESULT:      -7.5      0.664      1.094
REMARK  Name = 
REMARK  6 active torsions:
REMARK  status: ('A' for Active; 'I' for Inactive)
REMARK    1  A    between atoms: C_1  and  C_2
REMARK    2  A    between atoms: C_2  and  C_3
REMARK    3  A    between atoms: C_6  and  C_7
REMARK    4  A    between atoms: C_9  and  N_10
REMARK    5  A    between atoms: C_11  and  C_13
REMARK    6  A    between atoms: C_19  and  C_20
REMARK                            x       y       z     vdW  Elec       q    Type
REMARK                         _______ _______ _______ _____ _____    ______ ____
ROOT
ATOM      1  C   UNL     1       4.582   5.221  16.672  0.00  0.00    +0.000 A 
ATOM      2  C   UNL     1       4.158   6.377  17.293  0.00  0.00    +0.000 A 
ATOM      3  C   UNL     1       3.123   6.178  18.269  0.00  0.00    +0.000 A 
ATOM      4  C   UNL     1       2.808   4.826  18.362  0.00  0.00    +0.000 A 
ATOM      5  C   UNL     1       1.870   4.051  19.229  0.00  0.00    +0.000 C 
ATOM      6  S   UNL     1       3.708   3.880  17.237  0.00  0.00    +0.000 S 
ENDROOT
BRANCH   1  10
ATOM      7  C   UNL     1       6.683   4.578  13.913  0.00  0.00    +0.000 A 
ATOM      8  N   UNL     1       7.502   5.308  14.632  0.00  0.00    +0.000 NA
ATOM      9  N   UNL     1       6.811   5.634  15.778  0.00  0.00    +0.000 NA
ATOM     10  C   UNL     1       5.614   5.089  15.687  0.00  0.00    +0.000 A 
ATOM     11  O   UNL     1       5.466   4.390  14.504  0.00  0.00    +0.000 OA
BRANCH   7  13
ATOM     12  C   UNL     1       5.708   3.159  12.126  0.00  0.00    +0.000 C 
ATOM     13  C   UNL     1       6.906   3.978  12.576  0.00  0.00    +0.000 C 
ENDBRANCH   7  13
ENDBRANCH   1  10
BRANCH   3  14
ATOM     14  N   UNL     1       2.522   7.197  19.022  0.00  0.00    +0.000 N 
ATOM     15  C   UNL     1       2.044   8.387  18.475  0.00  0.00    +0.000 C 
ATOM     16  O   UNL     1       2.110   8.727  17.297  0.00  0.00    +0.000 OA
ATOM     17  H   UNL     1       2.397   7.064  20.021  0.00  0.00    +0.000 HD
BRANCH  15  18
ATOM     18  C   UNL     1       1.371   9.325  19.416  0.00  0.00    +0.000 A 
ATOM     19  C   UNL     1       0.971  10.575  18.950  0.00  0.00    +0.000 A 
ATOM     20  N   UNL     1       0.272  11.453  19.714  0.00  0.00    +0.000 NA
ATOM     21  C   UNL     1      -0.011  11.023  20.963  0.00  0.00    +0.000 A 
ATOM     22  C   UNL     1       0.411   9.786  21.437  0.00  0.00    +0.000 A 
ATOM     23  N   UNL     1       1.117   8.901  20.685  0.00  0.00    +0.000 NA
ENDBRANCH  15  18
ENDBRANCH   3  14
TORSDOF 4
ENDMDL
MODEL 4
REMARK VINA RESULT:      -7.3      1.849      2.835
REMARK  Name = 
REMARK  6 active torsions:
REMARK  status: ('A' for Active; 'I' for Inactive)
REMARK    1  A    between atoms: C_1  and  C_2
REMARK    2  A    between atoms: C_2  and  C_3
REMARK    3  A    between atoms: C_6  and  C_7
REMARK    4  A    between atoms: C_9  and  N_10
REMARK    5  A    between atoms: C_11  and  C_13
REMARK    6  A    between atoms: C_19  and  C_20
REMARK                            x       y       z     vdW  Elec       q    Type
REMARK                         _______ _______ _______ _____ _____    ______ ____
ROOT
ATOM      1  C   UNL     1       6.129   5.054  15.374  0.00  0.00    +0.000 A 
ATOM      2  C   UNL     1       5.151   5.959  15.727  0.00  0.00    +0.000 A 
ATOM      3  C   UNL     1       5.148   6.313  17.120  0.00  0.00    +0.000 A 
ATOM      4  C   UNL     1       6.174   5.649  17.783  0.00  0.00    +0.000 A 
ATOM      5  C   UNL     1       6.667   5.677  19.193  0.00  0.00    +0.000 C 
ATOM      6  S   UNL     1       7.038   4.592  16.731  0.00  0.00    +0.000 S 
ENDROOT
BRANCH   1  10
ATOM      7  C   UNL     1       6.334   3.382  12.275  0.00  0.00    +0.000 A 
ATOM      8  N   UNL     1       7.263   4.288  12.084  0.00  0.00    +0.000 NA
ATOM      9  N   UNL     1       7.311   5.031  13.243  0.00  0.00    +0.000 NA
ATOM     10  C   UNL     1       6.409   4.537  14.067  0.00  0.00    +0.000 A 
ATOM     11  O   UNL     1       5.741   3.467  13.502  0.00  0.00    +0.000 OA
BRANCH   7  13
ATOM     12  C   UNL     1       6.928   1.295  11.072  0.00  0.00    +0.000 C 
ATOM     13  C   UNL     1       5.855   2.334  11.343  0.00  0.00    +0.000 C 
ENDBRANCH   7  13
ENDBRANCH   1  10
BRANCH   3  14
ATOM     14  N   UNL     1       4.244   7.201  17.720  0.00  0.00    +0.000 N 
ATOM     15  C   UNL     1       3.009   6.820  18.241  0.00  0.00    +0.000 C 
ATOM     16  O   UNL     1       2.526   5.691  18.218  0.00  0.00    +0.000 OA
ATOM     17  H   UNL     1       4.502   8.180  17.811  0.00  0.00    +0.000 HD
BRANCH  15  18
ATOM     18  C   UNL     1       2.212   7.887  18.906  0.00  0.00    +0.000 A 
ATOM     19  C   UNL     1       1.784   8.977  18.152  0.00  0.00    +0.000 A 
ATOM     20  N   UNL     1       0.978   9.946  18.655  0.00  0.00    +0.000 NA
ATOM     21  C   UNL     1       0.617   9.774  19.945  0.00  0.00    +0.000 A 
ATOM     22  C   UNL     1       1.064   8.700  20.706  0.00  0.00    +0.000 A 
ATOM     23  N   UNL     1       1.877   7.727  20.216  0.00  0.00    +0.000 NA
ENDBRANCH  15  18
ENDBRANCH   3  14
TORSDOF 4
ENDMDL
MODEL 5
REMARK VINA RESULT:      -7.3      1.288      1.533
REMARK  Name = 
REMARK  6 active torsions:
REMARK  status: ('A' for Active; 'I' for Inactive)
REMARK    1  A    between atoms: C_1  and  C_2
REMARK    2  A    between atoms: C_2  and  C_3
REMARK    3  A    between atoms: C_6  and  C_7
REMARK    4  A    between atoms: C_9  and  N_10
REMARK    5  A    between atoms: C_11  and  C_13
REMARK    6  A    between atoms: C_19  and  C_20
REMARK                            x       y       z     vdW  Elec       q    Type
REMARK                         _______ _______ _______ _____ _____    ______ ____
ROOT
ATOM      1  C   UNL     1       3.848   5.508  18.000  0.00  0.00    +0.000 A 
ATOM      2  C   UNL     1       3.251   6.604  18.585  0.00  0.00    +0.000 A 
ATOM      3  C   UNL     1       2.543   6.312  19.801  0.00  0.00    +0.000 A 
ATOM      4  C   UNL     1       2.652   4.958  20.103  0.00  0.00    +0.000 A 
ATOM      5  C   UNL     1       2.175   4.125  21.248  0.00  0.00    +0.000 C 
ATOM      6  S   UNL     1       3.530   4.101  18.894  0.00  0.00    +0.000 S 
ENDROOT
BRANCH   1  10
ATOM      7  C   UNL     1       5.635   4.833  15.034  0.00  0.00    +0.000 A 
ATOM      8  N   UNL     1       5.891   6.114  15.143  0.00  0.00    +0.000 NA
ATOM      9  N   UNL     1       5.254   6.530  16.292  0.00  0.00    +0.000 NA
ATOM     10  C   UNL     1       4.647   5.481  16.809  0.00  0.00    +0.000 A 
ATOM     11  O   UNL     1       4.854   4.349  16.044  0.00  0.00    +0.000 OA
BRANCH   7  13
ATOM     12  C   UNL     1       7.090   4.514  13.049  0.00  0.00    +0.000 C 
ATOM     13  C   UNL     1       6.057   3.890  13.972  0.00  0.00    +0.000 C 
ENDBRANCH   7  13
ENDBRANCH   1  10
BRANCH   3  14
ATOM     14  N   UNL     1       1.847   7.255  20.570  0.00  0.00    +0.000 N 
ATOM     15  C   UNL     1       1.373   8.468  20.071  0.00  0.00    +0.000 C 
ATOM     16  O   UNL     1       1.524   8.895  18.930  0.00  0.00    +0.000 OA
ATOM     17  H   UNL     1       1.646   7.045  21.544  0.00  0.00    +0.000 HD
BRANCH  15  18
ATOM     18  C   UNL     1       0.593   9.313  21.016  0.00  0.00    +0.000 A 
ATOM     19  C   UNL     1       0.782   9.145  22.386  0.00  0.00    +0.000 A 
ATOM     20  N   UNL     1       0.182   9.935  23.312  0.00  0.00    +0.000 NA
ATOM     21  C   UNL     1      -0.614  10.902  22.806  0.00  0.00    +0.000 A 
ATOM     22  C   UNL     1      -0.824  11.055  21.441  0.00  0.00    +0.000 A 
ATOM     23  N   UNL     1      -0.234  10.266  20.503  0.00  0.00    +0.000 NA
ENDBRANCH  15  18
ENDBRANCH   3  14
TORSDOF 4
ENDMDL
MODEL 6
REMARK VINA RESULT:      -7.2      1.914      2.637
REMARK  Name = 
REMARK  6 active torsions:
REMARK  status: ('A' for Active; 'I' for Inactive)
REMARK    1  A    between atoms: C_1  and  C_2
REMARK    2  A    between atoms: C_2  and  C_3
REMARK    3  A    between atoms: C_6  and  C_7
REMARK    4  A    between atoms: C_9  and  N_10
REMARK    5  A    between atoms: C_11  and  C_13
REMARK    6  A    between atoms: C_19  and  C_20
REMARK                            x       y       z     vdW  Elec       q    Type
REMARK                         _______ _______ _______ _____ _____    ______ ____
ROOT
ATOM      1  C   UNL     1       6.154   5.063  15.369  0.00  0.00    +0.000 A 
ATOM      2  C   UNL     1       5.167   5.962  15.715  0.00  0.00    +0.000 A 
ATOM      3  C   UNL     1       5.143   6.306  17.109  0.00  0.00    +0.000 A 
ATOM      4  C   UNL     1       6.164   5.643  17.782  0.00  0.00    +0.000 A 
ATOM      5  C   UNL     1       6.638   5.664  19.199  0.00  0.00    +0.000 C 
ATOM      6  S   UNL     1       7.047   4.596  16.735  0.00  0.00    +0.000 S 
ENDROOT
BRANCH   1  10
ATOM      7  C   UNL     1       6.403   3.415  12.260  0.00  0.00    +0.000 A 
ATOM      8  N   UNL     1       7.340   4.318  12.092  0.00  0.00    +0.000 NA
ATOM      9  N   UNL     1       7.371   5.051  13.259  0.00  0.00    +0.000 NA
ATOM     10  C   UNL     1       6.453   4.555  14.063  0.00  0.00    +0.000 A 
ATOM     11  O   UNL     1       5.789   3.493  13.478  0.00  0.00    +0.000 OA
BRANCH   7  13
ATOM     12  C   UNL     1       6.994   1.316  11.077  0.00  0.00    +0.000 C 
ATOM     13  C   UNL     1       5.934   2.378  11.312  0.00  0.00    +0.000 C 
ENDBRANCH   7  13
ENDBRANCH   1  10
BRANCH   3  14
ATOM     14  N   UNL     1       4.228   7.187  17.702  0.00  0.00    +0.000 N 
ATOM     15  C   UNL     1       2.976   6.803  18.179  0.00  0.00    +0.000 C 
ATOM     16  O   UNL     1       2.486   5.678  18.116  0.00  0.00    +0.000 OA
ATOM     17  H   UNL     1       4.489   8.162  17.824  0.00  0.00    +0.000 HD
BRANCH  15  18
ATOM     18  C   UNL     1       2.166   7.860  18.844  0.00  0.00    +0.000 A 
ATOM     19  C   UNL     1       1.872   7.732  20.199  0.00  0.00    +0.000 A 
ATOM     20  N   UNL     1       1.219   8.692  20.902  0.00  0.00    +0.000 NA
ATOM     21  C   UNL     1       0.875   9.786  20.189  0.00  0.00    +0.000 A 
ATOM     22  C   UNL     1       1.146   9.904  18.830  0.00  0.00    +0.000 A 
ATOM     23  N   UNL     1       1.792   8.947  18.113  0.00  0.00    +0.000 NA
ENDBRANCH  15  18
ENDBRANCH   3  14
TORSDOF 4
ENDMDL
MODEL 7
REMARK VINA RESULT:      -7.1      1.309      1.823
REMARK  Name = 
REMARK  6 active torsions:
REMARK  status: ('A' for Active; 'I' for Inactive)
REMARK    1  A    between atoms: C_1  and  C_2
REMARK    2  A    between atoms: C_2  and  C_3
REMARK    3  A    between atoms: C_6  and  C_7
REMARK    4  A    between atoms: C_9  and  N_10
REMARK    5  A    between atoms: C_11  and  C_13
REMARK    6  A    between atoms: C_19  and  C_20
REMARK                            x       y       z     vdW  Elec       q    Type
REMARK                         _______ _______ _______ _____ _____    ______ ____
ROOT
ATOM      1  C   UNL     1       3.786   5.438  17.979  0.00  0.00    +0.000 A 
ATOM      2  C   UNL     1       3.271   6.550  18.609  0.00  0.00    +0.000 A 
ATOM      3  C   UNL     1       2.489   6.257  19.779  0.00  0.00    +0.000 A 
ATOM      4  C   UNL     1       2.460   4.885  20.002  0.00  0.00    +0.000 A 
ATOM      5  C   UNL     1       1.862   4.036  21.076  0.00  0.00    +0.000 C 
ATOM      6  S   UNL     1       3.303   4.018  18.773  0.00  0.00    +0.000 S 
ENDROOT
BRANCH   1  10
ATOM      7  C   UNL     1       5.672   4.747  15.078  0.00  0.00    +0.000 A 
ATOM      8  N   UNL     1       5.936   6.026  15.198  0.00  0.00    +0.000 NA
ATOM      9  N   UNL     1       5.263   6.447  16.324  0.00  0.00    +0.000 NA
ATOM     10  C   UNL     1       4.627   5.404  16.818  0.00  0.00    +0.000 A 
ATOM     11  O   UNL     1       4.849   4.271  16.060  0.00  0.00    +0.000 OA
BRANCH   7  13
ATOM     12  C   UNL     1       6.990   4.489  12.992  0.00  0.00    +0.000 C 
ATOM     13  C   UNL     1       6.122   3.801  14.031  0.00  0.00    +0.000 C 
ENDBRANCH   7  13
ENDBRANCH   1  10
BRANCH   3  14
ATOM     14  N   UNL     1       1.854   7.217  20.580  0.00  0.00    +0.000 N 
ATOM     15  C   UNL     1       1.375   8.435  20.101  0.00  0.00    +0.000 C 
ATOM     16  O   UNL     1       1.471   8.855  18.951  0.00  0.00    +0.000 OA
ATOM     17  H   UNL     1       1.702   7.015  21.564  0.00  0.00    +0.000 HD
BRANCH  15  18
ATOM     18  C   UNL     1       0.663   9.299  21.082  0.00  0.00    +0.000 A 
ATOM     19  C   UNL     1      -0.048  10.404  20.617  0.00  0.00    +0.000 A 
ATOM     20  N   UNL     1      -0.798  11.189  21.431  0.00  0.00    +0.000 NA
ATOM     21  C   UNL     1      -0.807  10.819  22.730  0.00  0.00    +0.000 A 
ATOM     22  C   UNL     1      -0.078   9.733  23.199  0.00  0.00    +0.000 A 
ATOM     23  N   UNL     1       0.683   8.943  22.396  0.00  0.00    +0.000 NA
ENDBRANCH  15  18
ENDBRANCH   3  14
TORSDOF 4
ENDMDL
MODEL 8
REMARK VINA RESULT:      -7.0      1.808      8.354
REMARK  Name = 
REMARK  6 active torsions:
REMARK  status: ('A' for Active; 'I' for Inactive)
REMARK    1  A    between atoms: C_1  and  C_2
REMARK    2  A    between atoms: C_2  and  C_3
REMARK    3  A    between atoms: C_6  and  C_7
REMARK    4  A    between atoms: C_9  and  N_10
REMARK    5  A    between atoms: C_11  and  C_13
REMARK    6  A    between atoms: C_19  and  C_20
REMARK                            x       y       z     vdW  Elec       q    Type
REMARK                         _______ _______ _______ _____ _____    ______ ____
ROOT
ATOM      1  C   UNL     1       2.696   6.507  19.228  0.00  0.00    +0.000 A 
ATOM      2  C   UNL     1       3.261   6.471  17.971  0.00  0.00    +0.000 A 
ATOM      3  C   UNL     1       3.863   5.211  17.631  0.00  0.00    +0.000 A 
ATOM      4  C   UNL     1       3.705   4.308  18.677  0.00  0.00    +0.000 A 
ATOM      5  C   UNL     1       4.071   2.870  18.851  0.00  0.00    +0.000 C 
ATOM      6  S   UNL     1       2.914   5.027  20.029  0.00  0.00    +0.000 S 
ENDROOT
BRANCH   1  10
ATOM      7  C   UNL     1       1.037   8.860  21.268  0.00  0.00    +0.000 A 
ATOM      8  N   UNL     1       1.024   9.521  20.135  0.00  0.00    +0.000 NA
ATOM      9  N   UNL     1       1.642   8.705  19.214  0.00  0.00    +0.000 NA
ATOM     10  C   UNL     1       1.997   7.600  19.839  0.00  0.00    +0.000 A 
ATOM     11  O   UNL     1       1.634   7.635  21.172  0.00  0.00    +0.000 OA
BRANCH   7  13
ATOM     12  C   UNL     1      -0.593  10.302  22.460  0.00  0.00    +0.000 C 
ATOM     13  C   UNL     1       0.521   9.278  22.592  0.00  0.00    +0.000 C 
ENDBRANCH   7  13
ENDBRANCH   1  10
BRANCH   3  14
ATOM     14  N   UNL     1       4.509   4.933  16.418  0.00  0.00    +0.000 N 
ATOM     15  C   UNL     1       5.796   5.368  16.106  0.00  0.00    +0.000 C 
ATOM     16  O   UNL     1       6.517   6.072  16.807  0.00  0.00    +0.000 OA
ATOM     17  H   UNL     1       4.035   4.358  15.727  0.00  0.00    +0.000 HD
BRANCH  15  18
ATOM     18  C   UNL     1       6.350   4.917  14.800  0.00  0.00    +0.000 A 
ATOM     19  C   UNL     1       5.637   3.983  14.051  0.00  0.00    +0.000 A 
ATOM     20  N   UNL     1       6.024   3.588  12.812  0.00  0.00    +0.000 NA
ATOM     21  C   UNL     1       7.153   4.169  12.354  0.00  0.00    +0.000 A 
ATOM     22  C   UNL     1       7.879   5.082  13.110  0.00  0.00    +0.000 A 
ATOM     23  N   UNL     1       7.507   5.481  14.355  0.00  0.00    +0.000 NA
ENDBRANCH  15  18
ENDBRANCH   3  14
TORSDOF 4
ENDMDL
MODEL 9
REMARK VINA RESULT:      -6.9      1.241      1.350
REMARK  Name = 
REMARK  6 active torsions:
REMARK  status: ('A' for Active; 'I' for Inactive)
REMARK    1  A    between atoms: C_1  and  C_2
REMARK    2  A    between atoms: C_2  and  C_3
REMARK    3  A    between atoms: C_6  and  C_7
REMARK    4  A    between atoms: C_9  and  N_10
REMARK    5  A    between atoms: C_11  and  C_13
REMARK    6  A    between atoms: C_19  and  C_20
REMARK                            x       y       z     vdW  Elec       q    Type
REMARK                         _______ _______ _______ _____ _____    ______ ____
ROOT
ATOM      1  C   UNL     1       3.839   5.867  17.599  0.00  0.00    +0.000 A 
ATOM      2  C   UNL     1       3.302   7.067  18.014  0.00  0.00    +0.000 A 
ATOM      3  C   UNL     1       2.449   6.965  19.166  0.00  0.00    +0.000 A 
ATOM      4  C   UNL     1       2.388   5.645  19.600  0.00  0.00    +0.000 A 
ATOM      5  C   UNL     1       1.716   4.978  20.755  0.00  0.00    +0.000 C 
ATOM      6  S   UNL     1       3.290   4.592  18.576  0.00  0.00    +0.000 S 
ENDROOT
BRANCH   1  10
ATOM      7  C   UNL     1       5.848   4.731  14.931  0.00  0.00    +0.000 A 
ATOM      8  N   UNL     1       6.196   5.995  14.929  0.00  0.00    +0.000 NA
ATOM      9  N   UNL     1       5.485   6.584  15.952  0.00  0.00    +0.000 NA
ATOM     10  C   UNL     1       4.746   5.647  16.510  0.00  0.00    +0.000 A 
ATOM     11  O   UNL     1       4.933   4.423  15.898  0.00  0.00    +0.000 OA
BRANCH   7  13
ATOM     12  C   UNL     1       5.666   3.772  12.649  0.00  0.00    +0.000 C 
ATOM     13  C   UNL     1       6.293   3.644  14.027  0.00  0.00    +0.000 C 
ENDBRANCH   7  13
ENDBRANCH   1  10
BRANCH   3  14
ATOM     14  N   UNL     1       1.780   8.041  19.766  0.00  0.00    +0.000 N 
ATOM     15  C   UNL     1       1.131   9.049  19.053  0.00  0.00    +0.000 C 
ATOM     16  O   UNL     1       1.085   9.162  17.831  0.00  0.00    +0.000 OA
ATOM     17  H   UNL     1       1.733   8.089  20.780  0.00  0.00    +0.000 HD
BRANCH  15  18
ATOM     18  C   UNL     1       0.412  10.073  19.858  0.00  0.00    +0.000 A 
ATOM     19  C   UNL     1       0.918  10.426  21.107  0.00  0.00    +0.000 A 
ATOM     20  N   UNL     1       0.377  11.414  21.865  0.00  0.00    +0.000 NA
ATOM     21  C   UNL     1      -0.690  12.035  21.316  0.00  0.00    +0.000 A 
ATOM     22  C   UNL     1      -1.211  11.666  20.081  0.00  0.00    +0.000 A 
ATOM     23  N   UNL     1      -0.683  10.674  19.316  0.00  0.00    +0.000 NA
ENDBRANCH  15  18
ENDBRANCH   3  14
TORSDOF 4
ENDMDL
