MODEL 1
REMARK VINA RESULT:      -8.5      0.000      0.000
REMARK  Name = 
REMARK  7 active torsions:
REMARK  status: ('A' for Active; 'I' for Inactive)
REMARK    1  A    between atoms: C_1  and  C_2
REMARK    2  A    between atoms: C_2  and  N_3
REMARK    3  A    between atoms: C_8  and  C_9
REMARK    4  A    between atoms: C_13  and  N_14
REMARK    5  A    between atoms: N_17  and  C_18
REMARK    6  A    between atoms: C_18  and  C_19
REMARK    7  A    between atoms: C_18  and  C_20
REMARK                            x       y       z     vdW  Elec       q    Type
REMARK                         _______ _______ _______ _____ _____    ______ ____
ROOT
ATOM      1  N   UNL     1       8.927   8.619  18.932  0.00  0.00    +0.000 N 
ATOM      2  C   UNL     1       8.166   7.847  18.121  0.00  0.00    +0.000 A 
ATOM      3  N   UNL     1       7.904   8.073  16.837  0.00  0.00    +0.000 NA
ATOM      4  N   UNL     1       7.110   7.056  16.470  0.00  0.00    +0.000 N 
ATOM      5  C   UNL     1       6.803   6.186  17.489  0.00  0.00    +0.000 A 
ATOM      6  C   UNL     1       5.981   5.037  17.546  0.00  0.00    +0.000 A 
ATOM      7  C   UNL     1       5.924   4.434  18.806  0.00  0.00    +0.000 A 
ATOM      8  N   UNL     1       6.620   4.909  19.870  0.00  0.00    +0.000 NA
ATOM      9  C   UNL     1       7.413   6.000  19.779  0.00  0.00    +0.000 A 
ATOM     10  C   UNL     1       7.508   6.677  18.577  0.00  0.00    +0.000 A 
ATOM     11  H   UNL     1       8.920   8.435  19.927  0.00  0.00    +0.000 HD
ATOM     12  H   UNL     1       6.794   7.020  15.505  0.00  0.00    +0.000 HD
ENDROOT
BRANCH   7  13
ATOM     13  N   UNL     1       5.129   3.290  19.045  0.00  0.00    +0.000 N 
ATOM     14  C   UNL     1       3.854   3.247  19.570  0.00  0.00    +0.000 C 
ATOM     15  O   UNL     1       3.291   2.165  19.727  0.00  0.00    +0.000 OA
ATOM     16  N   UNL     1       3.299   4.436  19.897  0.00  0.00    +0.000 N 
ATOM     17  H   UNL     1       5.484   2.370  18.831  0.00  0.00    +0.000 HD
ATOM     18  H   UNL     1       3.888   5.243  19.724  0.00  0.00    +0.000 HD
BRANCH  16  19
ATOM     19  C   UNL     1       2.015   4.679  20.518  0.00  0.00    +0.000 C 
ATOM     20  C   UNL     1       0.910   3.826  19.887  0.00  0.00    +0.000 C 
BRANCH  19  21
ATOM     21  C   UNL     1       1.666   6.157  20.401  0.00  0.00    +0.000 A 
ATOM     22  C   UNL     1       2.123   6.900  19.303  0.00  0.00    +0.000 A 
ATOM     23  C   UNL     1       1.877   8.272  19.223  0.00  0.00    +0.000 A 
ATOM     24  C   UNL     1       1.158   8.917  20.230  0.00  0.00    +0.000 A 
ATOM     25  C   UNL     1       0.658   8.185  21.303  0.00  0.00    +0.000 A 
ATOM     26  C   UNL     1       0.901   6.813  21.383  0.00  0.00    +0.000 A 
ENDBRANCH  19  21
ENDBRANCH  16  19
ENDBRANCH   7  13
BRANCH   6  27
ATOM     27  C   UNL     1       5.227   4.525  16.364  0.00  0.00    +0.000 C 
ATOM     28  F   UNL     1       5.765   3.379  15.851  0.00  0.00    +0.000 F 
ATOM     29  F   UNL     1       3.932   4.230  16.649  0.00  0.00    +0.000 F 
ATOM     30  F   UNL     1       5.194   5.409  15.332  0.00  0.00    +0.000 F 
ENDBRANCH   6  27
BRANCH   1  32
ATOM     31  C   UNL     1       9.752  10.746  19.775  0.00  0.00    +0.000 C 
ATOM     32  C   UNL     1       9.108  10.025  18.602  0.00  0.00    +0.000 C 
ENDBRANCH   1  32
TORSDOF 5
ENDMDL
MODEL 2
REMARK VINA RESULT:      -8.4      0.529      1.296
REMARK  Name = 
REMARK  7 active torsions:
REMARK  status: ('A' for Active; 'I' for Inactive)
REMARK    1  A    between atoms: C_1  and  C_2
REMARK    2  A    between atoms: C_2  and  N_3
REMARK    3  A    between atoms: C_8  and  C_9
REMARK    4  A    between atoms: C_13  and  N_14
REMARK    5  A    between atoms: N_17  and  C_18
REMARK    6  A    between atoms: C_18  and  C_19
REMARK    7  A    between atoms: C_18  and  C_20
REMARK                            x       y       z     vdW  Elec       q    Type
REMARK                         _______ _______ _______ _____ _____    ______ ____
ROOT
ATOM      1  N   UNL     1       9.256   8.900  19.113  0.00  0.00    +0.000 N 
ATOM      2  C   UNL     1       8.381   8.250  18.311  0.00  0.00    +0.000 A 
ATOM      3  N   UNL     1       7.941   8.665  17.126  0.00  0.00    +0.000 NA
ATOM      4  N   UNL     1       7.095   7.704  16.726  0.00  0.00    +0.000 N 
ATOM      5  C   UNL     1       6.929   6.685  17.633  0.00  0.00    +0.000 A 
ATOM      6  C   UNL     1       6.115   5.530  17.630  0.00  0.00    +0.000 A 
ATOM      7  C   UNL     1       6.234   4.741  18.778  0.00  0.00    +0.000 A 
ATOM      8  N   UNL     1       7.078   5.059  19.793  0.00  0.00    +0.000 NA
ATOM      9  C   UNL     1       7.858   6.162  19.758  0.00  0.00    +0.000 A 
ATOM     10  C   UNL     1       7.786   7.015  18.671  0.00  0.00    +0.000 A 
ATOM     11  H   UNL     1       9.390   8.568  20.059  0.00  0.00    +0.000 HD
ATOM     12  H   UNL     1       6.644   7.811  15.821  0.00  0.00    +0.000 HD
ENDROOT
BRANCH   7  13
ATOM     13  N   UNL     1       5.472   3.563  18.952  0.00  0.00    +0.000 N 
ATOM     14  C   UNL     1       4.174   3.460  19.408  0.00  0.00    +0.000 C 
ATOM     15  O   UNL     1       3.646   2.354  19.512  0.00  0.00    +0.000 OA
ATOM     16  N   UNL     1       3.557   4.620  19.729  0.00  0.00    +0.000 N 
ATOM     17  H   UNL     1       5.873   2.662  18.737  0.00  0.00    +0.000 HD
ATOM     18  H   UNL     1       4.123   5.452  19.604  0.00  0.00    +0.000 HD
BRANCH  16  19
ATOM     19  C   UNL     1       2.234   4.800  20.287  0.00  0.00    +0.000 C 
ATOM     20  C   UNL     1       1.182   3.988  19.523  0.00  0.00    +0.000 C 
BRANCH  19  21
ATOM     21  C   UNL     1       1.871   6.279  20.264  0.00  0.00    +0.000 A 
ATOM     22  C   UNL     1       1.087   6.824  21.291  0.00  0.00    +0.000 A 
ATOM     23  C   UNL     1       0.682   8.159  21.241  0.00  0.00    +0.000 A 
ATOM     24  C   UNL     1       1.068   8.972  20.176  0.00  0.00    +0.000 A 
ATOM     25  C   UNL     1       1.885   8.458  19.172  0.00  0.00    +0.000 A 
ATOM     26  C   UNL     1       2.293   7.124  19.222  0.00  0.00    +0.000 A 
ENDBRANCH  19  21
ENDBRANCH  16  19
ENDBRANCH   7  13
BRANCH   6  27
ATOM     27  C   UNL     1       5.197   5.192  16.503  0.00  0.00    +0.000 C 
ATOM     28  F   UNL     1       3.886   5.436  16.799  0.00  0.00    +0.000 F 
ATOM     29  F   UNL     1       5.459   5.903  15.375  0.00  0.00    +0.000 F 
ATOM     30  F   UNL     1       5.255   3.882  16.145  0.00  0.00    +0.000 F 
ENDBRANCH   6  27
BRANCH   1  32
ATOM     31  C   UNL     1       9.394  10.987  20.356  0.00  0.00    +0.000 C 
ATOM     32  C   UNL     1       9.399  10.342  18.979  0.00  0.00    +0.000 C 
ENDBRANCH   1  32
TORSDOF 5
ENDMDL
MODEL 3
REMARK VINA RESULT:      -8.2      3.753      5.687
REMARK  Name = 
REMARK  7 active torsions:
REMARK  status: ('A' for Active; 'I' for Inactive)
REMARK    1  A    between atoms: C_1  and  C_2
REMARK    2  A    between atoms: C_2  and  N_3
REMARK    3  A    between atoms: C_8  and  C_9
REMARK    4  A    between atoms: C_13  and  N_14
REMARK    5  A    between atoms: N_17  and  C_18
REMARK    6  A    between atoms: C_18  and  C_19
REMARK    7  A    between atoms: C_18  and  C_20
REMARK                            x       y       z     vdW  Elec       q    Type
REMARK                         _______ _______ _______ _____ _____    ______ ____
ROOT
ATOM      1  N   UNL     1       5.328   5.421  15.655  0.00  0.00    +0.000 N 
ATOM      2  C   UNL     1       4.672   4.893  16.715  0.00  0.00    +0.000 A 
ATOM      3  N   UNL     1       4.566   3.601  17.012  0.00  0.00    +0.000 NA
ATOM      4  N   UNL     1       3.826   3.571  18.130  0.00  0.00    +0.000 N 
ATOM      5  C   UNL     1       3.401   4.806  18.558  0.00  0.00    +0.000 A 
ATOM      6  C   UNL     1       2.583   5.212  19.636  0.00  0.00    +0.000 A 
ATOM      7  C   UNL     1       2.377   6.593  19.714  0.00  0.00    +0.000 A 
ATOM      8  N   UNL     1       2.938   7.460  18.833  0.00  0.00    +0.000 NA
ATOM      9  C   UNL     1       3.732   7.042  17.822  0.00  0.00    +0.000 A 
ATOM     10  C   UNL     1       3.969   5.690  17.653  0.00  0.00    +0.000 A 
ATOM     11  H   UNL     1       5.202   6.402  15.444  0.00  0.00    +0.000 HD
ATOM     12  H   UNL     1       3.627   2.666  18.548  0.00  0.00    +0.000 HD
ENDROOT
BRANCH   7  13
ATOM     13  N   UNL     1       1.562   7.166  20.716  0.00  0.00    +0.000 N 
ATOM     14  C   UNL     1       1.014   8.432  20.733  0.00  0.00    +0.000 C 
ATOM     15  O   UNL     1       0.328   8.791  21.688  0.00  0.00    +0.000 OA
ATOM     16  N   UNL     1       1.288   9.219  19.668  0.00  0.00    +0.000 N 
ATOM     17  H   UNL     1       1.324   6.637  21.542  0.00  0.00    +0.000 HD
ATOM     18  H   UNL     1       1.879   8.791  18.964  0.00  0.00    +0.000 HD
BRANCH  16  19
ATOM     19  C   UNL     1       0.902  10.597  19.456  0.00  0.00    +0.000 C 
ATOM     20  C   UNL     1       0.940  11.403  20.759  0.00  0.00    +0.000 C 
BRANCH  19  21
ATOM     21  C   UNL     1      -0.495  10.644  18.852  0.00  0.00    +0.000 A 
ATOM     22  C   UNL     1      -0.806   9.849  17.740  0.00  0.00    +0.000 A 
ATOM     23  C   UNL     1      -2.058   9.941  17.129  0.00  0.00    +0.000 A 
ATOM     24  C   UNL     1      -3.022  10.817  17.630  0.00  0.00    +0.000 A 
ATOM     25  C   UNL     1      -2.746  11.580  18.762  0.00  0.00    +0.000 A 
ATOM     26  C   UNL     1      -1.495  11.486  19.375  0.00  0.00    +0.000 A 
ENDBRANCH  19  21
ENDBRANCH  16  19
ENDBRANCH   7  13
BRANCH   6  27
ATOM     27  C   UNL     1       1.978   4.245  20.599  0.00  0.00    +0.000 C 
ATOM     28  F   UNL     1       0.615   4.324  20.641  0.00  0.00    +0.000 F 
ATOM     29  F   UNL     1       2.263   2.950  20.299  0.00  0.00    +0.000 F 
ATOM     30  F   UNL     1       2.397   4.436  21.878  0.00  0.00    +0.000 F 
ENDBRANCH   6  27
BRANCH   1  32
ATOM     31  C   UNL     1       7.000   4.677  14.053  0.00  0.00    +0.000 C 
ATOM     32  C   UNL     1       5.542   4.596  14.476  0.00  0.00    +0.000 C 
ENDBRANCH   1  32
TORSDOF 5
ENDMDL
MODEL 4
REMARK VINA RESULT:      -8.2      3.757      5.732
REMARK  Name = 
REMARK  7 active torsions:
REMARK  status: ('A' for Active; 'I' for Inactive)
REMARK    1  A    between atoms: C_1  and  C_2
REMARK    2  A    between atoms: C_2  and  N_3
REMARK    3  A    between atoms: C_8  and  C_9
REMARK    4  A    between atoms: C_13  and  N_14
REMARK    5  A    between atoms: N_17  and  C_18
REMARK    6  A    between atoms: C_18  and  C_19
REMARK    7  A    between atoms: C_18  and  C_20
REMARK                            x       y       z     vdW  Elec       q    Type
REMARK                         _______ _______ _______ _____ _____    ______ ____
ROOT
ATOM      1  N   UNL     1       5.338   5.409  15.650  0.00  0.00    +0.000 N 
ATOM      2  C   UNL     1       4.671   4.889  16.706  0.00  0.00    +0.000 A 
ATOM      3  N   UNL     1       4.553   3.598  17.006  0.00  0.00    +0.000 NA
ATOM      4  N   UNL     1       3.804   3.578  18.119  0.00  0.00    +0.000 N 
ATOM      5  C   UNL     1       3.385   4.817  18.540  0.00  0.00    +0.000 A 
ATOM      6  C   UNL     1       2.562   5.232  19.611  0.00  0.00    +0.000 A 
ATOM      7  C   UNL     1       2.366   6.615  19.682  0.00  0.00    +0.000 A 
ATOM      8  N   UNL     1       2.939   7.475  18.802  0.00  0.00    +0.000 NA
ATOM      9  C   UNL     1       3.738   7.048  17.799  0.00  0.00    +0.000 A 
ATOM     10  C   UNL     1       3.966   5.694  17.636  0.00  0.00    +0.000 A 
ATOM     11  H   UNL     1       5.221   6.390  15.434  0.00  0.00    +0.000 HD
ATOM     12  H   UNL     1       3.597   2.676  18.538  0.00  0.00    +0.000 HD
ENDROOT
BRANCH   7  13
ATOM     13  N   UNL     1       1.548   7.198  20.676  0.00  0.00    +0.000 N 
ATOM     14  C   UNL     1       1.013   8.469  20.688  0.00  0.00    +0.000 C 
ATOM     15  O   UNL     1       0.322   8.836  21.636  0.00  0.00    +0.000 OA
ATOM     16  N   UNL     1       1.307   9.253  19.626  0.00  0.00    +0.000 N 
ATOM     17  H   UNL     1       1.296   6.671  21.500  0.00  0.00    +0.000 HD
ATOM     18  H   UNL     1       1.899   8.819  18.927  0.00  0.00    +0.000 HD
BRANCH  16  19
ATOM     19  C   UNL     1       0.937  10.635  19.409  0.00  0.00    +0.000 C 
ATOM     20  C   UNL     1       0.972  11.441  20.712  0.00  0.00    +0.000 C 
BRANCH  19  21
ATOM     21  C   UNL     1      -0.453  10.698  18.792  0.00  0.00    +0.000 A 
ATOM     22  C   UNL     1      -1.413  11.577  19.315  0.00  0.00    +0.000 A 
ATOM     23  C   UNL     1      -2.715  11.588  18.809  0.00  0.00    +0.000 A 
ATOM     24  C   UNL     1      -3.070  10.735  17.765  0.00  0.00    +0.000 A 
ATOM     25  C   UNL     1      -2.117   9.889  17.204  0.00  0.00    +0.000 A 
ATOM     26  C   UNL     1      -0.815   9.879  17.707  0.00  0.00    +0.000 A 
ENDBRANCH  19  21
ENDBRANCH  16  19
ENDBRANCH   7  13
BRANCH   6  27
ATOM     27  C   UNL     1       1.944   4.273  20.572  0.00  0.00    +0.000 C 
ATOM     28  F   UNL     1       2.380   4.454  21.853  0.00  0.00    +0.000 F 
ATOM     29  F   UNL     1       0.589   4.375  20.625  0.00  0.00    +0.000 F 
ATOM     30  F   UNL     1       2.212   2.974  20.272  0.00  0.00    +0.000 F 
ENDBRANCH   6  27
BRANCH   1  32
ATOM     31  C   UNL     1       6.993   4.726  14.003  0.00  0.00    +0.000 C 
ATOM     32  C   UNL     1       5.555   4.578  14.474  0.00  0.00    +0.000 C 
ENDBRANCH   1  32
TORSDOF 5
ENDMDL
MODEL 5
REMARK VINA RESULT:      -7.9      3.773      5.697
REMARK  Name = 
REMARK  7 active torsions:
REMARK  status: ('A' for Active; 'I' for Inactive)
REMARK    1  A    between atoms: C_1  and  C_2
REMARK    2  A    between atoms: C_2  and  N_3
REMARK    3  A    between atoms: C_8  and  C_9
REMARK    4  A    between atoms: C_13  and  N_14
REMARK    5  A    between atoms: N_17  and  C_18
REMARK    6  A    between atoms: C_18  and  C_19
REMARK    7  A    between atoms: C_18  and  C_20
REMARK                            x       y       z     vdW  Elec       q    Type
REMARK                         _______ _______ _______ _____ _____    ______ ____
ROOT
ATOM      1  N   UNL     1       5.202   5.428  15.643  0.00  0.00    +0.000 N 
ATOM      2  C   UNL     1       4.556   4.895  16.706  0.00  0.00    +0.000 A 
ATOM      3  N   UNL     1       4.392   3.599  16.960  0.00  0.00    +0.000 NA
ATOM      4  N   UNL     1       3.690   3.566  18.103  0.00  0.00    +0.000 N 
ATOM      5  C   UNL     1       3.345   4.804  18.589  0.00  0.00    +0.000 A 
ATOM      6  C   UNL     1       2.586   5.211  19.710  0.00  0.00    +0.000 A 
ATOM      7  C   UNL     1       2.456   6.596  19.843  0.00  0.00    +0.000 A 
ATOM      8  N   UNL     1       3.031   7.466  18.974  0.00  0.00    +0.000 NA
ATOM      9  C   UNL     1       3.768   7.046  17.921  0.00  0.00    +0.000 A 
ATOM     10  C   UNL     1       3.927   5.691  17.696  0.00  0.00    +0.000 A 
ATOM     11  H   UNL     1       5.120   6.422  15.471  0.00  0.00    +0.000 HD
ATOM     12  H   UNL     1       3.459   2.658  18.495  0.00  0.00    +0.000 HD
ENDROOT
BRANCH   7  13
ATOM     13  N   UNL     1       1.707   7.173  20.894  0.00  0.00    +0.000 N 
ATOM     14  C   UNL     1       0.903   8.293  20.839  0.00  0.00    +0.000 C 
ATOM     15  O   UNL     1       0.318   8.679  21.848  0.00  0.00    +0.000 OA
ATOM     16  N   UNL     1       0.822   8.914  19.640  0.00  0.00    +0.000 N 
ATOM     17  H   UNL     1       1.727   6.765  21.816  0.00  0.00    +0.000 HD
ATOM     18  H   UNL     1       1.371   8.489  18.902  0.00  0.00    +0.000 HD
BRANCH  16  19
ATOM     19  C   UNL     1       0.112  10.132  19.315  0.00  0.00    +0.000 C 
ATOM     20  C   UNL     1      -0.544  10.053  17.932  0.00  0.00    +0.000 C 
BRANCH  19  21
ATOM     21  C   UNL     1       1.074  11.311  19.370  0.00  0.00    +0.000 A 
ATOM     22  C   UNL     1       1.182  12.074  20.542  0.00  0.00    +0.000 A 
ATOM     23  C   UNL     1       2.002  13.204  20.580  0.00  0.00    +0.000 A 
ATOM     24  C   UNL     1       2.737  13.577  19.455  0.00  0.00    +0.000 A 
ATOM     25  C   UNL     1       2.677  12.804  18.298  0.00  0.00    +0.000 A 
ATOM     26  C   UNL     1       1.859  11.673  18.260  0.00  0.00    +0.000 A 
ENDBRANCH  19  21
ENDBRANCH  16  19
ENDBRANCH   7  13
BRANCH   6  27
ATOM     27  C   UNL     1       1.965   4.241  20.658  0.00  0.00    +0.000 C 
ATOM     28  F   UNL     1       2.239   2.941  20.340  0.00  0.00    +0.000 F 
ATOM     29  F   UNL     1       2.391   4.405  21.938  0.00  0.00    +0.000 F 
ATOM     30  F   UNL     1       0.609   4.331  20.697  0.00  0.00    +0.000 F 
ENDBRANCH   6  27
BRANCH   1  32
ATOM     31  C   UNL     1       6.803   4.376  14.144  0.00  0.00    +0.000 C 
ATOM     32  C   UNL     1       5.332   4.638  14.428  0.00  0.00    +0.000 C 
ENDBRANCH   1  32
TORSDOF 5
ENDMDL
MODEL 6
REMARK VINA RESULT:      -7.8      3.778      5.635
REMARK  Name = 
REMARK  7 active torsions:
REMARK  status: ('A' for Active; 'I' for Inactive)
REMARK    1  A    between atoms: C_1  and  C_2
REMARK    2  A    between atoms: C_2  and  N_3
REMARK    3  A    between atoms: C_8  and  C_9
REMARK    4  A    between atoms: C_13  and  N_14
REMARK    5  A    between atoms: N_17  and  C_18
REMARK    6  A    between atoms: C_18  and  C_19
REMARK    7  A    between atoms: C_18  and  C_20
REMARK                            x       y       z     vdW  Elec       q    Type
REMARK                         _______ _______ _______ _____ _____    ______ ____
ROOT
ATOM      1  N   UNL     1       5.205   5.371  15.631  0.00  0.00    +0.000 N 
ATOM      2  C   UNL     1       4.546   4.859  16.697  0.00  0.00    +0.000 A 
ATOM      3  N   UNL     1       4.345   3.569  16.954  0.00  0.00    +0.000 NA
ATOM      4  N   UNL     1       3.643   3.558  18.097  0.00  0.00    +0.000 N 
ATOM      5  C   UNL     1       3.334   4.807  18.581  0.00  0.00    +0.000 A 
ATOM      6  C   UNL     1       2.588   5.237  19.701  0.00  0.00    +0.000 A 
ATOM      7  C   UNL     1       2.497   6.627  19.831  0.00  0.00    +0.000 A 
ATOM      8  N   UNL     1       3.096   7.477  18.959  0.00  0.00    +0.000 NA
ATOM      9  C   UNL     1       3.819   7.035  17.907  0.00  0.00    +0.000 A 
ATOM     10  C   UNL     1       3.940   5.675  17.685  0.00  0.00    +0.000 A 
ATOM     11  H   UNL     1       5.151   6.366  15.457  0.00  0.00    +0.000 HD
ATOM     12  H   UNL     1       3.387   2.658  18.492  0.00  0.00    +0.000 HD
ENDROOT
BRANCH   7  13
ATOM     13  N   UNL     1       1.765   7.227  20.881  0.00  0.00    +0.000 N 
ATOM     14  C   UNL     1       0.931   8.323  20.807  0.00  0.00    +0.000 C 
ATOM     15  O   UNL     1       0.367   8.735  21.818  0.00  0.00    +0.000 OA
ATOM     16  N   UNL     1       0.798   8.893  19.588  0.00  0.00    +0.000 N 
ATOM     17  H   UNL     1       1.825   6.857  21.818  0.00  0.00    +0.000 HD
ATOM     18  H   UNL     1       1.335   8.452  18.850  0.00  0.00    +0.000 HD
BRANCH  16  19
ATOM     19  C   UNL     1       0.046  10.079  19.236  0.00  0.00    +0.000 C 
ATOM     20  C   UNL     1      -0.546   9.977  17.827  0.00  0.00    +0.000 C 
BRANCH  19  21
ATOM     21  C   UNL     1       0.950  11.300  19.337  0.00  0.00    +0.000 A 
ATOM     22  C   UNL     1       1.754  11.669  18.249  0.00  0.00    +0.000 A 
ATOM     23  C   UNL     1       2.644  12.740  18.355  0.00  0.00    +0.000 A 
ATOM     24  C   UNL     1       2.732  13.465  19.542  0.00  0.00    +0.000 A 
ATOM     25  C   UNL     1       1.908  13.141  20.617  0.00  0.00    +0.000 A 
ATOM     26  C   UNL     1       1.015  12.073  20.510  0.00  0.00    +0.000 A 
ENDBRANCH  19  21
ENDBRANCH  16  19
ENDBRANCH   7  13
BRANCH   6  27
ATOM     27  C   UNL     1       1.941   4.288  20.653  0.00  0.00    +0.000 C 
ATOM     28  F   UNL     1       2.374   4.450  21.938  0.00  0.00    +0.000 F 
ATOM     29  F   UNL     1       0.589   4.422  20.699  0.00  0.00    +0.000 F 
ATOM     30  F   UNL     1       2.180   2.985  20.347  0.00  0.00    +0.000 F 
ENDBRANCH   6  27
BRANCH   1  32
ATOM     31  C   UNL     1       6.771   4.465  14.006  0.00  0.00    +0.000 C 
ATOM     32  C   UNL     1       5.312   4.574  14.418  0.00  0.00    +0.000 C 
ENDBRANCH   1  32
TORSDOF 5
ENDMDL
MODEL 7
REMARK VINA RESULT:      -7.4      5.943      8.462
REMARK  Name = 
REMARK  7 active torsions:
REMARK  status: ('A' for Active; 'I' for Inactive)
REMARK    1  A    between atoms: C_1  and  C_2
REMARK    2  A    between atoms: C_2  and  N_3
REMARK    3  A    between atoms: C_8  and  C_9
REMARK    4  A    between atoms: C_13  and  N_14
REMARK    5  A    between atoms: N_17  and  C_18
REMARK    6  A    between atoms: C_18  and  C_19
REMARK    7  A    between atoms: C_18  and  C_20
REMARK                            x       y       z     vdW  Elec       q    Type
REMARK                         _______ _______ _______ _____ _____    ______ ____
ROOT
ATOM      1  N   UNL     1       2.816   6.670  18.147  0.00  0.00    +0.000 N 
ATOM      2  C   UNL     1       2.268   7.097  19.309  0.00  0.00    +0.000 A 
ATOM      3  N   UNL     1       2.088   6.371  20.409  0.00  0.00    +0.000 NA
ATOM      4  N   UNL     1       1.509   7.214  21.278  0.00  0.00    +0.000 N 
ATOM      5  C   UNL     1       1.259   8.465  20.768  0.00  0.00    +0.000 A 
ATOM      6  C   UNL     1       0.636   9.610  21.314  0.00  0.00    +0.000 A 
ATOM      7  C   UNL     1       0.566  10.699  20.440  0.00  0.00    +0.000 A 
ATOM      8  N   UNL     1       1.076  10.653  19.182  0.00  0.00    +0.000 NA
ATOM      9  C   UNL     1       1.683   9.548  18.694  0.00  0.00    +0.000 A 
ATOM     10  C   UNL     1       1.773   8.415  19.482  0.00  0.00    +0.000 A 
ATOM     11  H   UNL     1       2.750   7.263  17.330  0.00  0.00    +0.000 HD
ATOM     12  H   UNL     1       1.290   6.866  22.207  0.00  0.00    +0.000 HD
ENDROOT
BRANCH   7  13
ATOM     13  N   UNL     1      -0.049  11.914  20.816  0.00  0.00    +0.000 N 
ATOM     14  C   UNL     1      -1.220  12.453  20.325  0.00  0.00    +0.000 C 
ATOM     15  O   UNL     1      -1.626  13.532  20.750  0.00  0.00    +0.000 OA
ATOM     16  N   UNL     1      -1.856  11.736  19.370  0.00  0.00    +0.000 N 
ATOM     17  H   UNL     1       0.375  12.503  21.518  0.00  0.00    +0.000 HD
ATOM     18  H   UNL     1      -1.395  10.871  19.110  0.00  0.00    +0.000 HD
BRANCH  16  19
ATOM     19  C   UNL     1      -3.055  12.088  18.642  0.00  0.00    +0.000 C 
ATOM     20  C   UNL     1      -4.316  11.861  19.484  0.00  0.00    +0.000 C 
BRANCH  19  21
ATOM     21  C   UNL     1      -3.129  11.272  17.359  0.00  0.00    +0.000 A 
ATOM     22  C   UNL     1      -2.182  10.267  17.113  0.00  0.00    +0.000 A 
ATOM     23  C   UNL     1      -2.191   9.564  15.906  0.00  0.00    +0.000 A 
ATOM     24  C   UNL     1      -3.154   9.845  14.936  0.00  0.00    +0.000 A 
ATOM     25  C   UNL     1      -4.128  10.808  15.184  0.00  0.00    +0.000 A 
ATOM     26  C   UNL     1      -4.122  11.508  16.392  0.00  0.00    +0.000 A 
ENDBRANCH  19  21
ENDBRANCH  16  19
ENDBRANCH   7  13
BRANCH   6  27
ATOM     27  C   UNL     1       0.085   9.645  22.701  0.00  0.00    +0.000 C 
ATOM     28  F   UNL     1      -0.391  10.876  23.050  0.00  0.00    +0.000 F 
ATOM     29  F   UNL     1      -0.951   8.784  22.882  0.00  0.00    +0.000 F 
ATOM     30  F   UNL     1       1.009   9.327  23.646  0.00  0.00    +0.000 F 
ENDBRANCH   6  27
BRANCH   1  32
ATOM     31  C   UNL     1       4.215   4.732  17.694  0.00  0.00    +0.000 C 
ATOM     32  C   UNL     1       2.792   5.248  17.837  0.00  0.00    +0.000 C 
ENDBRANCH   1  32
TORSDOF 5
ENDMDL
MODEL 8
REMARK VINA RESULT:      -7.3      2.602      4.395
REMARK  Name = 
REMARK  7 active torsions:
REMARK  status: ('A' for Active; 'I' for Inactive)
REMARK    1  A    between atoms: C_1  and  C_2
REMARK    2  A    between atoms: C_2  and  N_3
REMARK    3  A    between atoms: C_8  and  C_9
REMARK    4  A    between atoms: C_13  and  N_14
REMARK    5  A    between atoms: N_17  and  C_18
REMARK    6  A    between atoms: C_18  and  C_19
REMARK    7  A    between atoms: C_18  and  C_20
REMARK                            x       y       z     vdW  Elec       q    Type
REMARK                         _______ _______ _______ _____ _____    ______ ____
ROOT
ATOM      1  N   UNL     1       5.962   4.013  12.947  0.00  0.00    +0.000 N 
ATOM      2  C   UNL     1       6.447   4.496  14.114  0.00  0.00    +0.000 A 
ATOM      3  N   UNL     1       7.462   5.346  14.254  0.00  0.00    +0.000 NA
ATOM      4  N   UNL     1       7.576   5.519  15.579  0.00  0.00    +0.000 N 
ATOM      5  C   UNL     1       6.695   4.772  16.323  0.00  0.00    +0.000 A 
ATOM      6  C   UNL     1       6.513   4.622  17.717  0.00  0.00    +0.000 A 
ATOM      7  C   UNL     1       5.493   3.733  18.070  0.00  0.00    +0.000 A 
ATOM      8  N   UNL     1       4.737   3.092  17.143  0.00  0.00    +0.000 NA
ATOM      9  C   UNL     1       4.923   3.270  15.817  0.00  0.00    +0.000 A 
ATOM     10  C   UNL     1       5.928   4.111  15.376  0.00  0.00    +0.000 A 
ATOM     11  H   UNL     1       5.298   3.250  12.974  0.00  0.00    +0.000 HD
ATOM     12  H   UNL     1       8.295   6.153  15.918  0.00  0.00    +0.000 HD
ENDROOT
BRANCH   7  13
ATOM     13  N   UNL     1       5.194   3.446  19.422  0.00  0.00    +0.000 N 
ATOM     14  C   UNL     1       4.176   3.973  20.189  0.00  0.00    +0.000 C 
ATOM     15  O   UNL     1       4.050   3.627  21.362  0.00  0.00    +0.000 OA
ATOM     16  N   UNL     1       3.369   4.870  19.580  0.00  0.00    +0.000 N 
ATOM     17  H   UNL     1       5.761   2.791  19.939  0.00  0.00    +0.000 HD
ATOM     18  H   UNL     1       3.603   5.067  18.613  0.00  0.00    +0.000 HD
BRANCH  16  19
ATOM     19  C   UNL     1       2.274   5.620  20.158  0.00  0.00    +0.000 C 
ATOM     20  C   UNL     1       0.949   4.857  20.054  0.00  0.00    +0.000 C 
BRANCH  19  21
ATOM     21  C   UNL     1       2.158   6.968  19.460  0.00  0.00    +0.000 A 
ATOM     22  C   UNL     1       1.489   8.028  20.089  0.00  0.00    +0.000 A 
ATOM     23  C   UNL     1       1.307   9.244  19.428  0.00  0.00    +0.000 A 
ATOM     24  C   UNL     1       1.805   9.424  18.137  0.00  0.00    +0.000 A 
ATOM     25  C   UNL     1       2.512   8.398  17.517  0.00  0.00    +0.000 A 
ATOM     26  C   UNL     1       2.696   7.182  18.178  0.00  0.00    +0.000 A 
ENDBRANCH  19  21
ENDBRANCH  16  19
ENDBRANCH   7  13
BRANCH   6  27
ATOM     27  C   UNL     1       7.350   5.340  18.722  0.00  0.00    +0.000 C 
ATOM     28  F   UNL     1       8.525   4.696  18.988  0.00  0.00    +0.000 F 
ATOM     29  F   UNL     1       7.698   6.592  18.325  0.00  0.00    +0.000 F 
ATOM     30  F   UNL     1       6.730   5.484  19.923  0.00  0.00    +0.000 F 
ENDBRANCH   6  27
BRANCH   1  32
ATOM     31  C   UNL     1       7.143   2.546  11.407  0.00  0.00    +0.000 C 
ATOM     32  C   UNL     1       6.829   3.987  11.779  0.00  0.00    +0.000 C 
ENDBRANCH   1  32
TORSDOF 5
ENDMDL
MODEL 9
REMARK VINA RESULT:      -7.3      5.781      8.286
REMARK  Name = 
REMARK  7 active torsions:
REMARK  status: ('A' for Active; 'I' for Inactive)
REMARK    1  A    between atoms: C_1  and  C_2
REMARK    2  A    between atoms: C_2  and  N_3
REMARK    3  A    between atoms: C_8  and  C_9
REMARK    4  A    between atoms: C_13  and  N_14
REMARK    5  A    between atoms: N_17  and  C_18
REMARK    6  A    between atoms: C_18  and  C_19
REMARK    7  A    between atoms: C_18  and  C_20
REMARK                            x       y       z     vdW  Elec       q    Type
REMARK                         _______ _______ _______ _____ _____    ______ ____
ROOT
ATOM      1  N   UNL     1       3.966   5.720  18.106  0.00  0.00    +0.000 N 
ATOM      2  C   UNL     1       3.137   6.378  18.950  0.00  0.00    +0.000 A 
ATOM      3  N   UNL     1       2.728   5.953  20.143  0.00  0.00    +0.000 NA
ATOM      4  N   UNL     1       1.922   6.928  20.589  0.00  0.00    +0.000 N 
ATOM      5  C   UNL     1       1.750   7.967  19.706  0.00  0.00    +0.000 A 
ATOM      6  C   UNL     1       0.967   9.142  19.757  0.00  0.00    +0.000 A 
ATOM      7  C   UNL     1       1.066   9.948  18.619  0.00  0.00    +0.000 A 
ATOM      8  N   UNL     1       1.865   9.627  17.570  0.00  0.00    +0.000 NA
ATOM      9  C   UNL     1       2.617   8.504  17.558  0.00  0.00    +0.000 A 
ATOM     10  C   UNL     1       2.562   7.634  18.632  0.00  0.00    +0.000 A 
ATOM     11  H   UNL     1       4.075   6.066  17.162  0.00  0.00    +0.000 HD
ATOM     12  H   UNL     1       1.500   6.816  21.507  0.00  0.00    +0.000 HD
ENDROOT
BRANCH   7  13
ATOM     13  N   UNL     1       0.329  11.147  18.493  0.00  0.00    +0.000 N 
ATOM     14  C   UNL     1       0.666  12.397  18.970  0.00  0.00    +0.000 C 
ATOM     15  O   UNL     1      -0.090  13.349  18.786  0.00  0.00    +0.000 OA
ATOM     16  N   UNL     1       1.838  12.487  19.639  0.00  0.00    +0.000 N 
ATOM     17  H   UNL     1      -0.558  11.150  18.012  0.00  0.00    +0.000 HD
ATOM     18  H   UNL     1       2.348  11.615  19.724  0.00  0.00    +0.000 HD
BRANCH  16  19
ATOM     19  C   UNL     1       2.402  13.647  20.295  0.00  0.00    +0.000 C 
ATOM     20  C   UNL     1       1.478  14.180  21.396  0.00  0.00    +0.000 C 
BRANCH  19  21
ATOM     21  C   UNL     1       2.667  14.735  19.263  0.00  0.00    +0.000 A 
ATOM     22  C   UNL     1       2.019  15.974  19.368  0.00  0.00    +0.000 A 
ATOM     23  C   UNL     1       2.193  16.952  18.386  0.00  0.00    +0.000 A 
ATOM     24  C   UNL     1       3.027  16.710  17.294  0.00  0.00    +0.000 A 
ATOM     25  C   UNL     1       3.713  15.503  17.198  0.00  0.00    +0.000 A 
ATOM     26  C   UNL     1       3.542  14.526  18.181  0.00  0.00    +0.000 A 
ENDBRANCH  19  21
ENDBRANCH  16  19
ENDBRANCH   7  13
BRANCH   6  27
ATOM     27  C   UNL     1       0.098   9.483  20.922  0.00  0.00    +0.000 C 
ATOM     28  F   UNL     1      -1.044  10.135  20.555  0.00  0.00    +0.000 F 
ATOM     29  F   UNL     1      -0.308   8.388  21.617  0.00  0.00    +0.000 F 
ATOM     30  F   UNL     1       0.712  10.295  21.822  0.00  0.00    +0.000 F 
ENDBRANCH   6  27
BRANCH   1  32
ATOM     31  C   UNL     1       3.009   3.616  17.350  0.00  0.00    +0.000 C 
ATOM     32  C   UNL     1       4.076   4.273  18.211  0.00  0.00    +0.000 C 
ENDBRANCH   1  32
TORSDOF 5
ENDMDL
