MODEL 1
REMARK VINA RESULT:      -8.4      0.000      0.000
REMARK  Name = 
REMARK  4 active torsions:
REMARK  status: ('A' for Active; 'I' for Inactive)
REMARK    1  A    between atoms: O_1  and  C_2
REMARK    2  A    between atoms: C_6  and  C_7
REMARK    3  A    between atoms: C_15  and  N_16
REMARK    4  A    between atoms: N_16  and  C_17
REMARK                            x       y       z     vdW  Elec       q    Type
REMARK                         _______ _______ _______ _____ _____    ______ ____
ROOT
ATOM      1  C   UNL     1       3.719   6.662  17.793  0.00  0.00    +0.000 A 
ATOM      2  N   UNL     1       4.957   7.131  17.401  0.00  0.00    +0.000 NA
ATOM      3  C   UNL     1       5.517   6.106  16.804  0.00  0.00    +0.000 A 
ATOM      4  C   UNL     1       6.823   6.031  16.207  0.00  0.00    +0.000 A 
ATOM      5  N   UNL     1       7.264   4.939  15.638  0.00  0.00    +0.000 NA
ATOM      6  C   UNL     1       6.425   3.837  15.647  0.00  0.00    +0.000 A 
ATOM      7  C   UNL     1       5.202   3.821  16.206  0.00  0.00    +0.000 A 
ATOM      8  N   UNL     1       4.722   4.987  16.788  0.00  0.00    +0.000 N 
ATOM      9  C   UNL     1       3.550   5.319  17.446  0.00  0.00    +0.000 A 
ENDROOT
BRANCH   1  14
ATOM     10  C   UNL     1       1.243   9.398  18.533  0.00  0.00    +0.000 A 
ATOM     11  C   UNL     1       0.900   9.126  19.852  0.00  0.00    +0.000 A 
ATOM     12  C   UNL     1       1.502   8.050  20.502  0.00  0.00    +0.000 A 
ATOM     13  C   UNL     1       2.425   7.246  19.823  0.00  0.00    +0.000 A 
ATOM     14  C   UNL     1       2.756   7.507  18.486  0.00  0.00    +0.000 A 
ATOM     15  C   UNL     1       2.169   8.612  17.855  0.00  0.00    +0.000 A 
BRANCH  10  16
ATOM     16  O   UNL     1       0.691  10.442  17.849  0.00  0.00    +0.000 OA
ATOM     17  H   UNL     1       0.494  10.148  16.943  0.00  0.00    +0.000 HD
ENDBRANCH  10  16
ENDBRANCH   1  14
BRANCH   9  18
ATOM     18  N   UNL     1       2.581   4.421  17.776  0.00  0.00    +0.000 N 
ATOM     19  H   UNL     1       2.197   3.857  17.017  0.00  0.00    +0.000 HD
BRANCH  18  20
ATOM     20  C   UNL     1       2.387   3.754  19.008  0.00  0.00    +0.000 A 
ATOM     21  C   UNL     1       1.080   3.696  19.518  0.00  0.00    +0.000 A 
ATOM     22  C   UNL     1       0.814   3.123  20.762  0.00  0.00    +0.000 A 
ATOM     23  C   UNL     1       1.855   2.599  21.520  0.00  0.00    +0.000 A 
ATOM     24  C   UNL     1       3.159   2.642  21.030  0.00  0.00    +0.000 A 
ATOM     25  C   UNL     1       3.422   3.215  19.781  0.00  0.00    +0.000 A 
ENDBRANCH  18  20
ENDBRANCH   9  18
TORSDOF 4
ENDMDL
MODEL 2
REMARK VINA RESULT:      -8.3      0.083      1.006
REMARK  Name = 
REMARK  4 active torsions:
REMARK  status: ('A' for Active; 'I' for Inactive)
REMARK    1  A    between atoms: O_1  and  C_2
REMARK    2  A    between atoms: C_6  and  C_7
REMARK    3  A    between atoms: C_15  and  N_16
REMARK    4  A    between atoms: N_16  and  C_17
REMARK                            x       y       z     vdW  Elec       q    Type
REMARK                         _______ _______ _______ _____ _____    ______ ____
ROOT
ATOM      1  C   UNL     1       3.719   6.688  17.772  0.00  0.00    +0.000 A 
ATOM      2  N   UNL     1       4.959   7.148  17.373  0.00  0.00    +0.000 NA
ATOM      3  C   UNL     1       5.519   6.111  16.797  0.00  0.00    +0.000 A 
ATOM      4  C   UNL     1       6.825   6.023  16.204  0.00  0.00    +0.000 A 
ATOM      5  N   UNL     1       7.266   4.921  15.656  0.00  0.00    +0.000 NA
ATOM      6  C   UNL     1       6.426   3.820  15.683  0.00  0.00    +0.000 A 
ATOM      7  C   UNL     1       5.202   3.817  16.241  0.00  0.00    +0.000 A 
ATOM      8  N   UNL     1       4.722   4.993  16.800  0.00  0.00    +0.000 N 
ATOM      9  C   UNL     1       3.549   5.339  17.450  0.00  0.00    +0.000 A 
ENDROOT
BRANCH   1  14
ATOM     10  C   UNL     1       1.274   9.463  18.469  0.00  0.00    +0.000 A 
ATOM     11  C   UNL     1       0.899   9.193  19.780  0.00  0.00    +0.000 A 
ATOM     12  C   UNL     1       1.469   8.104  20.439  0.00  0.00    +0.000 A 
ATOM     13  C   UNL     1       2.393   7.287  19.776  0.00  0.00    +0.000 A 
ATOM     14  C   UNL     1       2.757   7.547  18.447  0.00  0.00    +0.000 A 
ATOM     15  C   UNL     1       2.202   8.664  17.808  0.00  0.00    +0.000 A 
BRANCH  10  16
ATOM     16  O   UNL     1       0.755  10.518  17.778  0.00  0.00    +0.000 OA
ATOM     17  H   UNL     1       1.373  10.756  17.066  0.00  0.00    +0.000 HD
ENDBRANCH  10  16
ENDBRANCH   1  14
BRANCH   9  18
ATOM     18  N   UNL     1       2.578   4.448  17.794  0.00  0.00    +0.000 N 
ATOM     19  H   UNL     1       2.245   3.823  17.060  0.00  0.00    +0.000 HD
BRANCH  18  20
ATOM     20  C   UNL     1       2.330   3.869  19.061  0.00  0.00    +0.000 A 
ATOM     21  C   UNL     1       3.420   3.303  19.742  0.00  0.00    +0.000 A 
ATOM     22  C   UNL     1       3.249   2.647  20.961  0.00  0.00    +0.000 A 
ATOM     23  C   UNL     1       1.979   2.544  21.520  0.00  0.00    +0.000 A 
ATOM     24  C   UNL     1       0.886   3.104  20.863  0.00  0.00    +0.000 A 
ATOM     25  C   UNL     1       1.062   3.764  19.642  0.00  0.00    +0.000 A 
ENDBRANCH  18  20
ENDBRANCH   9  18
TORSDOF 4
ENDMDL
MODEL 3
REMARK VINA RESULT:      -8.3      0.966      1.392
REMARK  Name = 
REMARK  4 active torsions:
REMARK  status: ('A' for Active; 'I' for Inactive)
REMARK    1  A    between atoms: O_1  and  C_2
REMARK    2  A    between atoms: C_6  and  C_7
REMARK    3  A    between atoms: C_15  and  N_16
REMARK    4  A    between atoms: N_16  and  C_17
REMARK                            x       y       z     vdW  Elec       q    Type
REMARK                         _______ _______ _______ _____ _____    ______ ____
ROOT
ATOM      1  C   UNL     1       3.783   6.672  17.711  0.00  0.00    +0.000 A 
ATOM      2  N   UNL     1       5.028   7.117  17.312  0.00  0.00    +0.000 NA
ATOM      3  C   UNL     1       5.577   6.072  16.740  0.00  0.00    +0.000 A 
ATOM      4  C   UNL     1       6.883   5.968  16.150  0.00  0.00    +0.000 A 
ATOM      5  N   UNL     1       7.313   4.859  15.605  0.00  0.00    +0.000 NA
ATOM      6  C   UNL     1       6.461   3.767  15.636  0.00  0.00    +0.000 A 
ATOM      7  C   UNL     1       5.236   3.779  16.191  0.00  0.00    +0.000 A 
ATOM      8  N   UNL     1       4.768   4.963  16.746  0.00  0.00    +0.000 N 
ATOM      9  C   UNL     1       3.598   5.324  17.393  0.00  0.00    +0.000 A 
ENDROOT
BRANCH   1  14
ATOM     10  C   UNL     1       1.580   8.202  20.351  0.00  0.00    +0.000 A 
ATOM     11  C   UNL     1       0.978   9.244  19.654  0.00  0.00    +0.000 A 
ATOM     12  C   UNL     1       1.286   9.427  18.307  0.00  0.00    +0.000 A 
ATOM     13  C   UNL     1       2.206   8.582  17.675  0.00  0.00    +0.000 A 
ATOM     14  C   UNL     1       2.829   7.543  18.382  0.00  0.00    +0.000 A 
ATOM     15  C   UNL     1       2.484   7.349  19.726  0.00  0.00    +0.000 A 
BRANCH  10  16
ATOM     16  O   UNL     1       1.311   7.971  21.668  0.00  0.00    +0.000 OA
ATOM     17  H   UNL     1       1.124   7.024  21.784  0.00  0.00    +0.000 HD
ENDBRANCH  10  16
ENDBRANCH   1  14
BRANCH   9  18
ATOM     18  N   UNL     1       2.617   4.445  17.739  0.00  0.00    +0.000 N 
ATOM     19  H   UNL     1       2.209   3.890  16.986  0.00  0.00    +0.000 HD
BRANCH  18  20
ATOM     20  C   UNL     1       2.433   3.780  18.973  0.00  0.00    +0.000 A 
ATOM     21  C   UNL     1       1.145   3.797  19.535  0.00  0.00    +0.000 A 
ATOM     22  C   UNL     1       0.894   3.230  20.785  0.00  0.00    +0.000 A 
ATOM     23  C   UNL     1       1.931   2.637  21.498  0.00  0.00    +0.000 A 
ATOM     24  C   UNL     1       3.214   2.605  20.955  0.00  0.00    +0.000 A 
ATOM     25  C   UNL     1       3.462   3.172  19.701  0.00  0.00    +0.000 A 
ENDBRANCH  18  20
ENDBRANCH   9  18
TORSDOF 4
ENDMDL
MODEL 4
REMARK VINA RESULT:      -8.2      0.962      1.712
REMARK  Name = 
REMARK  4 active torsions:
REMARK  status: ('A' for Active; 'I' for Inactive)
REMARK    1  A    between atoms: O_1  and  C_2
REMARK    2  A    between atoms: C_6  and  C_7
REMARK    3  A    between atoms: C_15  and  N_16
REMARK    4  A    between atoms: N_16  and  C_17
REMARK                            x       y       z     vdW  Elec       q    Type
REMARK                         _______ _______ _______ _____ _____    ______ ____
ROOT
ATOM      1  C   UNL     1       3.708   6.702  17.729  0.00  0.00    +0.000 A 
ATOM      2  N   UNL     1       4.951   7.131  17.307  0.00  0.00    +0.000 NA
ATOM      3  C   UNL     1       5.484   6.072  16.745  0.00  0.00    +0.000 A 
ATOM      4  C   UNL     1       6.781   5.947  16.139  0.00  0.00    +0.000 A 
ATOM      5  N   UNL     1       7.195   4.826  15.608  0.00  0.00    +0.000 NA
ATOM      6  C   UNL     1       6.335   3.742  15.669  0.00  0.00    +0.000 A 
ATOM      7  C   UNL     1       5.118   3.773  16.240  0.00  0.00    +0.000 A 
ATOM      8  N   UNL     1       4.667   4.969  16.781  0.00  0.00    +0.000 N 
ATOM      9  C   UNL     1       3.509   5.351  17.437  0.00  0.00    +0.000 A 
ENDROOT
BRANCH   1  14
ATOM     10  C   UNL     1       1.542   8.287  20.368  0.00  0.00    +0.000 A 
ATOM     11  C   UNL     1       0.949   9.329  19.666  0.00  0.00    +0.000 A 
ATOM     12  C   UNL     1       1.251   9.495  18.314  0.00  0.00    +0.000 A 
ATOM     13  C   UNL     1       2.156   8.632  17.685  0.00  0.00    +0.000 A 
ATOM     14  C   UNL     1       2.770   7.593  18.398  0.00  0.00    +0.000 A 
ATOM     15  C   UNL     1       2.432   7.416  19.746  0.00  0.00    +0.000 A 
BRANCH  10  16
ATOM     16  O   UNL     1       1.280   8.072  21.690  0.00  0.00    +0.000 OA
ATOM     17  H   UNL     1       0.787   7.238  21.776  0.00  0.00    +0.000 HD
ENDBRANCH  10  16
ENDBRANCH   1  14
BRANCH   9  18
ATOM     18  N   UNL     1       2.526   4.485  17.811  0.00  0.00    +0.000 N 
ATOM     19  H   UNL     1       2.136   3.887  17.082  0.00  0.00    +0.000 HD
BRANCH  18  20
ATOM     20  C   UNL     1       2.319   3.889  19.076  0.00  0.00    +0.000 A 
ATOM     21  C   UNL     1       3.438   3.355  19.734  0.00  0.00    +0.000 A 
ATOM     22  C   UNL     1       3.310   2.684  20.951  0.00  0.00    +0.000 A 
ATOM     23  C   UNL     1       2.054   2.534  21.531  0.00  0.00    +0.000 A 
ATOM     24  C   UNL     1       0.932   3.062  20.896  0.00  0.00    +0.000 A 
ATOM     25  C   UNL     1       1.065   3.736  19.678  0.00  0.00    +0.000 A 
ENDBRANCH  18  20
ENDBRANCH   9  18
TORSDOF 4
ENDMDL
MODEL 5
REMARK VINA RESULT:      -8.1      2.647      5.329
REMARK  Name = 
REMARK  4 active torsions:
REMARK  status: ('A' for Active; 'I' for Inactive)
REMARK    1  A    between atoms: O_1  and  C_2
REMARK    2  A    between atoms: C_6  and  C_7
REMARK    3  A    between atoms: C_15  and  N_16
REMARK    4  A    between atoms: N_16  and  C_17
REMARK                            x       y       z     vdW  Elec       q    Type
REMARK                         _______ _______ _______ _____ _____    ______ ____
ROOT
ATOM      1  C   UNL     1       4.067   6.810  17.634  0.00  0.00    +0.000 A 
ATOM      2  N   UNL     1       3.487   7.923  17.056  0.00  0.00    +0.000 NA
ATOM      3  C   UNL     1       2.651   8.360  17.967  0.00  0.00    +0.000 A 
ATOM      4  C   UNL     1       1.772   9.496  17.893  0.00  0.00    +0.000 A 
ATOM      5  N   UNL     1       0.983   9.829  18.881  0.00  0.00    +0.000 NA
ATOM      6  C   UNL     1       1.009   9.027  20.010  0.00  0.00    +0.000 A 
ATOM      7  C   UNL     1       1.783   7.936  20.145  0.00  0.00    +0.000 A 
ATOM      8  N   UNL     1       2.641   7.596  19.107  0.00  0.00    +0.000 N 
ATOM      9  C   UNL     1       3.543   6.565  18.905  0.00  0.00    +0.000 A 
ENDROOT
BRANCH   1  14
ATOM     10  C   UNL     1       7.107   4.691  16.974  0.00  0.00    +0.000 A 
ATOM     11  C   UNL     1       7.042   4.516  15.596  0.00  0.00    +0.000 A 
ATOM     12  C   UNL     1       6.004   5.116  14.884  0.00  0.00    +0.000 A 
ATOM     13  C   UNL     1       5.032   5.866  15.557  0.00  0.00    +0.000 A 
ATOM     14  C   UNL     1       5.085   6.026  16.948  0.00  0.00    +0.000 A 
ATOM     15  C   UNL     1       6.152   5.447  17.648  0.00  0.00    +0.000 A 
BRANCH  10  16
ATOM     16  O   UNL     1       8.103   4.134  17.721  0.00  0.00    +0.000 OA
ATOM     17  H   UNL     1       8.351   3.283  17.321  0.00  0.00    +0.000 HD
ENDBRANCH  10  16
ENDBRANCH   1  14
BRANCH   9  18
ATOM     18  N   UNL     1       3.691   5.507  19.750  0.00  0.00    +0.000 N 
ATOM     19  H   UNL     1       4.143   5.691  20.645  0.00  0.00    +0.000 HD
BRANCH  18  20
ATOM     20  C   UNL     1       2.885   4.350  19.854  0.00  0.00    +0.000 A 
ATOM     21  C   UNL     1       2.744   3.549  18.708  0.00  0.00    +0.000 A 
ATOM     22  C   UNL     1       1.908   2.432  18.704  0.00  0.00    +0.000 A 
ATOM     23  C   UNL     1       1.194   2.098  19.850  0.00  0.00    +0.000 A 
ATOM     24  C   UNL     1       1.323   2.876  20.999  0.00  0.00    +0.000 A 
ATOM     25  C   UNL     1       2.165   3.994  21.000  0.00  0.00    +0.000 A 
ENDBRANCH  18  20
ENDBRANCH   9  18
TORSDOF 4
ENDMDL
MODEL 6
REMARK VINA RESULT:      -8.1      2.559      5.317
REMARK  Name = 
REMARK  4 active torsions:
REMARK  status: ('A' for Active; 'I' for Inactive)
REMARK    1  A    between atoms: O_1  and  C_2
REMARK    2  A    between atoms: C_6  and  C_7
REMARK    3  A    between atoms: C_15  and  N_16
REMARK    4  A    between atoms: N_16  and  C_17
REMARK                            x       y       z     vdW  Elec       q    Type
REMARK                         _______ _______ _______ _____ _____    ______ ____
ROOT
ATOM      1  C   UNL     1       3.170   7.179  18.203  0.00  0.00    +0.000 A 
ATOM      2  N   UNL     1       2.640   8.311  17.616  0.00  0.00    +0.000 NA
ATOM      3  C   UNL     1       1.859   8.819  18.540  0.00  0.00    +0.000 A 
ATOM      4  C   UNL     1       1.048  10.003  18.464  0.00  0.00    +0.000 A 
ATOM      5  N   UNL     1       0.310  10.404  19.466  0.00  0.00    +0.000 NA
ATOM      6  C   UNL     1       0.323   9.628  20.613  0.00  0.00    +0.000 A 
ATOM      7  C   UNL     1       1.035   8.496  20.752  0.00  0.00    +0.000 A 
ATOM      8  N   UNL     1       1.839   8.081  19.698  0.00  0.00    +0.000 N 
ATOM      9  C   UNL     1       2.672   6.994  19.495  0.00  0.00    +0.000 A 
ENDROOT
BRANCH   1  14
ATOM     10  C   UNL     1       6.305   5.919  16.544  0.00  0.00    +0.000 A 
ATOM     11  C   UNL     1       5.931   4.637  16.159  0.00  0.00    +0.000 A 
ATOM     12  C   UNL     1       4.636   4.197  16.430  0.00  0.00    +0.000 A 
ATOM     13  C   UNL     1       3.735   5.034  17.101  0.00  0.00    +0.000 A 
ATOM     14  C   UNL     1       4.118   6.320  17.508  0.00  0.00    +0.000 A 
ATOM     15  C   UNL     1       5.411   6.762  17.198  0.00  0.00    +0.000 A 
BRANCH  10  16
ATOM     16  O   UNL     1       7.555   6.405  16.298  0.00  0.00    +0.000 OA
ATOM     17  H   UNL     1       7.955   5.884  15.582  0.00  0.00    +0.000 HD
ENDBRANCH  10  16
ENDBRANCH   1  14
BRANCH   9  18
ATOM     18  N   UNL     1       2.782   5.948  20.360  0.00  0.00    +0.000 N 
ATOM     19  H   UNL     1       2.749   6.168  21.356  0.00  0.00    +0.000 HD
BRANCH  18  20
ATOM     20  C   UNL     1       2.405   4.600  20.158  0.00  0.00    +0.000 A 
ATOM     21  C   UNL     1       3.429   3.642  20.086  0.00  0.00    +0.000 A 
ATOM     22  C   UNL     1       3.148   2.302  19.815  0.00  0.00    +0.000 A 
ATOM     23  C   UNL     1       1.833   1.898  19.607  0.00  0.00    +0.000 A 
ATOM     24  C   UNL     1       0.802   2.833  19.679  0.00  0.00    +0.000 A 
ATOM     25  C   UNL     1       1.088   4.175  19.954  0.00  0.00    +0.000 A 
ENDBRANCH  18  20
ENDBRANCH   9  18
TORSDOF 4
ENDMDL
MODEL 7
REMARK VINA RESULT:      -8.1      2.542      5.232
REMARK  Name = 
REMARK  4 active torsions:
REMARK  status: ('A' for Active; 'I' for Inactive)
REMARK    1  A    between atoms: O_1  and  C_2
REMARK    2  A    between atoms: C_6  and  C_7
REMARK    3  A    between atoms: C_15  and  N_16
REMARK    4  A    between atoms: N_16  and  C_17
REMARK                            x       y       z     vdW  Elec       q    Type
REMARK                         _______ _______ _______ _____ _____    ______ ____
ROOT
ATOM      1  C   UNL     1       3.209   7.175  18.043  0.00  0.00    +0.000 A 
ATOM      2  N   UNL     1       2.602   8.207  17.354  0.00  0.00    +0.000 NA
ATOM      3  C   UNL     1       1.814   8.768  18.241  0.00  0.00    +0.000 A 
ATOM      4  C   UNL     1       0.935   9.891  18.064  0.00  0.00    +0.000 A 
ATOM      5  N   UNL     1       0.199  10.357  19.039  0.00  0.00    +0.000 NA
ATOM      6  C   UNL     1       0.282   9.710  20.260  0.00  0.00    +0.000 A 
ATOM      7  C   UNL     1       1.061   8.640  20.498  0.00  0.00    +0.000 A 
ATOM      8  N   UNL     1       1.863   8.159  19.471  0.00  0.00    +0.000 N 
ATOM      9  C   UNL     1       2.752   7.103  19.361  0.00  0.00    +0.000 A 
ENDROOT
BRANCH   1  14
ATOM     10  C   UNL     1       6.391   5.903  16.486  0.00  0.00    +0.000 A 
ATOM     11  C   UNL     1       6.063   4.583  16.200  0.00  0.00    +0.000 A 
ATOM     12  C   UNL     1       4.784   4.120  16.504  0.00  0.00    +0.000 A 
ATOM     13  C   UNL     1       3.853   4.973  17.108  0.00  0.00    +0.000 A 
ATOM     14  C   UNL     1       4.189   6.299  17.415  0.00  0.00    +0.000 A 
ATOM     15  C   UNL     1       5.466   6.762  17.073  0.00  0.00    +0.000 A 
BRANCH  10  16
ATOM     16  O   UNL     1       7.624   6.413  16.204  0.00  0.00    +0.000 OA
ATOM     17  H   UNL     1       8.020   5.888  15.487  0.00  0.00    +0.000 HD
ENDBRANCH  10  16
ENDBRANCH   1  14
BRANCH   9  18
ATOM     18  N   UNL     1       2.942   6.164  20.328  0.00  0.00    +0.000 N 
ATOM     19  H   UNL     1       3.192   6.503  21.257  0.00  0.00    +0.000 HD
BRANCH  18  20
ATOM     20  C   UNL     1       2.352   4.883  20.433  0.00  0.00    +0.000 A 
ATOM     21  C   UNL     1       1.466   4.489  19.416  0.00  0.00    +0.000 A 
ATOM     22  C   UNL     1       0.786   3.273  19.481  0.00  0.00    +0.000 A 
ATOM     23  C   UNL     1       0.979   2.428  20.568  0.00  0.00    +0.000 A 
ATOM     24  C   UNL     1       1.858   2.797  21.585  0.00  0.00    +0.000 A 
ATOM     25  C   UNL     1       2.541   4.017  21.515  0.00  0.00    +0.000 A 
ENDBRANCH  18  20
ENDBRANCH   9  18
TORSDOF 4
ENDMDL
MODEL 8
REMARK VINA RESULT:      -8.0      2.797      5.359
REMARK  Name = 
REMARK  4 active torsions:
REMARK  status: ('A' for Active; 'I' for Inactive)
REMARK    1  A    between atoms: O_1  and  C_2
REMARK    2  A    between atoms: C_6  and  C_7
REMARK    3  A    between atoms: C_15  and  N_16
REMARK    4  A    between atoms: N_16  and  C_17
REMARK                            x       y       z     vdW  Elec       q    Type
REMARK                         _______ _______ _______ _____ _____    ______ ____
ROOT
ATOM      1  C   UNL     1       2.789   6.993  18.579  0.00  0.00    +0.000 A 
ATOM      2  N   UNL     1       2.711   8.090  17.743  0.00  0.00    +0.000 NA
ATOM      3  C   UNL     1       2.045   8.980  18.439  0.00  0.00    +0.000 A 
ATOM      4  C   UNL     1       1.668  10.311  18.049  0.00  0.00    +0.000 A 
ATOM      5  N   UNL     1       1.000  11.105  18.845  0.00  0.00    +0.000 NA
ATOM      6  C   UNL     1       0.648  10.606  20.087  0.00  0.00    +0.000 A 
ATOM      7  C   UNL     1       0.942   9.365  20.515  0.00  0.00    +0.000 A 
ATOM      8  N   UNL     1       1.673   8.530  19.682  0.00  0.00    +0.000 N 
ATOM      9  C   UNL     1       2.130   7.227  19.788  0.00  0.00    +0.000 A 
ENDROOT
BRANCH   1  14
ATOM     10  C   UNL     1       5.464   4.386  18.119  0.00  0.00    +0.000 A 
ATOM     11  C   UNL     1       4.785   3.398  17.416  0.00  0.00    +0.000 A 
ATOM     12  C   UNL     1       3.448   3.603  17.077  0.00  0.00    +0.000 A 
ATOM     13  C   UNL     1       2.799   4.783  17.461  0.00  0.00    +0.000 A 
ATOM     14  C   UNL     1       3.477   5.771  18.188  0.00  0.00    +0.000 A 
ATOM     15  C   UNL     1       4.830   5.567  18.492  0.00  0.00    +0.000 A 
BRANCH  10  16
ATOM     16  O   UNL     1       6.774   4.242  18.472  0.00  0.00    +0.000 OA
ATOM     17  H   UNL     1       7.161   3.526  17.941  0.00  0.00    +0.000 HD
ENDBRANCH  10  16
ENDBRANCH   1  14
BRANCH   9  18
ATOM     18  N   UNL     1       1.811   6.390  20.815  0.00  0.00    +0.000 N 
ATOM     19  H   UNL     1       1.228   6.774  21.558  0.00  0.00    +0.000 HD
BRANCH  18  20
ATOM     20  C   UNL     1       1.684   4.982  20.790  0.00  0.00    +0.000 A 
ATOM     21  C   UNL     1       2.642   4.230  21.489  0.00  0.00    +0.000 A 
ATOM     22  C   UNL     1       2.632   2.835  21.454  0.00  0.00    +0.000 A 
ATOM     23  C   UNL     1       1.661   2.167  20.714  0.00  0.00    +0.000 A 
ATOM     24  C   UNL     1       0.699   2.895  20.018  0.00  0.00    +0.000 A 
ATOM     25  C   UNL     1       0.711   4.294  20.057  0.00  0.00    +0.000 A 
ENDBRANCH  18  20
ENDBRANCH   9  18
TORSDOF 4
ENDMDL
MODEL 9
REMARK VINA RESULT:      -8.0      2.663      5.301
REMARK  Name = 
REMARK  4 active torsions:
REMARK  status: ('A' for Active; 'I' for Inactive)
REMARK    1  A    between atoms: O_1  and  C_2
REMARK    2  A    between atoms: C_6  and  C_7
REMARK    3  A    between atoms: C_15  and  N_16
REMARK    4  A    between atoms: N_16  and  C_17
REMARK                            x       y       z     vdW  Elec       q    Type
REMARK                         _______ _______ _______ _____ _____    ______ ____
ROOT
ATOM      1  C   UNL     1       3.997   6.893  17.703  0.00  0.00    +0.000 A 
ATOM      2  N   UNL     1       3.436   8.002  17.102  0.00  0.00    +0.000 NA
ATOM      3  C   UNL     1       2.579   8.451  17.988  0.00  0.00    +0.000 A 
ATOM      4  C   UNL     1       1.707   9.589  17.881  0.00  0.00    +0.000 A 
ATOM      5  N   UNL     1       0.895   9.934  18.846  0.00  0.00    +0.000 NA
ATOM      6  C   UNL     1       0.889   9.142  19.982  0.00  0.00    +0.000 A 
ATOM      7  C   UNL     1       1.655   8.049  20.146  0.00  0.00    +0.000 A 
ATOM      8  N   UNL     1       2.538   7.696  19.134  0.00  0.00    +0.000 N 
ATOM      9  C   UNL     1       3.440   6.661  18.963  0.00  0.00    +0.000 A 
ENDROOT
BRANCH   1  14
ATOM     10  C   UNL     1       7.001   4.695  17.146  0.00  0.00    +0.000 A 
ATOM     11  C   UNL     1       7.014   4.571  15.762  0.00  0.00    +0.000 A 
ATOM     12  C   UNL     1       6.041   5.231  15.012  0.00  0.00    +0.000 A 
ATOM     13  C   UNL     1       5.055   5.990  15.654  0.00  0.00    +0.000 A 
ATOM     14  C   UNL     1       5.028   6.099  17.051  0.00  0.00    +0.000 A 
ATOM     15  C   UNL     1       6.032   5.458  17.790  0.00  0.00    +0.000 A 
BRANCH  10  16
ATOM     16  O   UNL     1       7.932   4.077  17.930  0.00  0.00    +0.000 OA
ATOM     17  H   UNL     1       7.477   3.437  18.503  0.00  0.00    +0.000 HD
ENDBRANCH  10  16
ENDBRANCH   1  14
BRANCH   9  18
ATOM     18  N   UNL     1       3.562   5.609  19.821  0.00  0.00    +0.000 N 
ATOM     19  H   UNL     1       3.932   5.812  20.749  0.00  0.00    +0.000 HD
BRANCH  18  20
ATOM     20  C   UNL     1       2.798   4.420  19.862  0.00  0.00    +0.000 A 
ATOM     21  C   UNL     1       2.056   4.165  21.027  0.00  0.00    +0.000 A 
ATOM     22  C   UNL     1       1.334   2.980  21.179  0.00  0.00    +0.000 A 
ATOM     23  C   UNL     1       1.346   2.026  20.167  0.00  0.00    +0.000 A 
ATOM     24  C   UNL     1       2.073   2.263  19.001  0.00  0.00    +0.000 A 
ATOM     25  C   UNL     1       2.793   3.453  18.851  0.00  0.00    +0.000 A 
ENDBRANCH  18  20
ENDBRANCH   9  18
TORSDOF 4
ENDMDL
