MODEL 1
REMARK VINA RESULT:      -5.8      0.000      0.000
REMARK  Name = 
REMARK  9 active torsions:
REMARK  status: ('A' for Active; 'I' for Inactive)
REMARK    1  A    between atoms: C_1  and  O_2
REMARK    2  A    between atoms: O_2  and  C_3
REMARK    3  A    between atoms: C_6  and  O_7
REMARK    4  A    between atoms: O_7  and  C_8
REMARK    5  A    between atoms: C_9  and  C_10
REMARK    6  A    between atoms: C_10  and  O_11
REMARK    7  A    between atoms: C_10  and  C_12
REMARK    8  A    between atoms: C_12  and  C_13
REMARK    9  A    between atoms: C_12  and  N_14
REMARK                            x       y       z     vdW  Elec       q    Type
REMARK                         _______ _______ _______ _____ _____    ______ ____
ROOT
ATOM      1  C   UNL     1       5.537   4.251  15.259  0.00  0.00    +0.000 A 
ATOM      2  C   UNL     1       6.849   4.610  15.522  0.00  0.00    +0.000 A 
ATOM      3  C   UNL     1       7.287   4.779  16.838  0.00  0.00    +0.000 A 
ATOM      4  C   UNL     1       6.415   4.602  17.925  0.00  0.00    +0.000 A 
ATOM      5  C   UNL     1       5.063   4.300  17.676  0.00  0.00    +0.000 A 
ATOM      6  C   UNL     1       4.662   4.092  16.331  0.00  0.00    +0.000 A 
ENDROOT
BRANCH   1   8
ATOM      7  C   UNL     1       6.302   3.751  13.071  0.00  0.00    +0.000 C 
ATOM      8  O   UNL     1       5.225   4.086  13.940  0.00  0.00    +0.000 OA
ENDBRANCH   1   8
BRANCH   4   9
ATOM      9  O   UNL     1       6.827   4.731  19.225  0.00  0.00    +0.000 OA
ATOM     10  C   UNL     1       7.826   5.721  19.480  0.00  0.00    +0.000 C 
ENDBRANCH   4   9
BRANCH   5  11
ATOM     11  C   UNL     1       3.969   4.101  18.709  0.00  0.00    +0.000 C 
BRANCH  11  12
ATOM     12  O   UNL     1       2.739   4.565  18.134  0.00  0.00    +0.000 OA
ATOM     13  H   UNL     1       2.933   4.817  17.220  0.00  0.00    +0.000 HD
ENDBRANCH  11  12
BRANCH  11  14
ATOM     14  C   UNL     1       3.792   2.763  19.503  0.00  0.00    +0.000 C 
ATOM     15  C   UNL     1       2.816   2.923  20.670  0.00  0.00    +0.000 C 
BRANCH  14  16
ATOM     16  N   UNL     1       5.021   2.112  19.979  0.00  0.00    +0.000 NA
ATOM     17  H   UNL     1       5.813   2.646  19.609  0.00  0.00    +0.000 HD
ATOM     18  H   UNL     1       5.123   1.178  19.594  0.00  0.00    +0.000 HD
ENDBRANCH  14  16
ENDBRANCH  11  14
ENDBRANCH   5  11
TORSDOF 6
ENDMDL
MODEL 2
REMARK VINA RESULT:      -5.8      2.361      2.937
REMARK  Name = 
REMARK  9 active torsions:
REMARK  status: ('A' for Active; 'I' for Inactive)
REMARK    1  A    between atoms: C_1  and  O_2
REMARK    2  A    between atoms: O_2  and  C_3
REMARK    3  A    between atoms: C_6  and  O_7
REMARK    4  A    between atoms: O_7  and  C_8
REMARK    5  A    between atoms: C_9  and  C_10
REMARK    6  A    between atoms: C_10  and  O_11
REMARK    7  A    between atoms: C_10  and  C_12
REMARK    8  A    between atoms: C_12  and  C_13
REMARK    9  A    between atoms: C_12  and  N_14
REMARK                            x       y       z     vdW  Elec       q    Type
REMARK                         _______ _______ _______ _____ _____    ______ ____
ROOT
ATOM      1  C   UNL     1       5.081   4.465  16.192  0.00  0.00    +0.000 A 
ATOM      2  C   UNL     1       5.425   5.807  16.153  0.00  0.00    +0.000 A 
ATOM      3  C   UNL     1       4.715   6.743  16.910  0.00  0.00    +0.000 A 
ATOM      4  C   UNL     1       3.633   6.357  17.718  0.00  0.00    +0.000 A 
ATOM      5  C   UNL     1       3.228   5.009  17.721  0.00  0.00    +0.000 A 
ATOM      6  C   UNL     1       3.998   4.079  16.977  0.00  0.00    +0.000 A 
ENDROOT
BRANCH   1   8
ATOM      7  C   UNL     1       6.464   4.212  14.283  0.00  0.00    +0.000 C 
ATOM      8  O   UNL     1       5.859   3.636  15.435  0.00  0.00    +0.000 OA
ENDBRANCH   1   8
BRANCH   4   9
ATOM      9  O   UNL     1       2.941   7.249  18.493  0.00  0.00    +0.000 OA
ATOM     10  C   UNL     1       2.447   8.416  17.832  0.00  0.00    +0.000 C 
ENDBRANCH   4   9
BRANCH   5  11
ATOM     11  C   UNL     1       2.072   4.407  18.501  0.00  0.00    +0.000 C 
BRANCH  11  12
ATOM     12  O   UNL     1       1.567   3.300  17.741  0.00  0.00    +0.000 OA
ATOM     13  H   UNL     1       0.751   3.010  18.174  0.00  0.00    +0.000 HD
ENDBRANCH  11  12
BRANCH  11  14
ATOM     14  C   UNL     1       2.161   4.094  20.032  0.00  0.00    +0.000 C 
ATOM     15  C   UNL     1       0.953   3.289  20.515  0.00  0.00    +0.000 C 
BRANCH  14  16
ATOM     16  N   UNL     1       2.376   5.239  20.928  0.00  0.00    +0.000 NA
ATOM     17  H   UNL     1       3.266   5.672  20.663  0.00  0.00    +0.000 HD
ATOM     18  H   UNL     1       2.496   4.944  21.891  0.00  0.00    +0.000 HD
ENDBRANCH  14  16
ENDBRANCH  11  14
ENDBRANCH   5  11
TORSDOF 6
ENDMDL
MODEL 3
REMARK VINA RESULT:      -5.8      1.503      1.588
REMARK  Name = 
REMARK  9 active torsions:
REMARK  status: ('A' for Active; 'I' for Inactive)
REMARK    1  A    between atoms: C_1  and  O_2
REMARK    2  A    between atoms: O_2  and  C_3
REMARK    3  A    between atoms: C_6  and  O_7
REMARK    4  A    between atoms: O_7  and  C_8
REMARK    5  A    between atoms: C_9  and  C_10
REMARK    6  A    between atoms: C_10  and  O_11
REMARK    7  A    between atoms: C_10  and  C_12
REMARK    8  A    between atoms: C_12  and  C_13
REMARK    9  A    between atoms: C_12  and  N_14
REMARK                            x       y       z     vdW  Elec       q    Type
REMARK                         _______ _______ _______ _____ _____    ______ ____
ROOT
ATOM      1  C   UNL     1       5.508   4.569  15.530  0.00  0.00    +0.000 A 
ATOM      2  C   UNL     1       6.560   5.414  15.845  0.00  0.00    +0.000 A 
ATOM      3  C   UNL     1       6.922   5.627  17.177  0.00  0.00    +0.000 A 
ATOM      4  C   UNL     1       6.230   5.005  18.230  0.00  0.00    +0.000 A 
ATOM      5  C   UNL     1       5.119   4.194  17.933  0.00  0.00    +0.000 A 
ATOM      6  C   UNL     1       4.806   3.964  16.569  0.00  0.00    +0.000 A 
ENDROOT
BRANCH   1   8
ATOM      7  C   UNL     1       6.280   3.783  13.431  0.00  0.00    +0.000 C 
ATOM      8  O   UNL     1       5.258   4.412  14.196  0.00  0.00    +0.000 OA
ENDBRANCH   1   8
BRANCH   4   9
ATOM      9  O   UNL     1       6.585   5.173  19.542  0.00  0.00    +0.000 OA
ATOM     10  C   UNL     1       7.916   5.630  19.788  0.00  0.00    +0.000 C 
ENDBRANCH   4   9
BRANCH   5  11
ATOM     11  C   UNL     1       4.232   3.465  18.927  0.00  0.00    +0.000 C 
BRANCH  11  12
ATOM     12  O   UNL     1       5.079   2.638  19.739  0.00  0.00    +0.000 OA
ATOM     13  H   UNL     1       5.686   2.181  19.139  0.00  0.00    +0.000 HD
ENDBRANCH  11  12
BRANCH  11  14
ATOM     14  C   UNL     1       3.125   4.192  19.762  0.00  0.00    +0.000 C 
ATOM     15  C   UNL     1       1.751   4.073  19.101  0.00  0.00    +0.000 C 
BRANCH  14  16
ATOM     16  N   UNL     1       3.381   5.596  20.112  0.00  0.00    +0.000 NA
ATOM     17  H   UNL     1       3.491   6.115  19.236  0.00  0.00    +0.000 HD
ATOM     18  H   UNL     1       4.263   5.705  20.601  0.00  0.00    +0.000 HD
ENDBRANCH  14  16
ENDBRANCH  11  14
ENDBRANCH   5  11
TORSDOF 6
ENDMDL
MODEL 4
REMARK VINA RESULT:      -5.8      2.683      5.188
REMARK  Name = 
REMARK  9 active torsions:
REMARK  status: ('A' for Active; 'I' for Inactive)
REMARK    1  A    between atoms: C_1  and  O_2
REMARK    2  A    between atoms: O_2  and  C_3
REMARK    3  A    between atoms: C_6  and  O_7
REMARK    4  A    between atoms: O_7  and  C_8
REMARK    5  A    between atoms: C_9  and  C_10
REMARK    6  A    between atoms: C_10  and  O_11
REMARK    7  A    between atoms: C_10  and  C_12
REMARK    8  A    between atoms: C_12  and  C_13
REMARK    9  A    between atoms: C_12  and  N_14
REMARK                            x       y       z     vdW  Elec       q    Type
REMARK                         _______ _______ _______ _____ _____    ______ ____
ROOT
ATOM      1  C   UNL     1       2.883   3.174  19.801  0.00  0.00    +0.000 A 
ATOM      2  C   UNL     1       1.977   3.910  19.053  0.00  0.00    +0.000 A 
ATOM      3  C   UNL     1       2.426   4.836  18.108  0.00  0.00    +0.000 A 
ATOM      4  C   UNL     1       3.797   5.055  17.896  0.00  0.00    +0.000 A 
ATOM      5  C   UNL     1       4.732   4.364  18.689  0.00  0.00    +0.000 A 
ATOM      6  C   UNL     1       4.244   3.400  19.608  0.00  0.00    +0.000 A 
ENDROOT
BRANCH   1   8
ATOM      7  C   UNL     1       1.326   2.780  21.545  0.00  0.00    +0.000 C 
ATOM      8  O   UNL     1       2.335   2.279  20.675  0.00  0.00    +0.000 OA
ENDBRANCH   1   8
BRANCH   4   9
ATOM      9  O   UNL     1       4.262   5.934  16.954  0.00  0.00    +0.000 OA
ATOM     10  C   UNL     1       4.061   7.323  17.226  0.00  0.00    +0.000 C 
ENDBRANCH   4   9
BRANCH   5  11
ATOM     11  C   UNL     1       6.244   4.486  18.629  0.00  0.00    +0.000 C 
BRANCH  11  12
ATOM     12  O   UNL     1       6.652   4.172  17.290  0.00  0.00    +0.000 OA
ATOM     13  H   UNL     1       6.317   4.879  16.720  0.00  0.00    +0.000 HD
ENDBRANCH  11  12
BRANCH  11  14
ATOM     14  C   UNL     1       7.015   5.714  19.219  0.00  0.00    +0.000 C 
ATOM     15  C   UNL     1       7.637   6.572  18.117  0.00  0.00    +0.000 C 
BRANCH  14  16
ATOM     16  N   UNL     1       8.027   5.426  20.245  0.00  0.00    +0.000 NA
ATOM     17  H   UNL     1       8.933   5.362  19.771  0.00  0.00    +0.000 HD
ATOM     18  H   UNL     1       7.881   4.515  20.669  0.00  0.00    +0.000 HD
ENDBRANCH  14  16
ENDBRANCH  11  14
ENDBRANCH   5  11
TORSDOF 6
ENDMDL
MODEL 5
REMARK VINA RESULT:      -5.8      1.950      2.607
REMARK  Name = 
REMARK  9 active torsions:
REMARK  status: ('A' for Active; 'I' for Inactive)
REMARK    1  A    between atoms: C_1  and  O_2
REMARK    2  A    between atoms: O_2  and  C_3
REMARK    3  A    between atoms: C_6  and  O_7
REMARK    4  A    between atoms: O_7  and  C_8
REMARK    5  A    between atoms: C_9  and  C_10
REMARK    6  A    between atoms: C_10  and  O_11
REMARK    7  A    between atoms: C_10  and  C_12
REMARK    8  A    between atoms: C_12  and  C_13
REMARK    9  A    between atoms: C_12  and  N_14
REMARK                            x       y       z     vdW  Elec       q    Type
REMARK                         _______ _______ _______ _____ _____    ______ ____
ROOT
ATOM      1  C   UNL     1       5.484   5.371  15.781  0.00  0.00    +0.000 A 
ATOM      2  C   UNL     1       5.107   6.627  16.230  0.00  0.00    +0.000 A 
ATOM      3  C   UNL     1       4.486   6.778  17.472  0.00  0.00    +0.000 A 
ATOM      4  C   UNL     1       4.218   5.671  18.293  0.00  0.00    +0.000 A 
ATOM      5  C   UNL     1       4.536   4.381  17.828  0.00  0.00    +0.000 A 
ATOM      6  C   UNL     1       5.205   4.267  16.582  0.00  0.00    +0.000 A 
ENDROOT
BRANCH   1   8
ATOM      7  C   UNL     1       6.233   4.067  13.948  0.00  0.00    +0.000 C 
ATOM      8  O   UNL     1       6.108   5.343  14.567  0.00  0.00    +0.000 OA
ENDBRANCH   1   8
BRANCH   4   9
ATOM      9  O   UNL     1       3.639   5.795  19.528  0.00  0.00    +0.000 OA
ATOM     10  C   UNL     1       2.452   6.589  19.597  0.00  0.00    +0.000 C 
ENDBRANCH   4   9
BRANCH   5  11
ATOM     11  C   UNL     1       4.299   3.067  18.552  0.00  0.00    +0.000 C 
BRANCH  11  12
ATOM     12  O   UNL     1       5.271   2.970  19.603  0.00  0.00    +0.000 OA
ATOM     13  H   UNL     1       5.459   2.029  19.727  0.00  0.00    +0.000 HD
ENDBRANCH  11  12
BRANCH  11  14
ATOM     14  C   UNL     1       2.876   2.599  19.006  0.00  0.00    +0.000 C 
ATOM     15  C   UNL     1       1.799   3.009  18.000  0.00  0.00    +0.000 C 
BRANCH  14  16
ATOM     16  N   UNL     1       2.455   2.989  20.359  0.00  0.00    +0.000 NA
ATOM     17  H   UNL     1       2.443   2.140  20.932  0.00  0.00    +0.000 HD
ATOM     18  H   UNL     1       1.501   3.334  20.370  0.00  0.00    +0.000 HD
ENDBRANCH  14  16
ENDBRANCH  11  14
ENDBRANCH   5  11
TORSDOF 6
ENDMDL
MODEL 6
REMARK VINA RESULT:      -5.8      1.239      1.328
REMARK  Name = 
REMARK  9 active torsions:
REMARK  status: ('A' for Active; 'I' for Inactive)
REMARK    1  A    between atoms: C_1  and  O_2
REMARK    2  A    between atoms: O_2  and  C_3
REMARK    3  A    between atoms: C_6  and  O_7
REMARK    4  A    between atoms: O_7  and  C_8
REMARK    5  A    between atoms: C_9  and  C_10
REMARK    6  A    between atoms: C_10  and  O_11
REMARK    7  A    between atoms: C_10  and  C_12
REMARK    8  A    between atoms: C_12  and  C_13
REMARK    9  A    between atoms: C_12  and  N_14
REMARK                            x       y       z     vdW  Elec       q    Type
REMARK                         _______ _______ _______ _____ _____    ______ ____
ROOT
ATOM      1  C   UNL     1       5.662   4.215  14.929  0.00  0.00    +0.000 A 
ATOM      2  C   UNL     1       6.910   4.726  15.250  0.00  0.00    +0.000 A 
ATOM      3  C   UNL     1       7.287   4.889  16.585  0.00  0.00    +0.000 A 
ATOM      4  C   UNL     1       6.416   4.551  17.634  0.00  0.00    +0.000 A 
ATOM      5  C   UNL     1       5.122   4.090  17.330  0.00  0.00    +0.000 A 
ATOM      6  C   UNL     1       4.788   3.895  15.965  0.00  0.00    +0.000 A 
ENDROOT
BRANCH   1   8
ATOM      7  C   UNL     1       6.524   3.750  12.770  0.00  0.00    +0.000 C 
ATOM      8  O   UNL     1       5.410   4.072  13.595  0.00  0.00    +0.000 OA
ENDBRANCH   1   8
BRANCH   4   9
ATOM      9  O   UNL     1       6.773   4.672  18.952  0.00  0.00    +0.000 OA
ATOM     10  C   UNL     1       7.687   5.725  19.269  0.00  0.00    +0.000 C 
ENDBRANCH   4   9
BRANCH   5  11
ATOM     11  C   UNL     1       4.036   3.705  18.318  0.00  0.00    +0.000 C 
BRANCH  11  12
ATOM     12  O   UNL     1       3.808   4.834  19.174  0.00  0.00    +0.000 OA
ATOM     13  H   UNL     1       3.617   5.589  18.600  0.00  0.00    +0.000 HD
ENDBRANCH  11  12
BRANCH  11  14
ATOM     14  C   UNL     1       2.705   3.007  17.878  0.00  0.00    +0.000 C 
ATOM     15  C   UNL     1       1.498   3.929  18.057  0.00  0.00    +0.000 C 
BRANCH  14  16
ATOM     16  N   UNL     1       2.416   1.699  18.484  0.00  0.00    +0.000 NA
ATOM     17  H   UNL     1       1.648   1.279  17.952  0.00  0.00    +0.000 HD
ATOM     18  H   UNL     1       2.066   1.795  19.432  0.00  0.00    +0.000 HD
ENDBRANCH  14  16
ENDBRANCH  11  14
ENDBRANCH   5  11
TORSDOF 6
ENDMDL
MODEL 7
REMARK VINA RESULT:      -5.8      2.472      3.943
REMARK  Name = 
REMARK  9 active torsions:
REMARK  status: ('A' for Active; 'I' for Inactive)
REMARK    1  A    between atoms: C_1  and  O_2
REMARK    2  A    between atoms: O_2  and  C_3
REMARK    3  A    between atoms: C_6  and  O_7
REMARK    4  A    between atoms: O_7  and  C_8
REMARK    5  A    between atoms: C_9  and  C_10
REMARK    6  A    between atoms: C_10  and  O_11
REMARK    7  A    between atoms: C_10  and  C_12
REMARK    8  A    between atoms: C_12  and  C_13
REMARK    9  A    between atoms: C_12  and  N_14
REMARK                            x       y       z     vdW  Elec       q    Type
REMARK                         _______ _______ _______ _____ _____    ______ ____
ROOT
ATOM      1  C   UNL     1       2.771   6.980  18.274  0.00  0.00    +0.000 A 
ATOM      2  C   UNL     1       3.863   7.196  17.448  0.00  0.00    +0.000 A 
ATOM      3  C   UNL     1       4.568   6.118  16.908  0.00  0.00    +0.000 A 
ATOM      4  C   UNL     1       4.201   4.792  17.192  0.00  0.00    +0.000 A 
ATOM      5  C   UNL     1       3.135   4.551  18.078  0.00  0.00    +0.000 A 
ATOM      6  C   UNL     1       2.414   5.668  18.573  0.00  0.00    +0.000 A 
ENDROOT
BRANCH   1   8
ATOM      7  C   UNL     1       2.051   9.190  17.805  0.00  0.00    +0.000 C 
ATOM      8  O   UNL     1       2.141   8.105  18.722  0.00  0.00    +0.000 OA
ENDBRANCH   1   8
BRANCH   4   9
ATOM      9  O   UNL     1       4.856   3.718  16.651  0.00  0.00    +0.000 OA
ATOM     10  C   UNL     1       5.994   4.011  15.836  0.00  0.00    +0.000 C 
ENDBRANCH   4   9
BRANCH   5  11
ATOM     11  C   UNL     1       2.612   3.199  18.527  0.00  0.00    +0.000 C 
BRANCH  11  12
ATOM     12  O   UNL     1       2.300   2.441  17.349  0.00  0.00    +0.000 OA
ATOM     13  H   UNL     1       2.773   1.599  17.423  0.00  0.00    +0.000 HD
ENDBRANCH  11  12
BRANCH  11  14
ATOM     14  C   UNL     1       3.327   2.339  19.622  0.00  0.00    +0.000 C 
ATOM     15  C   UNL     1       2.857   2.711  21.030  0.00  0.00    +0.000 C 
BRANCH  14  16
ATOM     16  N   UNL     1       4.797   2.317  19.586  0.00  0.00    +0.000 NA
ATOM     17  H   UNL     1       5.082   1.361  19.356  0.00  0.00    +0.000 HD
ATOM     18  H   UNL     1       5.196   2.504  20.500  0.00  0.00    +0.000 HD
ENDBRANCH  14  16
ENDBRANCH  11  14
ENDBRANCH   5  11
TORSDOF 6
ENDMDL
MODEL 8
REMARK VINA RESULT:      -5.7      3.225      4.815
REMARK  Name = 
REMARK  9 active torsions:
REMARK  status: ('A' for Active; 'I' for Inactive)
REMARK    1  A    between atoms: C_1  and  O_2
REMARK    2  A    between atoms: O_2  and  C_3
REMARK    3  A    between atoms: C_6  and  O_7
REMARK    4  A    between atoms: O_7  and  C_8
REMARK    5  A    between atoms: C_9  and  C_10
REMARK    6  A    between atoms: C_10  and  O_11
REMARK    7  A    between atoms: C_10  and  C_12
REMARK    8  A    between atoms: C_12  and  C_13
REMARK    9  A    between atoms: C_12  and  N_14
REMARK                            x       y       z     vdW  Elec       q    Type
REMARK                         _______ _______ _______ _____ _____    ______ ____
ROOT
ATOM      1  C   UNL     1       2.868   6.983  18.483  0.00  0.00    +0.000 A 
ATOM      2  C   UNL     1       2.115   6.981  19.647  0.00  0.00    +0.000 A 
ATOM      3  C   UNL     1       2.091   5.855  20.473  0.00  0.00    +0.000 A 
ATOM      4  C   UNL     1       2.814   4.696  20.147  0.00  0.00    +0.000 A 
ATOM      5  C   UNL     1       3.534   4.655  18.938  0.00  0.00    +0.000 A 
ATOM      6  C   UNL     1       3.573   5.831  18.145  0.00  0.00    +0.000 A 
ENDROOT
BRANCH   1   8
ATOM      7  C   UNL     1       1.680   8.955  17.917  0.00  0.00    +0.000 C 
ATOM      8  O   UNL     1       2.841   8.145  17.767  0.00  0.00    +0.000 OA
ENDBRANCH   1   8
BRANCH   4   9
ATOM      9  O   UNL     1       2.832   3.590  20.955  0.00  0.00    +0.000 OA
ATOM     10  C   UNL     1       1.573   3.172  21.489  0.00  0.00    +0.000 C 
ENDBRANCH   4   9
BRANCH   5  11
ATOM     11  C   UNL     1       4.348   3.492  18.402  0.00  0.00    +0.000 C 
BRANCH  11  12
ATOM     12  O   UNL     1       5.346   3.172  19.382  0.00  0.00    +0.000 OA
ATOM     13  H   UNL     1       4.887   2.768  20.131  0.00  0.00    +0.000 HD
ENDBRANCH  11  12
BRANCH  11  14
ATOM     14  C   UNL     1       3.687   2.215  17.781  0.00  0.00    +0.000 C 
ATOM     15  C   UNL     1       2.161   2.319  17.767  0.00  0.00    +0.000 C 
BRANCH  14  16
ATOM     16  N   UNL     1       4.085   0.922  18.355  0.00  0.00    +0.000 NA
ATOM     17  H   UNL     1       4.534   0.382  17.609  0.00  0.00    +0.000 HD
ATOM     18  H   UNL     1       3.279   0.373  18.636  0.00  0.00    +0.000 HD
ENDBRANCH  14  16
ENDBRANCH  11  14
ENDBRANCH   5  11
TORSDOF 6
ENDMDL
MODEL 9
REMARK VINA RESULT:      -5.7      2.169      4.508
REMARK  Name = 
REMARK  9 active torsions:
REMARK  status: ('A' for Active; 'I' for Inactive)
REMARK    1  A    between atoms: C_1  and  O_2
REMARK    2  A    between atoms: O_2  and  C_3
REMARK    3  A    between atoms: C_6  and  O_7
REMARK    4  A    between atoms: O_7  and  C_8
REMARK    5  A    between atoms: C_9  and  C_10
REMARK    6  A    between atoms: C_10  and  O_11
REMARK    7  A    between atoms: C_10  and  C_12
REMARK    8  A    between atoms: C_12  and  C_13
REMARK    9  A    between atoms: C_12  and  N_14
REMARK                            x       y       z     vdW  Elec       q    Type
REMARK                         _______ _______ _______ _____ _____    ______ ____
ROOT
ATOM      1  C   UNL     1       3.411   3.231  18.028  0.00  0.00    +0.000 A 
ATOM      2  C   UNL     1       4.088   3.474  19.213  0.00  0.00    +0.000 A 
ATOM      3  C   UNL     1       5.125   4.408  19.258  0.00  0.00    +0.000 A 
ATOM      4  C   UNL     1       5.519   5.116  18.111  0.00  0.00    +0.000 A 
ATOM      5  C   UNL     1       4.888   4.838  16.884  0.00  0.00    +0.000 A 
ATOM      6  C   UNL     1       3.809   3.917  16.883  0.00  0.00    +0.000 A 
ENDROOT
BRANCH   1   8
ATOM      7  C   UNL     1       1.805   2.138  19.387  0.00  0.00    +0.000 C 
ATOM      8  O   UNL     1       2.398   2.320  18.105  0.00  0.00    +0.000 OA
ENDBRANCH   1   8
BRANCH   4   9
ATOM      9  O   UNL     1       6.512   6.059  18.135  0.00  0.00    +0.000 OA
ATOM     10  C   UNL     1       7.635   5.779  18.973  0.00  0.00    +0.000 C 
ENDBRANCH   4   9
BRANCH   5  11
ATOM     11  C   UNL     1       5.190   5.473  15.539  0.00  0.00    +0.000 C 
BRANCH  11  12
ATOM     12  O   UNL     1       5.071   6.895  15.694  0.00  0.00    +0.000 OA
ATOM     13  H   UNL     1       5.890   7.284  15.356  0.00  0.00    +0.000 HD
ENDBRANCH  11  12
BRANCH  11  14
ATOM     14  C   UNL     1       6.430   5.065  14.673  0.00  0.00    +0.000 C 
ATOM     15  C   UNL     1       6.114   3.882  13.757  0.00  0.00    +0.000 C 
BRANCH  14  16
ATOM     16  N   UNL     1       7.681   4.803  15.398  0.00  0.00    +0.000 NA
ATOM     17  H   UNL     1       8.155   4.031  14.920  0.00  0.00    +0.000 HD
ATOM     18  H   UNL     1       7.506   4.469  16.340  0.00  0.00    +0.000 HD
ENDBRANCH  14  16
ENDBRANCH  11  14
ENDBRANCH   5  11
TORSDOF 6
ENDMDL
