MODEL 1
REMARK VINA RESULT:      -8.4      0.000      0.000
REMARK  Name = 
REMARK  10 active torsions:
REMARK  status: ('A' for Active; 'I' for Inactive)
REMARK    1  A    between atoms: C_1  and  C_2
REMARK    2  A    between atoms: C_8  and  C_9
REMARK    3  A    between atoms: C_9  and  C_10
REMARK    4  A    between atoms: C_10  and  C_11
REMARK    5  A    between atoms: C_11  and  C_12
REMARK    6  A    between atoms: C_12  and  C_13
REMARK    7  A    between atoms: C_18  and  C_20
REMARK    8  A    between atoms: C_20  and  C_21
REMARK    9  A    between atoms: C_25  and  C_26
REMARK   10  A    between atoms: C_26  and  N_27
REMARK                            x       y       z     vdW  Elec       q    Type
REMARK                         _______ _______ _______ _____ _____    ______ ____
ROOT
ATOM      1  C   UNL     1       3.550   4.006  18.818  0.00  0.00    +0.000 A 
ATOM      2  N   UNL     1       2.920   3.437  19.825  0.00  0.00    +0.000 NA
ATOM      3  N   UNL     1       2.260   4.368  20.614  0.00  0.00    +0.000 NA
ATOM      4  C   UNL     1       2.387   5.592  20.147  0.00  0.00    +0.000 A 
ATOM      5  N   UNL     1       1.837   6.694  20.758  0.00  0.00    +0.000 N 
ATOM      6  C   UNL     1       1.736   7.950  20.197  0.00  0.00    +0.000 C 
ATOM      7  O   UNL     1       2.075   8.276  19.061  0.00  0.00    +0.000 OA
ATOM      8  S   UNL     1       3.371   5.710  18.763  0.00  0.00    +0.000 S 
ATOM      9  H   UNL     1       1.358   6.489  21.625  0.00  0.00    +0.000 HD
ENDROOT
BRANCH   1  10
ATOM     10  C   UNL     1       4.428   3.329  17.816  0.00  0.00    +0.000 C 
BRANCH  10  11
ATOM     11  C   UNL     1       4.063   3.647  16.368  0.00  0.00    +0.000 C 
BRANCH  11  12
ATOM     12  C   UNL     1       5.084   4.623  15.774  0.00  0.00    +0.000 C 
BRANCH  12  13
ATOM     13  C   UNL     1       6.512   4.305  16.221  0.00  0.00    +0.000 C 
BRANCH  13  21
ATOM     14  C   UNL     1       9.641  10.795  19.546  0.00  0.00    +0.000 C 
ATOM     15  C   UNL     1       8.818   9.886  18.670  0.00  0.00    +0.000 C 
ATOM     16  O   UNL     1       8.242  10.331  17.683  0.00  0.00    +0.000 OA
ATOM     17  N   UNL     1       8.806   8.577  19.117  0.00  0.00    +0.000 N 
ATOM     18  C   UNL     1       8.212   7.519  18.414  0.00  0.00    +0.000 A 
ATOM     19  C   UNL     1       8.092   6.291  19.046  0.00  0.00    +0.000 A 
ATOM     20  C   UNL     1       7.515   5.222  18.357  0.00  0.00    +0.000 A 
ATOM     21  C   UNL     1       7.099   5.415  17.049  0.00  0.00    +0.000 A 
ATOM     22  N   UNL     1       7.243   6.614  16.455  0.00  0.00    +0.000 NA
ATOM     23  N   UNL     1       7.789   7.670  17.147  0.00  0.00    +0.000 NA
ATOM     24  H   UNL     1       9.217   8.373  20.016  0.00  0.00    +0.000 HD
ENDBRANCH  13  21
ENDBRANCH  12  13
ENDBRANCH  11  12
ENDBRANCH  10  11
ENDBRANCH   1  10
BRANCH   6  25
ATOM     25  C   UNL     1       1.115   8.980  21.124  0.00  0.00    +0.000 C 
BRANCH  25  26
ATOM     26  C   UNL     1       0.479  10.138  20.393  0.00  0.00    +0.000 A 
ATOM     27  C   UNL     1       0.832  11.454  20.716  0.00  0.00    +0.000 A 
ATOM     28  C   UNL     1       0.281  12.523  20.013  0.00  0.00    +0.000 A 
ATOM     29  C   UNL     1      -0.622  12.293  18.975  0.00  0.00    +0.000 A 
ATOM     30  C   UNL     1      -0.998  10.985  18.634  0.00  0.00    +0.000 A 
ATOM     31  C   UNL     1      -0.437   9.915  19.349  0.00  0.00    +0.000 A 
BRANCH  30  32
ATOM     32  C   UNL     1      -1.952  10.744  17.490  0.00  0.00    +0.000 C 
BRANCH  32  33
ATOM     33  N   UNL     1      -3.033   9.840  17.867  0.00  0.00    +0.000 NA
ATOM     34  H   UNL     1      -3.885  10.137  17.394  0.00  0.00    +0.000 HD
ATOM     35  H   UNL     1      -3.212   9.933  18.865  0.00  0.00    +0.000 HD
ENDBRANCH  32  33
ENDBRANCH  30  32
ENDBRANCH  25  26
ENDBRANCH   6  25
TORSDOF 9
ENDMDL
MODEL 2
REMARK VINA RESULT:      -8.4      1.538      1.887
REMARK  Name = 
REMARK  10 active torsions:
REMARK  status: ('A' for Active; 'I' for Inactive)
REMARK    1  A    between atoms: C_1  and  C_2
REMARK    2  A    between atoms: C_8  and  C_9
REMARK    3  A    between atoms: C_9  and  C_10
REMARK    4  A    between atoms: C_10  and  C_11
REMARK    5  A    between atoms: C_11  and  C_12
REMARK    6  A    between atoms: C_12  and  C_13
REMARK    7  A    between atoms: C_18  and  C_20
REMARK    8  A    between atoms: C_20  and  C_21
REMARK    9  A    between atoms: C_25  and  C_26
REMARK   10  A    between atoms: C_26  and  N_27
REMARK                            x       y       z     vdW  Elec       q    Type
REMARK                         _______ _______ _______ _____ _____    ______ ____
ROOT
ATOM      1  C   UNL     1       3.118   4.177  18.352  0.00  0.00    +0.000 A 
ATOM      2  N   UNL     1       2.486   3.432  19.236  0.00  0.00    +0.000 NA
ATOM      3  N   UNL     1       1.927   4.196  20.249  0.00  0.00    +0.000 NA
ATOM      4  C   UNL     1       2.126   5.484  20.067  0.00  0.00    +0.000 A 
ATOM      5  N   UNL     1       1.683   6.449  20.941  0.00  0.00    +0.000 N 
ATOM      6  C   UNL     1       1.654   7.804  20.687  0.00  0.00    +0.000 C 
ATOM      7  O   UNL     1       1.974   8.361  19.638  0.00  0.00    +0.000 OA
ATOM      8  S   UNL     1       3.063   5.856  18.695  0.00  0.00    +0.000 S 
ATOM      9  H   UNL     1       1.223   6.080  21.763  0.00  0.00    +0.000 HD
ENDROOT
BRANCH   1  10
ATOM     10  C   UNL     1       3.905   3.694  17.177  0.00  0.00    +0.000 C 
BRANCH  10  11
ATOM     11  C   UNL     1       4.388   4.817  16.261  0.00  0.00    +0.000 C 
BRANCH  11  12
ATOM     12  C   UNL     1       5.371   4.260  15.226  0.00  0.00    +0.000 C 
BRANCH  12  13
ATOM     13  C   UNL     1       6.741   3.959  15.838  0.00  0.00    +0.000 C 
BRANCH  13  21
ATOM     14  C   UNL     1       9.358  10.462  19.556  0.00  0.00    +0.000 C 
ATOM     15  C   UNL     1       8.661   9.549  18.580  0.00  0.00    +0.000 C 
ATOM     16  O   UNL     1       8.209   9.995  17.531  0.00  0.00    +0.000 OA
ATOM     17  N   UNL     1       8.608   8.239  19.017  0.00  0.00    +0.000 N 
ATOM     18  C   UNL     1       8.118   7.178  18.240  0.00  0.00    +0.000 A 
ATOM     19  C   UNL     1       7.933   5.945  18.847  0.00  0.00    +0.000 A 
ATOM     20  C   UNL     1       7.458   4.875  18.086  0.00  0.00    +0.000 A 
ATOM     21  C   UNL     1       7.207   5.071  16.737  0.00  0.00    +0.000 A 
ATOM     22  N   UNL     1       7.412   6.275  16.171  0.00  0.00    +0.000 NA
ATOM     23  N   UNL     1       7.855   7.332  16.931  0.00  0.00    +0.000 NA
ATOM     24  H   UNL     1       8.904   8.033  19.959  0.00  0.00    +0.000 HD
ENDBRANCH  13  21
ENDBRANCH  12  13
ENDBRANCH  11  12
ENDBRANCH  10  11
ENDBRANCH   1  10
BRANCH   6  25
ATOM     25  C   UNL     1       1.146   8.630  21.856  0.00  0.00    +0.000 C 
BRANCH  25  26
ATOM     26  C   UNL     1       0.207   9.738  21.443  0.00  0.00    +0.000 A 
ATOM     27  C   UNL     1      -0.106   9.929  20.092  0.00  0.00    +0.000 A 
ATOM     28  C   UNL     1      -1.008  10.921  19.712  0.00  0.00    +0.000 A 
ATOM     29  C   UNL     1      -1.611  11.730  20.675  0.00  0.00    +0.000 A 
ATOM     30  C   UNL     1      -1.312  11.565  22.035  0.00  0.00    +0.000 A 
ATOM     31  C   UNL     1      -0.402  10.562  22.407  0.00  0.00    +0.000 A 
BRANCH  30  32
ATOM     32  C   UNL     1      -1.994  12.423  23.072  0.00  0.00    +0.000 C 
BRANCH  32  33
ATOM     33  N   UNL     1      -3.422  12.138  23.157  0.00  0.00    +0.000 NA
ATOM     34  H   UNL     1      -3.623  11.761  24.082  0.00  0.00    +0.000 HD
ATOM     35  H   UNL     1      -3.655  11.403  22.492  0.00  0.00    +0.000 HD
ENDBRANCH  32  33
ENDBRANCH  30  32
ENDBRANCH  25  26
ENDBRANCH   6  25
TORSDOF 9
ENDMDL
MODEL 3
REMARK VINA RESULT:      -8.3      4.186      9.662
REMARK  Name = 
REMARK  10 active torsions:
REMARK  status: ('A' for Active; 'I' for Inactive)
REMARK    1  A    between atoms: C_1  and  C_2
REMARK    2  A    between atoms: C_8  and  C_9
REMARK    3  A    between atoms: C_9  and  C_10
REMARK    4  A    between atoms: C_10  and  C_11
REMARK    5  A    between atoms: C_11  and  C_12
REMARK    6  A    between atoms: C_12  and  C_13
REMARK    7  A    between atoms: C_18  and  C_20
REMARK    8  A    between atoms: C_20  and  C_21
REMARK    9  A    between atoms: C_25  and  C_26
REMARK   10  A    between atoms: C_26  and  N_27
REMARK                            x       y       z     vdW  Elec       q    Type
REMARK                         _______ _______ _______ _____ _____    ______ ____
ROOT
ATOM      1  C   UNL     1      -0.341  10.366  22.385  0.00  0.00    +0.000 A 
ATOM      2  N   UNL     1       0.543   9.960  23.273  0.00  0.00    +0.000 NA
ATOM      3  N   UNL     1       1.463   9.081  22.721  0.00  0.00    +0.000 NA
ATOM      4  C   UNL     1       1.259   8.893  21.435  0.00  0.00    +0.000 A 
ATOM      5  N   UNL     1       2.028   8.054  20.662  0.00  0.00    +0.000 N 
ATOM      6  C   UNL     1       2.012   8.001  19.284  0.00  0.00    +0.000 C 
ATOM      7  O   UNL     1       1.352   8.712  18.529  0.00  0.00    +0.000 OA
ATOM      8  S   UNL     1      -0.101   9.711  20.819  0.00  0.00    +0.000 S 
ATOM      9  H   UNL     1       2.743   7.558  21.178  0.00  0.00    +0.000 HD
ENDROOT
BRANCH   1  10
ATOM     10  C   UNL     1      -1.521  11.247  22.638  0.00  0.00    +0.000 C 
BRANCH  10  11
ATOM     11  C   UNL     1      -1.148  12.648  23.116  0.00  0.00    +0.000 C 
BRANCH  11  12
ATOM     12  C   UNL     1      -2.280  13.630  22.791  0.00  0.00    +0.000 C 
BRANCH  12  13
ATOM     13  C   UNL     1      -1.946  14.515  21.589  0.00  0.00    +0.000 C 
BRANCH  13  21
ATOM     14  C   UNL     1      -2.745   9.854  15.216  0.00  0.00    +0.000 C 
ATOM     15  C   UNL     1      -3.055  10.767  16.375  0.00  0.00    +0.000 C 
ATOM     16  O   UNL     1      -4.210  10.906  16.762  0.00  0.00    +0.000 OA
ATOM     17  N   UNL     1      -1.929  11.383  16.888  0.00  0.00    +0.000 N 
ATOM     18  C   UNL     1      -1.935  12.184  18.039  0.00  0.00    +0.000 A 
ATOM     19  C   UNL     1      -0.791  12.904  18.350  0.00  0.00    +0.000 A 
ATOM     20  C   UNL     1      -0.775  13.698  19.498  0.00  0.00    +0.000 A 
ATOM     21  C   UNL     1      -1.899  13.725  20.310  0.00  0.00    +0.000 A 
ATOM     22  N   UNL     1      -2.990  13.003  19.992  0.00  0.00    +0.000 NA
ATOM     23  N   UNL     1      -3.009  12.243  18.846  0.00  0.00    +0.000 NA
ATOM     24  H   UNL     1      -1.056  11.280  16.391  0.00  0.00    +0.000 HD
ENDBRANCH  13  21
ENDBRANCH  12  13
ENDBRANCH  11  12
ENDBRANCH  10  11
ENDBRANCH   1  10
BRANCH   6  25
ATOM     25  C   UNL     1       2.944   6.949  18.708  0.00  0.00    +0.000 C 
BRANCH  25  26
ATOM     26  C   UNL     1       2.438   5.538  18.887  0.00  0.00    +0.000 A 
ATOM     27  C   UNL     1       1.740   4.903  17.853  0.00  0.00    +0.000 A 
ATOM     28  C   UNL     1       1.311   3.585  17.998  0.00  0.00    +0.000 A 
ATOM     29  C   UNL     1       1.580   2.883  19.172  0.00  0.00    +0.000 A 
ATOM     30  C   UNL     1       2.273   3.495  20.226  0.00  0.00    +0.000 A 
ATOM     31  C   UNL     1       2.700   4.823  20.070  0.00  0.00    +0.000 A 
BRANCH  30  32
ATOM     32  C   UNL     1       2.587   2.717  21.481  0.00  0.00    +0.000 C 
BRANCH  32  33
ATOM     33  N   UNL     1       1.397   2.504  22.298  0.00  0.00    +0.000 NA
ATOM     34  H   UNL     1       1.677   2.053  23.168  0.00  0.00    +0.000 HD
ATOM     35  H   UNL     1       0.779   1.850  21.823  0.00  0.00    +0.000 HD
ENDBRANCH  32  33
ENDBRANCH  30  32
ENDBRANCH  25  26
ENDBRANCH   6  25
TORSDOF 9
ENDMDL
MODEL 4
REMARK VINA RESULT:      -8.1      3.303      5.011
REMARK  Name = 
REMARK  10 active torsions:
REMARK  status: ('A' for Active; 'I' for Inactive)
REMARK    1  A    between atoms: C_1  and  C_2
REMARK    2  A    between atoms: C_8  and  C_9
REMARK    3  A    between atoms: C_9  and  C_10
REMARK    4  A    between atoms: C_10  and  C_11
REMARK    5  A    between atoms: C_11  and  C_12
REMARK    6  A    between atoms: C_12  and  C_13
REMARK    7  A    between atoms: C_18  and  C_20
REMARK    8  A    between atoms: C_20  and  C_21
REMARK    9  A    between atoms: C_25  and  C_26
REMARK   10  A    between atoms: C_26  and  N_27
REMARK                            x       y       z     vdW  Elec       q    Type
REMARK                         _______ _______ _______ _____ _____    ______ ____
ROOT
ATOM      1  C   UNL     1       2.034   7.366  19.990  0.00  0.00    +0.000 A 
ATOM      2  N   UNL     1       2.277   7.675  18.733  0.00  0.00    +0.000 NA
ATOM      3  N   UNL     1       1.683   8.876  18.373  0.00  0.00    +0.000 NA
ATOM      4  C   UNL     1       1.053   9.440  19.381  0.00  0.00    +0.000 A 
ATOM      5  N   UNL     1       0.371  10.630  19.275  0.00  0.00    +0.000 N 
ATOM      6  C   UNL     1      -0.099  11.376  20.335  0.00  0.00    +0.000 C 
ATOM      7  O   UNL     1       0.049  11.129  21.531  0.00  0.00    +0.000 OA
ATOM      8  S   UNL     1       1.074   8.524  20.815  0.00  0.00    +0.000 S 
ATOM      9  H   UNL     1       0.361  11.017  18.341  0.00  0.00    +0.000 HD
ENDROOT
BRANCH   1  10
ATOM     10  C   UNL     1       2.440   6.114  20.697  0.00  0.00    +0.000 C 
BRANCH  10  11
ATOM     11  C   UNL     1       1.414   4.988  20.589  0.00  0.00    +0.000 C 
BRANCH  11  12
ATOM     12  C   UNL     1       1.892   3.767  21.381  0.00  0.00    +0.000 C 
BRANCH  12  13
ATOM     13  C   UNL     1       2.129   2.554  20.480  0.00  0.00    +0.000 C 
BRANCH  13  21
ATOM     14  C   UNL     1       7.034   4.945  14.719  0.00  0.00    +0.000 C 
ATOM     15  C   UNL     1       6.509   4.394  16.020  0.00  0.00    +0.000 C 
ATOM     16  O   UNL     1       7.260   4.247  16.978  0.00  0.00    +0.000 OA
ATOM     17  N   UNL     1       5.159   4.099  15.970  0.00  0.00    +0.000 N 
ATOM     18  C   UNL     1       4.410   3.687  17.082  0.00  0.00    +0.000 A 
ATOM     19  C   UNL     1       3.116   3.233  16.876  0.00  0.00    +0.000 A 
ATOM     20  C   UNL     1       2.351   2.831  17.973  0.00  0.00    +0.000 A 
ATOM     21  C   UNL     1       2.902   2.920  19.242  0.00  0.00    +0.000 A 
ATOM     22  N   UNL     1       4.155   3.380  19.414  0.00  0.00    +0.000 NA
ATOM     23  N   UNL     1       4.913   3.750  18.327  0.00  0.00    +0.000 NA
ATOM     24  H   UNL     1       4.689   4.147  15.078  0.00  0.00    +0.000 HD
ENDBRANCH  13  21
ENDBRANCH  12  13
ENDBRANCH  11  12
ENDBRANCH  10  11
ENDBRANCH   1  10
BRANCH   6  25
ATOM     25  C   UNL     1      -0.847  12.628  19.910  0.00  0.00    +0.000 C 
BRANCH  25  26
ATOM     26  C   UNL     1      -2.273  12.361  19.493  0.00  0.00    +0.000 A 
ATOM     27  C   UNL     1      -3.331  12.699  20.346  0.00  0.00    +0.000 A 
ATOM     28  C   UNL     1      -4.651  12.496  19.945  0.00  0.00    +0.000 A 
ATOM     29  C   UNL     1      -4.930  11.960  18.689  0.00  0.00    +0.000 A 
ATOM     30  C   UNL     1      -3.890  11.607  17.816  0.00  0.00    +0.000 A 
ATOM     31  C   UNL     1      -2.565  11.815  18.229  0.00  0.00    +0.000 A 
BRANCH  30  32
ATOM     32  C   UNL     1      -4.203  11.057  16.446  0.00  0.00    +0.000 C 
BRANCH  32  33
ATOM     33  N   UNL     1      -3.210  11.466  15.459  0.00  0.00    +0.000 NA
ATOM     34  H   UNL     1      -3.573  12.269  14.946  0.00  0.00    +0.000 HD
ATOM     35  H   UNL     1      -3.091  10.721  14.776  0.00  0.00    +0.000 HD
ENDBRANCH  32  33
ENDBRANCH  30  32
ENDBRANCH  25  26
ENDBRANCH   6  25
TORSDOF 9
ENDMDL
MODEL 5
REMARK VINA RESULT:      -8.1      3.060      8.631
REMARK  Name = 
REMARK  10 active torsions:
REMARK  status: ('A' for Active; 'I' for Inactive)
REMARK    1  A    between atoms: C_1  and  C_2
REMARK    2  A    between atoms: C_8  and  C_9
REMARK    3  A    between atoms: C_9  and  C_10
REMARK    4  A    between atoms: C_10  and  C_11
REMARK    5  A    between atoms: C_11  and  C_12
REMARK    6  A    between atoms: C_12  and  C_13
REMARK    7  A    between atoms: C_18  and  C_20
REMARK    8  A    between atoms: C_20  and  C_21
REMARK    9  A    between atoms: C_25  and  C_26
REMARK   10  A    between atoms: C_26  and  N_27
REMARK                            x       y       z     vdW  Elec       q    Type
REMARK                         _______ _______ _______ _____ _____    ______ ____
ROOT
ATOM      1  C   UNL     1       1.498   8.401  20.573  0.00  0.00    +0.000 A 
ATOM      2  N   UNL     1       1.524   9.038  19.420  0.00  0.00    +0.000 NA
ATOM      3  N   UNL     1       1.961   8.220  18.388  0.00  0.00    +0.000 NA
ATOM      4  C   UNL     1       2.208   6.994  18.797  0.00  0.00    +0.000 A 
ATOM      5  N   UNL     1       2.668   5.998  17.968  0.00  0.00    +0.000 N 
ATOM      6  C   UNL     1       2.716   4.657  18.282  0.00  0.00    +0.000 C 
ATOM      7  O   UNL     1       2.323   4.132  19.323  0.00  0.00    +0.000 OA
ATOM      8  S   UNL     1       1.996   6.763  20.471  0.00  0.00    +0.000 S 
ATOM      9  H   UNL     1       2.840   6.300  17.018  0.00  0.00    +0.000 HD
ENDROOT
BRANCH   1  10
ATOM     10  C   UNL     1       1.162   8.983  21.907  0.00  0.00    +0.000 C 
BRANCH  10  11
ATOM     11  C   UNL     1      -0.338   9.037  22.191  0.00  0.00    +0.000 C 
BRANCH  11  12
ATOM     12  C   UNL     1      -0.643  10.171  23.176  0.00  0.00    +0.000 C 
BRANCH  12  13
ATOM     13  C   UNL     1      -1.403  11.321  22.512  0.00  0.00    +0.000 C 
BRANCH  13  21
ATOM     14  C   UNL     1       3.479  15.220  17.620  0.00  0.00    +0.000 C 
ATOM     15  C   UNL     1       2.946  14.440  18.795  0.00  0.00    +0.000 C 
ATOM     16  O   UNL     1       3.610  14.333  19.820  0.00  0.00    +0.000 OA
ATOM     17  N   UNL     1       1.696  13.901  18.556  0.00  0.00    +0.000 N 
ATOM     18  C   UNL     1       0.936  13.235  19.528  0.00  0.00    +0.000 A 
ATOM     19  C   UNL     1      -0.213  12.569  19.128  0.00  0.00    +0.000 A 
ATOM     20  C   UNL     1      -0.988  11.910  20.085  0.00  0.00    +0.000 A 
ATOM     21  C   UNL     1      -0.598  11.962  21.414  0.00  0.00    +0.000 A 
ATOM     22  N   UNL     1       0.513  12.630  21.776  0.00  0.00    +0.000 NA
ATOM     23  N   UNL     1       1.287  13.254  20.826  0.00  0.00    +0.000 NA
ATOM     24  H   UNL     1       1.318  13.957  17.621  0.00  0.00    +0.000 HD
ENDBRANCH  13  21
ENDBRANCH  12  13
ENDBRANCH  11  12
ENDBRANCH  10  11
ENDBRANCH   1  10
BRANCH   6  25
ATOM     25  C   UNL     1       3.307   3.796  17.180  0.00  0.00    +0.000 C 
BRANCH  25  26
ATOM     26  C   UNL     1       4.750   4.120  16.875  0.00  0.00    +0.000 A 
ATOM     27  C   UNL     1       5.244   3.979  15.573  0.00  0.00    +0.000 A 
ATOM     28  C   UNL     1       6.563   4.320  15.279  0.00  0.00    +0.000 A 
ATOM     29  C   UNL     1       7.402   4.812  16.279  0.00  0.00    +0.000 A 
ATOM     30  C   UNL     1       6.936   4.958  17.593  0.00  0.00    +0.000 A 
ATOM     31  C   UNL     1       5.606   4.611  17.879  0.00  0.00    +0.000 A 
BRANCH  30  32
ATOM     32  C   UNL     1       7.842   5.520  18.662  0.00  0.00    +0.000 C 
BRANCH  32  33
ATOM     33  N   UNL     1       7.283   5.336  19.997  0.00  0.00    +0.000 NA
ATOM     34  H   UNL     1       6.837   6.206  20.285  0.00  0.00    +0.000 HD
ATOM     35  H   UNL     1       8.042   5.173  20.656  0.00  0.00    +0.000 HD
ENDBRANCH  32  33
ENDBRANCH  30  32
ENDBRANCH  25  26
ENDBRANCH   6  25
TORSDOF 9
ENDMDL
MODEL 6
REMARK VINA RESULT:      -8.0      3.859      7.029
REMARK  Name = 
REMARK  10 active torsions:
REMARK  status: ('A' for Active; 'I' for Inactive)
REMARK    1  A    between atoms: C_1  and  C_2
REMARK    2  A    between atoms: C_8  and  C_9
REMARK    3  A    between atoms: C_9  and  C_10
REMARK    4  A    between atoms: C_10  and  C_11
REMARK    5  A    between atoms: C_11  and  C_12
REMARK    6  A    between atoms: C_12  and  C_13
REMARK    7  A    between atoms: C_18  and  C_20
REMARK    8  A    between atoms: C_20  and  C_21
REMARK    9  A    between atoms: C_25  and  C_26
REMARK   10  A    between atoms: C_26  and  N_27
REMARK                            x       y       z     vdW  Elec       q    Type
REMARK                         _______ _______ _______ _____ _____    ______ ____
ROOT
ATOM      1  C   UNL     1       7.841   6.732  18.628  0.00  0.00    +0.000 A 
ATOM      2  N   UNL     1       7.969   5.775  19.524  0.00  0.00    +0.000 NA
ATOM      3  N   UNL     1       6.987   4.805  19.388  0.00  0.00    +0.000 NA
ATOM      4  C   UNL     1       6.184   5.051  18.374  0.00  0.00    +0.000 A 
ATOM      5  N   UNL     1       5.121   4.245  18.040  0.00  0.00    +0.000 N 
ATOM      6  C   UNL     1       4.402   4.319  16.866  0.00  0.00    +0.000 C 
ATOM      7  O   UNL     1       4.617   5.076  15.920  0.00  0.00    +0.000 OA
ATOM      8  S   UNL     1       6.520   6.506  17.558  0.00  0.00    +0.000 S 
ATOM      9  H   UNL     1       4.981   3.465  18.669  0.00  0.00    +0.000 HD
ENDROOT
BRANCH   1  10
ATOM     10  C   UNL     1       8.664   7.975  18.524  0.00  0.00    +0.000 C 
BRANCH  10  11
ATOM     11  C   UNL     1       8.061   9.033  17.602  0.00  0.00    +0.000 C 
BRANCH  11  12
ATOM     12  C   UNL     1       8.309  10.431  18.178  0.00  0.00    +0.000 C 
BRANCH  12  13
ATOM     13  C   UNL     1       9.699  10.557  18.804  0.00  0.00    +0.000 C 
BRANCH  13  21
ATOM     14  C   UNL     1      11.965  18.057  17.546  0.00  0.00    +0.000 C 
ATOM     15  C   UNL     1      11.320  16.834  18.146  0.00  0.00    +0.000 C 
ATOM     16  O   UNL     1      10.440  16.950  18.992  0.00  0.00    +0.000 OA
ATOM     17  N   UNL     1      11.838  15.655  17.643  0.00  0.00    +0.000 N 
ATOM     18  C   UNL     1      11.327  14.386  17.952  0.00  0.00    +0.000 A 
ATOM     19  C   UNL     1      12.041  13.269  17.546  0.00  0.00    +0.000 A 
ATOM     20  C   UNL     1      11.542  11.997  17.834  0.00  0.00    +0.000 A 
ATOM     21  C   UNL     1      10.330  11.888  18.498  0.00  0.00    +0.000 A 
ATOM     22  N   UNL     1       9.650  12.990  18.866  0.00  0.00    +0.000 NA
ATOM     23  N   UNL     1      10.160  14.239  18.603  0.00  0.00    +0.000 NA
ATOM     24  H   UNL     1      12.650  15.702  17.046  0.00  0.00    +0.000 HD
ENDBRANCH  13  21
ENDBRANCH  12  13
ENDBRANCH  11  12
ENDBRANCH  10  11
ENDBRANCH   1  10
BRANCH   6  25
ATOM     25  C   UNL     1       3.258   3.324  16.791  0.00  0.00    +0.000 C 
BRANCH  25  26
ATOM     26  C   UNL     1       2.375   3.333  18.016  0.00  0.00    +0.000 A 
ATOM     27  C   UNL     1       1.747   2.156  18.440  0.00  0.00    +0.000 A 
ATOM     28  C   UNL     1       0.967   2.151  19.595  0.00  0.00    +0.000 A 
ATOM     29  C   UNL     1       0.812   3.316  20.345  0.00  0.00    +0.000 A 
ATOM     30  C   UNL     1       1.426   4.511  19.941  0.00  0.00    +0.000 A 
ATOM     31  C   UNL     1       2.208   4.506  18.775  0.00  0.00    +0.000 A 
BRANCH  30  32
ATOM     32  C   UNL     1       1.278   5.760  20.775  0.00  0.00    +0.000 C 
BRANCH  32  33
ATOM     33  N   UNL     1       2.340   6.722  20.502  0.00  0.00    +0.000 NA
ATOM     34  H   UNL     1       2.393   7.376  21.282  0.00  0.00    +0.000 HD
ATOM     35  H   UNL     1       2.088   7.274  19.684  0.00  0.00    +0.000 HD
ENDBRANCH  32  33
ENDBRANCH  30  32
ENDBRANCH  25  26
ENDBRANCH   6  25
TORSDOF 9
ENDMDL
MODEL 7
REMARK VINA RESULT:      -7.9      2.471      7.961
REMARK  Name = 
REMARK  10 active torsions:
REMARK  status: ('A' for Active; 'I' for Inactive)
REMARK    1  A    between atoms: C_1  and  C_2
REMARK    2  A    between atoms: C_8  and  C_9
REMARK    3  A    between atoms: C_9  and  C_10
REMARK    4  A    between atoms: C_10  and  C_11
REMARK    5  A    between atoms: C_11  and  C_12
REMARK    6  A    between atoms: C_12  and  C_13
REMARK    7  A    between atoms: C_18  and  C_20
REMARK    8  A    between atoms: C_20  and  C_21
REMARK    9  A    between atoms: C_25  and  C_26
REMARK   10  A    between atoms: C_26  and  N_27
REMARK                            x       y       z     vdW  Elec       q    Type
REMARK                         _______ _______ _______ _____ _____    ______ ____
ROOT
ATOM      1  C   UNL     1       5.520   5.147  17.906  0.00  0.00    +0.000 A 
ATOM      2  N   UNL     1       6.210   4.620  18.897  0.00  0.00    +0.000 NA
ATOM      3  N   UNL     1       7.302   5.403  19.241  0.00  0.00    +0.000 NA
ATOM      4  C   UNL     1       7.367   6.505  18.524  0.00  0.00    +0.000 A 
ATOM      5  N   UNL     1       8.366   7.440  18.665  0.00  0.00    +0.000 N 
ATOM      6  C   UNL     1       8.356   8.706  18.119  0.00  0.00    +0.000 C 
ATOM      7  O   UNL     1       7.449   9.216  17.464  0.00  0.00    +0.000 OA
ATOM      8  S   UNL     1       6.153   6.637  17.338  0.00  0.00    +0.000 S 
ATOM      9  H   UNL     1       9.074   7.187  19.341  0.00  0.00    +0.000 HD
ENDROOT
BRANCH   1  10
ATOM     10  C   UNL     1       4.336   4.546  17.222  0.00  0.00    +0.000 C 
BRANCH  10  11
ATOM     11  C   UNL     1       2.999   4.977  17.819  0.00  0.00    +0.000 C 
BRANCH  11  12
ATOM     12  C   UNL     1       3.178   6.269  18.624  0.00  0.00    +0.000 C 
BRANCH  12  13
ATOM     13  C   UNL     1       2.731   7.503  17.839  0.00  0.00    +0.000 C 
BRANCH  13  21
ATOM     14  C   UNL     1      -1.662  11.482  23.115  0.00  0.00    +0.000 C 
ATOM     15  C   UNL     1      -0.563  10.660  22.491  0.00  0.00    +0.000 C 
ATOM     16  O   UNL     1       0.231  10.050  23.197  0.00  0.00    +0.000 OA
ATOM     17  N   UNL     1      -0.583  10.702  21.109  0.00  0.00    +0.000 N 
ATOM     18  C   UNL     1       0.259   9.930  20.294  0.00  0.00    +0.000 A 
ATOM     19  C   UNL     1       0.286  10.194  18.933  0.00  0.00    +0.000 A 
ATOM     20  C   UNL     1       1.108   9.428  18.105  0.00  0.00    +0.000 A 
ATOM     21  C   UNL     1       1.858   8.405  18.666  0.00  0.00    +0.000 A 
ATOM     22  N   UNL     1       1.799   8.160  19.989  0.00  0.00    +0.000 NA
ATOM     23  N   UNL     1       1.007   8.936  20.803  0.00  0.00    +0.000 NA
ATOM     24  H   UNL     1      -1.212  11.348  20.656  0.00  0.00    +0.000 HD
ENDBRANCH  13  21
ENDBRANCH  12  13
ENDBRANCH  11  12
ENDBRANCH  10  11
ENDBRANCH   1  10
BRANCH   6  25
ATOM     25  C   UNL     1       9.615   9.503  18.413  0.00  0.00    +0.000 C 
BRANCH  25  26
ATOM     26  C   UNL     1       9.338  10.864  19.004  0.00  0.00    +0.000 A 
ATOM     27  C   UNL     1       9.091  11.958  18.166  0.00  0.00    +0.000 A 
ATOM     28  C   UNL     1       8.790  13.207  18.708  0.00  0.00    +0.000 A 
ATOM     29  C   UNL     1       8.725  13.376  20.090  0.00  0.00    +0.000 A 
ATOM     30  C   UNL     1       8.974  12.300  20.954  0.00  0.00    +0.000 A 
ATOM     31  C   UNL     1       9.276  11.047  20.398  0.00  0.00    +0.000 A 
BRANCH  30  32
ATOM     32  C   UNL     1       8.871  12.486  22.448  0.00  0.00    +0.000 C 
BRANCH  32  33
ATOM     33  N   UNL     1       8.626  11.223  23.135  0.00  0.00    +0.000 NA
ATOM     34  H   UNL     1       8.336  11.424  24.091  0.00  0.00    +0.000 HD
ATOM     35  H   UNL     1       9.500  10.706  23.205  0.00  0.00    +0.000 HD
ENDBRANCH  32  33
ENDBRANCH  30  32
ENDBRANCH  25  26
ENDBRANCH   6  25
TORSDOF 9
ENDMDL
MODEL 8
REMARK VINA RESULT:      -7.8      2.293      3.109
REMARK  Name = 
REMARK  10 active torsions:
REMARK  status: ('A' for Active; 'I' for Inactive)
REMARK    1  A    between atoms: C_1  and  C_2
REMARK    2  A    between atoms: C_8  and  C_9
REMARK    3  A    between atoms: C_9  and  C_10
REMARK    4  A    between atoms: C_10  and  C_11
REMARK    5  A    between atoms: C_11  and  C_12
REMARK    6  A    between atoms: C_12  and  C_13
REMARK    7  A    between atoms: C_18  and  C_20
REMARK    8  A    between atoms: C_20  and  C_21
REMARK    9  A    between atoms: C_25  and  C_26
REMARK   10  A    between atoms: C_26  and  N_27
REMARK                            x       y       z     vdW  Elec       q    Type
REMARK                         _______ _______ _______ _____ _____    ______ ____
ROOT
ATOM      1  C   UNL     1       2.519   7.646  18.560  0.00  0.00    +0.000 A 
ATOM      2  N   UNL     1       2.738   8.334  17.458  0.00  0.00    +0.000 NA
ATOM      3  N   UNL     1       2.158   9.592  17.509  0.00  0.00    +0.000 NA
ATOM      4  C   UNL     1       1.561   9.817  18.660  0.00  0.00    +0.000 A 
ATOM      5  N   UNL     1       0.899  10.986  18.954  0.00  0.00    +0.000 N 
ATOM      6  C   UNL     1       0.467  11.365  20.207  0.00  0.00    +0.000 C 
ATOM      7  O   UNL     1       0.638  10.753  21.259  0.00  0.00    +0.000 OA
ATOM      8  S   UNL     1       1.600   8.495  19.733  0.00  0.00    +0.000 S 
ATOM      9  H   UNL     1       0.874  11.648  18.189  0.00  0.00    +0.000 HD
ENDROOT
BRANCH   1  10
ATOM     10  C   UNL     1       2.919   6.232  18.826  0.00  0.00    +0.000 C 
BRANCH  10  11
ATOM     11  C   UNL     1       2.857   5.336  17.591  0.00  0.00    +0.000 C 
BRANCH  11  12
ATOM     12  C   UNL     1       3.961   4.275  17.658  0.00  0.00    +0.000 C 
BRANCH  12  13
ATOM     13  C   UNL     1       5.119   4.589  16.708  0.00  0.00    +0.000 C 
BRANCH  13  21
ATOM     14  C   UNL     1       9.871  10.555  18.897  0.00  0.00    +0.000 C 
ATOM     15  C   UNL     1       8.698   9.779  18.354  0.00  0.00    +0.000 C 
ATOM     16  O   UNL     1       7.845  10.341  17.675  0.00  0.00    +0.000 OA
ATOM     17  N   UNL     1       8.724   8.446  18.717  0.00  0.00    +0.000 N 
ATOM     18  C   UNL     1       7.813   7.491  18.242  0.00  0.00    +0.000 A 
ATOM     19  C   UNL     1       7.815   6.230  18.820  0.00  0.00    +0.000 A 
ATOM     20  C   UNL     1       6.923   5.264  18.352  0.00  0.00    +0.000 A 
ATOM     21  C   UNL     1       6.075   5.586  17.303  0.00  0.00    +0.000 A 
ATOM     22  N   UNL     1       6.106   6.813  16.751  0.00  0.00    +0.000 NA
ATOM     23  N   UNL     1       6.969   7.769  17.233  0.00  0.00    +0.000 NA
ATOM     24  H   UNL     1       9.415   8.143  19.387  0.00  0.00    +0.000 HD
ENDBRANCH  13  21
ENDBRANCH  12  13
ENDBRANCH  11  12
ENDBRANCH  10  11
ENDBRANCH   1  10
BRANCH   6  25
ATOM     25  C   UNL     1      -0.267  12.694  20.218  0.00  0.00    +0.000 C 
BRANCH  25  26
ATOM     26  C   UNL     1      -1.766  12.552  20.097  0.00  0.00    +0.000 A 
ATOM     27  C   UNL     1      -2.607  13.124  21.058  0.00  0.00    +0.000 A 
ATOM     28  C   UNL     1      -3.992  13.033  20.925  0.00  0.00    +0.000 A 
ATOM     29  C   UNL     1      -4.552  12.377  19.830  0.00  0.00    +0.000 A 
ATOM     30  C   UNL     1      -3.733  11.790  18.854  0.00  0.00    +0.000 A 
ATOM     31  C   UNL     1      -2.340  11.887  18.998  0.00  0.00    +0.000 A 
BRANCH  30  32
ATOM     32  C   UNL     1      -4.348  11.110  17.656  0.00  0.00    +0.000 C 
BRANCH  32  33
ATOM     33  N   UNL     1      -4.329  11.969  16.477  0.00  0.00    +0.000 NA
ATOM     34  H   UNL     1      -5.042  12.688  16.587  0.00  0.00    +0.000 HD
ATOM     35  H   UNL     1      -4.598  11.422  15.661  0.00  0.00    +0.000 HD
ENDBRANCH  32  33
ENDBRANCH  30  32
ENDBRANCH  25  26
ENDBRANCH   6  25
TORSDOF 9
ENDMDL
MODEL 9
REMARK VINA RESULT:      -7.8      2.539      7.600
REMARK  Name = 
REMARK  10 active torsions:
REMARK  status: ('A' for Active; 'I' for Inactive)
REMARK    1  A    between atoms: C_1  and  C_2
REMARK    2  A    between atoms: C_8  and  C_9
REMARK    3  A    between atoms: C_9  and  C_10
REMARK    4  A    between atoms: C_10  and  C_11
REMARK    5  A    between atoms: C_11  and  C_12
REMARK    6  A    between atoms: C_12  and  C_13
REMARK    7  A    between atoms: C_18  and  C_20
REMARK    8  A    between atoms: C_20  and  C_21
REMARK    9  A    between atoms: C_25  and  C_26
REMARK   10  A    between atoms: C_26  and  N_27
REMARK                            x       y       z     vdW  Elec       q    Type
REMARK                         _______ _______ _______ _____ _____    ______ ____
ROOT
ATOM      1  C   UNL     1       5.787   5.203  18.000  0.00  0.00    +0.000 A 
ATOM      2  N   UNL     1       6.633   4.669  18.856  0.00  0.00    +0.000 NA
ATOM      3  N   UNL     1       7.702   5.512  19.120  0.00  0.00    +0.000 NA
ATOM      4  C   UNL     1       7.598   6.660  18.485  0.00  0.00    +0.000 A 
ATOM      5  N   UNL     1       8.538   7.659  18.571  0.00  0.00    +0.000 N 
ATOM      6  C   UNL     1       8.370   8.954  18.126  0.00  0.00    +0.000 C 
ATOM      7  O   UNL     1       7.352   9.432  17.628  0.00  0.00    +0.000 OA
ATOM      8  S   UNL     1       6.236   6.772  17.470  0.00  0.00    +0.000 S 
ATOM      9  H   UNL     1       9.344   7.420  19.134  0.00  0.00    +0.000 HD
ENDROOT
BRANCH   1  10
ATOM     10  C   UNL     1       4.570   4.556  17.423  0.00  0.00    +0.000 C 
BRANCH  10  11
ATOM     11  C   UNL     1       3.463   4.312  18.446  0.00  0.00    +0.000 C 
BRANCH  11  12
ATOM     12  C   UNL     1       3.591   5.310  19.602  0.00  0.00    +0.000 C 
BRANCH  12  13
ATOM     13  C   UNL     1       2.230   5.848  20.050  0.00  0.00    +0.000 C 
BRANCH  13  21
ATOM     14  C   UNL     1       0.316  13.374  18.419  0.00  0.00    +0.000 C 
ATOM     15  C   UNL     1       0.705  12.120  19.159  0.00  0.00    +0.000 C 
ATOM     16  O   UNL     1       0.636  12.077  20.383  0.00  0.00    +0.000 OA
ATOM     17  N   UNL     1       1.126  11.109  18.316  0.00  0.00    +0.000 N 
ATOM     18  C   UNL     1       1.429   9.810  18.748  0.00  0.00    +0.000 A 
ATOM     19  C   UNL     1       2.024   8.936  17.850  0.00  0.00    +0.000 A 
ATOM     20  C   UNL     1       2.321   7.635  18.259  0.00  0.00    +0.000 A 
ATOM     21  C   UNL     1       1.989   7.245  19.547  0.00  0.00    +0.000 A 
ATOM     22  N   UNL     1       1.396   8.109  20.392  0.00  0.00    +0.000 NA
ATOM     23  N   UNL     1       1.130   9.397  19.992  0.00  0.00    +0.000 NA
ATOM     24  H   UNL     1       1.259  11.322  17.338  0.00  0.00    +0.000 HD
ENDBRANCH  13  21
ENDBRANCH  12  13
ENDBRANCH  11  12
ENDBRANCH  10  11
ENDBRANCH   1  10
BRANCH   6  25
ATOM     25  C   UNL     1       9.597   9.826  18.322  0.00  0.00    +0.000 C 
BRANCH  25  26
ATOM     26  C   UNL     1       9.320  11.081  19.115  0.00  0.00    +0.000 A 
ATOM     27  C   UNL     1       9.364  11.053  20.514  0.00  0.00    +0.000 A 
ATOM     28  C   UNL     1       9.154  12.219  21.249  0.00  0.00    +0.000 A 
ATOM     29  C   UNL     1       8.904  13.425  20.597  0.00  0.00    +0.000 A 
ATOM     30  C   UNL     1       8.848  13.482  19.197  0.00  0.00    +0.000 A 
ATOM     31  C   UNL     1       9.061  12.302  18.466  0.00  0.00    +0.000 A 
BRANCH  30  32
ATOM     32  C   UNL     1       8.608  14.798  18.499  0.00  0.00    +0.000 C 
BRANCH  32  33
ATOM     33  N   UNL     1       9.695  15.134  17.587  0.00  0.00    +0.000 NA
ATOM     34  H   UNL     1       9.674  16.138  17.411  0.00  0.00    +0.000 HD
ATOM     35  H   UNL     1       9.528  14.684  16.689  0.00  0.00    +0.000 HD
ENDBRANCH  32  33
ENDBRANCH  30  32
ENDBRANCH  25  26
ENDBRANCH   6  25
TORSDOF 9
ENDMDL
