MODEL 1
REMARK VINA RESULT:      -7.8      0.000      0.000
REMARK  Name = 
REMARK  0 active torsions:
REMARK  status: ('A' for Active; 'I' for Inactive)
REMARK                            x       y       z     vdW  Elec       q    Type
REMARK                         _______ _______ _______ _____ _____    ______ ____
ROOT
ATOM      1  C   UNL     1       0.819   9.583  21.895  0.00  0.00    +0.000 C 
ATOM      2  C   UNL     1       1.049   8.098  21.619  0.00  0.00    +0.000 C 
ATOM      3  C   UNL     1       1.816   8.131  20.313  0.00  0.00    +0.000 C 
ATOM      4  C   UNL     1       1.817   6.822  19.529  0.00  0.00    +0.000 C 
ATOM      5  N   UNL     1       2.473   7.007  18.216  0.00  0.00    +0.000 N 
ATOM      6  C   UNL     1       3.779   6.535  18.023  0.00  0.00    +0.000 A 
ATOM      7  N   UNL     1       4.643   7.367  17.381  0.00  0.00    +0.000 NA
ATOM      8  C   UNL     1       5.885   6.828  17.234  0.00  0.00    +0.000 A 
ATOM      9  N   UNL     1       6.935   7.406  16.645  0.00  0.00    +0.000 NA
ATOM     10  O   UNL     1       7.963   6.470  16.753  0.00  0.00    +0.000 OA
ATOM     11  N   UNL     1       7.548   5.312  17.407  0.00  0.00    +0.000 NA
ATOM     12  C   UNL     1       6.265   5.530  17.701  0.00  0.00    +0.000 A 
ATOM     13  N   UNL     1       5.430   4.670  18.343  0.00  0.00    +0.000 NA
ATOM     14  C   UNL     1       4.175   5.187  18.469  0.00  0.00    +0.000 A 
ATOM     15  N   UNL     1       3.211   4.342  19.052  0.00  0.00    +0.000 N 
ATOM     16  C   UNL     1       3.698   3.413  20.077  0.00  0.00    +0.000 C 
ATOM     17  C   UNL     1       2.549   3.136  21.054  0.00  0.00    +0.000 C 
ATOM     18  S   UNL     1       1.131   2.307  20.243  0.00  0.00    +0.000 S 
ATOM     19  C   UNL     1       0.964   3.372  18.757  0.00  0.00    +0.000 C 
ATOM     20  C   UNL     1       2.292   3.734  18.078  0.00  0.00    +0.000 C 
ATOM     21  C   UNL     1       1.993   8.189  17.456  0.00  0.00    +0.000 C 
ATOM     22  C   UNL     1       1.772   9.464  18.325  0.00  0.00    +0.000 C 
ATOM     23  N   UNL     1       1.083   9.173  19.589  0.00  0.00    +0.000 NA
ATOM     24  C   UNL     1       0.955  10.278  20.532  0.00  0.00    +0.000 C 
ENDROOT
TORSDOF 0
ENDMDL
MODEL 2
REMARK VINA RESULT:      -6.5      6.973      9.574
REMARK  Name = 
REMARK  0 active torsions:
REMARK  status: ('A' for Active; 'I' for Inactive)
REMARK                            x       y       z     vdW  Elec       q    Type
REMARK                         _______ _______ _______ _____ _____    ______ ____
ROOT
ATOM      1  C   UNL     1       0.398   9.256  23.459  0.00  0.00    +0.000 C 
ATOM      2  C   UNL     1      -0.790  10.205  23.313  0.00  0.00    +0.000 C 
ATOM      3  C   UNL     1      -0.712  10.593  21.850  0.00  0.00    +0.000 C 
ATOM      4  C   UNL     1      -1.469  11.863  21.475  0.00  0.00    +0.000 C 
ATOM      5  N   UNL     1      -1.211  12.219  20.063  0.00  0.00    +0.000 N 
ATOM      6  C   UNL     1      -2.191  11.957  19.094  0.00  0.00    +0.000 A 
ATOM      7  N   UNL     1      -1.765  11.406  17.925  0.00  0.00    +0.000 NA
ATOM      8  C   UNL     1      -2.779  11.188  17.043  0.00  0.00    +0.000 A 
ATOM      9  N   UNL     1      -2.667  10.663  15.820  0.00  0.00    +0.000 NA
ATOM     10  O   UNL     1      -3.969  10.639  15.323  0.00  0.00    +0.000 OA
ATOM     11  N   UNL     1      -4.887  11.151  16.238  0.00  0.00    +0.000 NA
ATOM     12  C   UNL     1      -4.154  11.494  17.297  0.00  0.00    +0.000 A 
ATOM     13  N   UNL     1      -4.616  12.047  18.450  0.00  0.00    +0.000 NA
ATOM     14  C   UNL     1      -3.605  12.298  19.330  0.00  0.00    +0.000 A 
ATOM     15  N   UNL     1      -3.969  12.944  20.526  0.00  0.00    +0.000 N 
ATOM     16  C   UNL     1      -5.302  12.631  21.054  0.00  0.00    +0.000 C 
ATOM     17  C   UNL     1      -5.261  12.787  22.578  0.00  0.00    +0.000 C 
ATOM     18  S   UNL     1      -4.898  14.508  23.091  0.00  0.00    +0.000 S 
ATOM     19  C   UNL     1      -3.466  14.858  21.997  0.00  0.00    +0.000 C 
ATOM     20  C   UNL     1      -3.636  14.376  20.550  0.00  0.00    +0.000 C 
ATOM     21  C   UNL     1       0.224  12.214  19.684  0.00  0.00    +0.000 C 
ATOM     22  C   UNL     1       1.039  11.023  20.276  0.00  0.00    +0.000 C 
ATOM     23  N   UNL     1       0.733  10.779  21.691  0.00  0.00    +0.000 NA
ATOM     24  C   UNL     1       1.341   9.599  22.295  0.00  0.00    +0.000 C 
ENDROOT
TORSDOF 0
ENDMDL
MODEL 3
REMARK VINA RESULT:      -6.5      6.801     10.600
REMARK  Name = 
REMARK  0 active torsions:
REMARK  status: ('A' for Active; 'I' for Inactive)
REMARK                            x       y       z     vdW  Elec       q    Type
REMARK                         _______ _______ _______ _____ _____    ______ ____
ROOT
ATOM      1  C   UNL     1       0.862   8.951  21.976  0.00  0.00    +0.000 C 
ATOM      2  C   UNL     1      -0.069  10.003  22.574  0.00  0.00    +0.000 C 
ATOM      3  C   UNL     1      -0.769  10.546  21.345  0.00  0.00    +0.000 C 
ATOM      4  C   UNL     1      -1.433  11.908  21.526  0.00  0.00    +0.000 C 
ATOM      5  N   UNL     1      -1.963  12.399  20.235  0.00  0.00    +0.000 N 
ATOM      6  C   UNL     1      -3.340  12.328  19.981  0.00  0.00    +0.000 A 
ATOM      7  N   UNL     1      -3.715  11.880  18.752  0.00  0.00    +0.000 NA
ATOM      8  C   UNL     1      -5.066  11.846  18.591  0.00  0.00    +0.000 A 
ATOM      9  N   UNL     1      -5.724  11.455  17.497  0.00  0.00    +0.000 NA
ATOM     10  O   UNL     1      -7.073  11.593  17.824  0.00  0.00    +0.000 OA
ATOM     11  N   UNL     1      -7.249  12.070  19.122  0.00  0.00    +0.000 NA
ATOM     12  C   UNL     1      -6.012  12.231  19.594  0.00  0.00    +0.000 A 
ATOM     13  N   UNL     1      -5.676  12.687  20.830  0.00  0.00    +0.000 NA
ATOM     14  C   UNL     1      -4.324  12.753  20.993  0.00  0.00    +0.000 A 
ATOM     15  N   UNL     1      -3.871  13.288  22.214  0.00  0.00    +0.000 N 
ATOM     16  C   UNL     1      -4.711  13.026  23.388  0.00  0.00    +0.000 C 
ATOM     17  C   UNL     1      -3.807  13.005  24.626  0.00  0.00    +0.000 C 
ATOM     18  S   UNL     1      -2.999  14.622  24.924  0.00  0.00    +0.000 S 
ATOM     19  C   UNL     1      -2.389  14.976  23.229  0.00  0.00    +0.000 C 
ATOM     20  C   UNL     1      -3.398  14.676  22.112  0.00  0.00    +0.000 C 
ATOM     21  C   UNL     1      -0.998  12.321  19.110  0.00  0.00    +0.000 C 
ATOM     22  C   UNL     1      -0.155  11.009  19.078  0.00  0.00    +0.000 C 
ATOM     23  N   UNL     1       0.351  10.632  20.404  0.00  0.00    +0.000 NA
ATOM     24  C   UNL     1       1.032   9.346  20.501  0.00  0.00    +0.000 C 
ENDROOT
TORSDOF 0
ENDMDL
MODEL 4
REMARK VINA RESULT:      -6.2      8.774     11.606
REMARK  Name = 
REMARK  0 active torsions:
REMARK  status: ('A' for Active; 'I' for Inactive)
REMARK                            x       y       z     vdW  Elec       q    Type
REMARK                         _______ _______ _______ _____ _____    ______ ____
ROOT
ATOM      1  C   UNL     1      -1.961   9.640  16.846  0.00  0.00    +0.000 C 
ATOM      2  C   UNL     1      -1.637  10.620  17.972  0.00  0.00    +0.000 C 
ATOM      3  C   UNL     1      -3.017  11.061  18.418  0.00  0.00    +0.000 C 
ATOM      4  C   UNL     1      -3.055  12.360  19.217  0.00  0.00    +0.000 C 
ATOM      5  N   UNL     1      -4.454  12.765  19.478  0.00  0.00    +0.000 N 
ATOM      6  C   UNL     1      -5.006  12.560  20.750  0.00  0.00    +0.000 A 
ATOM      7  N   UNL     1      -6.265  12.045  20.797  0.00  0.00    +0.000 NA
ATOM      8  C   UNL     1      -6.723  11.882  22.068  0.00  0.00    +0.000 A 
ATOM      9  N   UNL     1      -7.917  11.402  22.426  0.00  0.00    +0.000 NA
ATOM     10  O   UNL     1      -7.906  11.424  23.820  0.00  0.00    +0.000 OA
ATOM     11  N   UNL     1      -6.706  11.920  24.325  0.00  0.00    +0.000 NA
ATOM     12  C   UNL     1      -5.977  12.207  23.246  0.00  0.00    +0.000 A 
ATOM     13  N   UNL     1      -4.720  12.726  23.239  0.00  0.00    +0.000 NA
ATOM     14  C   UNL     1      -4.262  12.921  21.970  0.00  0.00    +0.000 A 
ATOM     15  N   UNL     1      -2.998  13.529  21.853  0.00  0.00    +0.000 N 
ATOM     16  C   UNL     1      -2.030  13.224  22.913  0.00  0.00    +0.000 C 
ATOM     17  C   UNL     1      -0.622  13.322  22.316  0.00  0.00    +0.000 C 
ATOM     18  S   UNL     1      -0.229  15.014  21.734  0.00  0.00    +0.000 S 
ATOM     19  C   UNL     1      -1.759  15.375  20.786  0.00  0.00    +0.000 C 
ATOM     20  C   UNL     1      -3.058  14.952  21.486  0.00  0.00    +0.000 C 
ATOM     21  C   UNL     1      -5.329  12.744  18.279  0.00  0.00    +0.000 C 
ATOM     22  C   UNL     1      -5.108  11.514  17.345  0.00  0.00    +0.000 C 
ATOM     23  N   UNL     1      -3.686  11.223  17.124  0.00  0.00    +0.000 NA
ATOM     24  C   UNL     1      -3.377  10.008  16.378  0.00  0.00    +0.000 C 
ENDROOT
TORSDOF 0
ENDMDL
MODEL 5
REMARK VINA RESULT:      -6.1      5.933      9.707
REMARK  Name = 
REMARK  0 active torsions:
REMARK  status: ('A' for Active; 'I' for Inactive)
REMARK                            x       y       z     vdW  Elec       q    Type
REMARK                         _______ _______ _______ _____ _____    ______ ____
ROOT
ATOM      1  C   UNL     1       1.239   7.953  21.478  0.00  0.00    +0.000 C 
ATOM      2  C   UNL     1       0.520   9.201  21.987  0.00  0.00    +0.000 C 
ATOM      3  C   UNL     1      -0.065   9.775  20.712  0.00  0.00    +0.000 C 
ATOM      4  C   UNL     1      -0.464  11.246  20.787  0.00  0.00    +0.000 C 
ATOM      5  N   UNL     1      -0.891  11.733  19.458  0.00  0.00    +0.000 N 
ATOM      6  C   UNL     1      -2.257  11.901  19.188  0.00  0.00    +0.000 A 
ATOM      7  N   UNL     1      -2.706  11.443  17.989  0.00  0.00    +0.000 NA
ATOM      8  C   UNL     1      -4.040  11.649  17.810  0.00  0.00    +0.000 A 
ATOM      9  N   UNL     1      -4.758  11.310  16.736  0.00  0.00    +0.000 NA
ATOM     10  O   UNL     1      -6.057  11.719  17.033  0.00  0.00    +0.000 OA
ATOM     11  N   UNL     1      -6.143  12.314  18.291  0.00  0.00    +0.000 NA
ATOM     12  C   UNL     1      -4.899  12.275  18.769  0.00  0.00    +0.000 A 
ATOM     13  N   UNL     1      -4.486  12.748  19.975  0.00  0.00    +0.000 NA
ATOM     14  C   UNL     1      -3.145  12.574  20.153  0.00  0.00    +0.000 A 
ATOM     15  N   UNL     1      -2.603  13.101  21.340  0.00  0.00    +0.000 N 
ATOM     16  C   UNL     1      -3.478  13.085  22.517  0.00  0.00    +0.000 C 
ATOM     17  C   UNL     1      -2.596  12.985  23.767  0.00  0.00    +0.000 C 
ATOM     18  S   UNL     1      -1.501  14.441  23.962  0.00  0.00    +0.000 S 
ATOM     19  C   UNL     1      -0.833  14.553  22.256  0.00  0.00    +0.000 C 
ATOM     20  C   UNL     1      -1.878  14.366  21.148  0.00  0.00    +0.000 C 
ATOM     21  C   UNL     1       0.044  11.396  18.355  0.00  0.00    +0.000 C 
ATOM     22  C   UNL     1       0.628   9.951  18.428  0.00  0.00    +0.000 C 
ATOM     23  N   UNL     1       1.053   9.583  19.785  0.00  0.00    +0.000 NA
ATOM     24  C   UNL     1       1.482   8.203  19.982  0.00  0.00    +0.000 C 
ENDROOT
TORSDOF 0
ENDMDL
MODEL 6
REMARK VINA RESULT:      -6.0      8.881     10.796
REMARK  Name = 
REMARK  0 active torsions:
REMARK  status: ('A' for Active; 'I' for Inactive)
REMARK                            x       y       z     vdW  Elec       q    Type
REMARK                         _______ _______ _______ _____ _____    ______ ____
ROOT
ATOM      1  C   UNL     1      10.540  11.242  18.004  0.00  0.00    +0.000 C 
ATOM      2  C   UNL     1       9.830  11.447  19.341  0.00  0.00    +0.000 C 
ATOM      3  C   UNL     1       9.281  12.852  19.200  0.00  0.00    +0.000 C 
ATOM      4  C   UNL     1       8.905  13.536  20.510  0.00  0.00    +0.000 C 
ATOM      5  N   UNL     1       8.515  14.941  20.267  0.00  0.00    +0.000 N 
ATOM      6  C   UNL     1       7.157  15.294  20.281  0.00  0.00    +0.000 A 
ATOM      7  N   UNL     1       6.726  16.114  19.285  0.00  0.00    +0.000 NA
ATOM      8  C   UNL     1       5.400  16.407  19.378  0.00  0.00    +0.000 A 
ATOM      9  N   UNL     1       4.699  17.184  18.549  0.00  0.00    +0.000 NA
ATOM     10  O   UNL     1       3.401  17.167  19.056  0.00  0.00    +0.000 OA
ATOM     11  N   UNL     1       3.298  16.380  20.201  0.00  0.00    +0.000 NA
ATOM     12  C   UNL     1       4.531  15.914  20.404  0.00  0.00    +0.000 A 
ATOM     13  N   UNL     1       4.926  15.097  21.417  0.00  0.00    +0.000 NA
ATOM     14  C   UNL     1       6.260  14.820  21.350  0.00  0.00    +0.000 A 
ATOM     15  N   UNL     1       6.786  14.044  22.400  0.00  0.00    +0.000 N 
ATOM     16  C   UNL     1       5.885  13.041  22.980  0.00  0.00    +0.000 C 
ATOM     17  C   UNL     1       6.739  11.888  23.518  0.00  0.00    +0.000 C 
ATOM     18  S   UNL     1       7.853  12.420  24.871  0.00  0.00    +0.000 S 
ATOM     19  C   UNL     1       8.559  13.933  24.110  0.00  0.00    +0.000 C 
ATOM     20  C   UNL     1       7.534  14.825  23.396  0.00  0.00    +0.000 C 
ATOM     21  C   UNL     1       9.467  15.701  19.418  0.00  0.00    +0.000 C 
ATOM     22  C   UNL     1      10.025  14.898  18.204  0.00  0.00    +0.000 C 
ATOM     23  N   UNL     1      10.415  13.528  18.565  0.00  0.00    +0.000 NA
ATOM     24  C   UNL     1      10.818  12.655  17.468  0.00  0.00    +0.000 C 
ENDROOT
TORSDOF 0
ENDMDL
MODEL 7
REMARK VINA RESULT:      -5.9      6.809      8.877
REMARK  Name = 
REMARK  0 active torsions:
REMARK  status: ('A' for Active; 'I' for Inactive)
REMARK                            x       y       z     vdW  Elec       q    Type
REMARK                         _______ _______ _______ _____ _____    ______ ____
ROOT
ATOM      1  C   UNL     1      -4.169  10.898  16.469  0.00  0.00    +0.000 C 
ATOM      2  C   UNL     1      -4.031  11.563  17.837  0.00  0.00    +0.000 C 
ATOM      3  C   UNL     1      -2.535  11.498  18.075  0.00  0.00    +0.000 C 
ATOM      4  C   UNL     1      -2.102  11.666  19.528  0.00  0.00    +0.000 C 
ATOM      5  N   UNL     1      -0.645  11.450  19.660  0.00  0.00    +0.000 N 
ATOM      6  C   UNL     1       0.207  12.553  19.809  0.00  0.00    +0.000 A 
ATOM      7  N   UNL     1       1.348  12.552  19.067  0.00  0.00    +0.000 NA
ATOM      8  C   UNL     1       2.115  13.657  19.276  0.00  0.00    +0.000 A 
ATOM      9  N   UNL     1       3.286  13.931  18.694  0.00  0.00    +0.000 NA
ATOM     10  O   UNL     1       3.667  15.163  19.224  0.00  0.00    +0.000 OA
ATOM     11  N   UNL     1       2.733  15.651  20.136  0.00  0.00    +0.000 NA
ATOM     12  C   UNL     1       1.778  14.721  20.173  0.00  0.00    +0.000 A 
ATOM     13  N   UNL     1       0.650  14.755  20.932  0.00  0.00    +0.000 NA
ATOM     14  C   UNL     1      -0.112  13.639  20.753  0.00  0.00    +0.000 A 
ATOM     15  N   UNL     1      -1.265  13.540  21.554  0.00  0.00    +0.000 N 
ATOM     16  C   UNL     1      -1.932  14.804  21.892  0.00  0.00    +0.000 C 
ATOM     17  C   UNL     1      -3.424  14.517  22.092  0.00  0.00    +0.000 C 
ATOM     18  S   UNL     1      -3.732  13.383  23.498  0.00  0.00    +0.000 S 
ATOM     19  C   UNL     1      -2.493  12.083  23.120  0.00  0.00    +0.000 C 
ATOM     20  C   UNL     1      -1.119  12.617  22.689  0.00  0.00    +0.000 C 
ATOM     21  C   UNL     1      -0.148  10.216  19.000  0.00  0.00    +0.000 C 
ATOM     22  C   UNL     1      -0.784   9.936  17.603  0.00  0.00    +0.000 C 
ATOM     23  N   UNL     1      -2.238  10.147  17.593  0.00  0.00    +0.000 NA
ATOM     24  C   UNL     1      -2.902  10.046  16.298  0.00  0.00    +0.000 C 
ENDROOT
TORSDOF 0
ENDMDL
MODEL 8
REMARK VINA RESULT:      -5.9      7.216      9.853
REMARK  Name = 
REMARK  0 active torsions:
REMARK  status: ('A' for Active; 'I' for Inactive)
REMARK                            x       y       z     vdW  Elec       q    Type
REMARK                         _______ _______ _______ _____ _____    ______ ____
ROOT
ATOM      1  C   UNL     1       0.317  18.114  19.935  0.00  0.00    +0.000 C 
ATOM      2  C   UNL     1      -0.832  17.397  20.642  0.00  0.00    +0.000 C 
ATOM      3  C   UNL     1      -0.531  15.941  20.344  0.00  0.00    +0.000 C 
ATOM      4  C   UNL     1      -1.709  14.988  20.518  0.00  0.00    +0.000 C 
ATOM      5  N   UNL     1      -1.342  13.627  20.071  0.00  0.00    +0.000 N 
ATOM      6  C   UNL     1      -1.056  12.639  21.024  0.00  0.00    +0.000 A 
ATOM      7  N   UNL     1       0.035  11.861  20.793  0.00  0.00    +0.000 NA
ATOM      8  C   UNL     1       0.235  10.929  21.765  0.00  0.00    +0.000 A 
ATOM      9  N   UNL     1       1.220  10.027  21.808  0.00  0.00    +0.000 NA
ATOM     10  O   UNL     1       1.000   9.317  22.987  0.00  0.00    +0.000 OA
ATOM     11  N   UNL     1      -0.122   9.777  23.673  0.00  0.00    +0.000 NA
ATOM     12  C   UNL     1      -0.597  10.768  22.918  0.00  0.00    +0.000 A 
ATOM     13  N   UNL     1      -1.697  11.524  23.181  0.00  0.00    +0.000 NA
ATOM     14  C   UNL     1      -1.925  12.442  22.199  0.00  0.00    +0.000 A 
ATOM     15  N   UNL     1      -3.087  13.224  22.337  0.00  0.00    +0.000 N 
ATOM     16  C   UNL     1      -3.495  13.544  23.710  0.00  0.00    +0.000 C 
ATOM     17  C   UNL     1      -4.239  14.883  23.686  0.00  0.00    +0.000 C 
ATOM     18  S   UNL     1      -5.781  14.805  22.699  0.00  0.00    +0.000 S 
ATOM     19  C   UNL     1      -5.137  13.976  21.193  0.00  0.00    +0.000 C 
ATOM     20  C   UNL     1      -4.193  12.798  21.467  0.00  0.00    +0.000 C 
ATOM     21  C   UNL     1      -0.692  13.577  18.737  0.00  0.00    +0.000 C 
ATOM     22  C   UNL     1       0.350  14.711  18.489  0.00  0.00    +0.000 C 
ATOM     23  N   UNL     1      -0.130  16.025  18.937  0.00  0.00    +0.000 NA
ATOM     24  C   UNL     1       0.827  17.124  18.876  0.00  0.00    +0.000 C 
ENDROOT
TORSDOF 0
ENDMDL
MODEL 9
REMARK VINA RESULT:      -5.8      8.831     11.775
REMARK  Name = 
REMARK  0 active torsions:
REMARK  status: ('A' for Active; 'I' for Inactive)
REMARK                            x       y       z     vdW  Elec       q    Type
REMARK                         _______ _______ _______ _____ _____    ______ ____
ROOT
ATOM      1  C   UNL     1      -6.785  18.295  17.711  0.00  0.00    +0.000 C 
ATOM      2  C   UNL     1      -6.482  17.297  18.827  0.00  0.00    +0.000 C 
ATOM      3  C   UNL     1      -6.463  15.978  18.080  0.00  0.00    +0.000 C 
ATOM      4  C   UNL     1      -6.632  14.737  18.951  0.00  0.00    +0.000 C 
ATOM      5  N   UNL     1      -6.737  13.526  18.110  0.00  0.00    +0.000 N 
ATOM      6  C   UNL     1      -5.633  12.670  17.989  0.00  0.00    +0.000 A 
ATOM      7  N   UNL     1      -5.337  12.222  16.739  0.00  0.00    +0.000 NA
ATOM      8  C   UNL     1      -4.255  11.396  16.715  0.00  0.00    +0.000 A 
ATOM      9  N   UNL     1      -3.733  10.804  15.638  0.00  0.00    +0.000 NA
ATOM     10  O   UNL     1      -2.647  10.077  16.123  0.00  0.00    +0.000 OA
ATOM     11  N   UNL     1      -2.498  10.217  17.502  0.00  0.00    +0.000 NA
ATOM     12  C   UNL     1      -3.492  11.027  17.869  0.00  0.00    +0.000 A 
ATOM     13  N   UNL     1      -3.759  11.451  19.133  0.00  0.00    +0.000 NA
ATOM     14  C   UNL     1      -4.859  12.255  19.174  0.00  0.00    +0.000 A 
ATOM     15  N   UNL     1      -5.267  12.685  20.450  0.00  0.00    +0.000 N 
ATOM     16  C   UNL     1      -4.200  12.899  21.435  0.00  0.00    +0.000 C 
ATOM     17  C   UNL     1      -4.667  13.978  22.418  0.00  0.00    +0.000 C 
ATOM     18  S   UNL     1      -6.146  13.461  23.368  0.00  0.00    +0.000 S 
ATOM     19  C   UNL     1      -7.184  12.823  21.995  0.00  0.00    +0.000 C 
ATOM     20  C   UNL     1      -6.431  11.957  20.975  0.00  0.00    +0.000 C 
ATOM     21  C   UNL     1      -7.709  13.640  16.993  0.00  0.00    +0.000 C 
ATOM     22  C   UNL     1      -7.682  15.016  16.258  0.00  0.00    +0.000 C 
ATOM     23  N   UNL     1      -7.613  16.150  17.188  0.00  0.00    +0.000 NA
ATOM     24  C   UNL     1      -7.442  17.471  16.593  0.00  0.00    +0.000 C 
ENDROOT
TORSDOF 0
ENDMDL
