MODEL 1
REMARK VINA RESULT:      -6.6      0.000      0.000
REMARK  Name = 
REMARK  5 active torsions:
REMARK  status: ('A' for Active; 'I' for Inactive)
REMARK    1  A    between atoms: C_1  and  C_2
REMARK    2  A    between atoms: N_11  and  C_12
REMARK    3  A    between atoms: C_12  and  C_13
REMARK    4  A    between atoms: C_12  and  C_14
REMARK    5  A    between atoms: C_16  and  C_17
REMARK                            x       y       z     vdW  Elec       q    Type
REMARK                         _______ _______ _______ _____ _____    ______ ____
ROOT
ATOM      1  C   UNL     1       6.327   3.760  14.856  0.00  0.00    +0.000 C 
ATOM      2  C   UNL     1       6.382   4.902  15.842  0.00  0.00    +0.000 C 
ATOM      3  O   UNL     1       7.413   5.564  15.953  0.00  0.00    +0.000 OA
ATOM      4  N   UNL     1       5.233   5.177  16.574  0.00  0.00    +0.000 N 
ATOM      5  C   UNL     1       4.015   4.368  16.562  0.00  0.00    +0.000 C 
ATOM      6  C   UNL     1       3.941   3.340  17.684  0.00  0.00    +0.000 C 
ATOM      7  C   UNL     1       4.069   3.845  19.127  0.00  0.00    +0.000 C 
ATOM      8  N   UNL     1       3.959   5.289  19.318  0.00  0.00    +0.000 N 
ATOM      9  C   UNL     1       2.732   5.808  19.700  0.00  0.00    +0.000 C 
ATOM     10  O   UNL     1       1.742   5.101  19.869  0.00  0.00    +0.000 OA
ATOM     11  N   UNL     1       2.663   7.160  19.863  0.00  0.00    +0.000 N 
ATOM     12  C   UNL     1       5.154   6.058  18.931  0.00  0.00    +0.000 C 
ATOM     13  C   UNL     1       5.211   6.369  17.432  0.00  0.00    +0.000 C 
ATOM     14  H   UNL     1       3.496   7.721  19.913  0.00  0.00    +0.000 HD
ENDROOT
BRANCH  11  15
ATOM     15  C   UNL     1       1.432   7.826  20.290  0.00  0.00    +0.000 C 
ATOM     16  C   UNL     1       1.414   8.069  21.800  0.00  0.00    +0.000 C 
BRANCH  15  17
ATOM     17  C   UNL     1       1.332   9.131  19.578  0.00  0.00    +0.000 A 
ATOM     18  N   UNL     1       1.221  10.347  20.060  0.00  0.00    +0.000 NA
ATOM     19  C   UNL     1       1.098  11.117  18.915  0.00  0.00    +0.000 A 
ATOM     20  N   UNL     1       1.127  10.393  17.779  0.00  0.00    +0.000 NA
ATOM     21  O   UNL     1       1.284   9.082  18.216  0.00  0.00    +0.000 OA
BRANCH  19  22
ATOM     22  C   UNL     1       0.943  12.576  18.944  0.00  0.00    +0.000 A 
ATOM     23  C   UNL     1       2.024  13.402  19.251  0.00  0.00    +0.000 A 
ATOM     24  C   UNL     1       1.830  14.782  19.288  0.00  0.00    +0.000 A 
ATOM     25  C   UNL     1       0.570  15.300  19.016  0.00  0.00    +0.000 A 
ATOM     26  C   UNL     1      -0.449  14.413  18.711  0.00  0.00    +0.000 A 
ATOM     27  N   UNL     1      -0.292  13.071  18.668  0.00  0.00    +0.000 NA
ENDBRANCH  19  22
ENDBRANCH  15  17
ENDBRANCH  11  15
TORSDOF 3
ENDMDL
MODEL 2
REMARK VINA RESULT:      -6.6      5.104      6.828
REMARK  Name = 
REMARK  5 active torsions:
REMARK  status: ('A' for Active; 'I' for Inactive)
REMARK    1  A    between atoms: C_1  and  C_2
REMARK    2  A    between atoms: N_11  and  C_12
REMARK    3  A    between atoms: C_12  and  C_13
REMARK    4  A    between atoms: C_12  and  C_14
REMARK    5  A    between atoms: C_16  and  C_17
REMARK                            x       y       z     vdW  Elec       q    Type
REMARK                         _______ _______ _______ _____ _____    ______ ____
ROOT
ATOM      1  C   UNL     1       1.499   2.492  22.028  0.00  0.00    +0.000 C 
ATOM      2  C   UNL     1       1.556   3.627  21.033  0.00  0.00    +0.000 C 
ATOM      3  O   UNL     1       0.666   4.475  21.023  0.00  0.00    +0.000 OA
ATOM      4  N   UNL     1       2.649   3.678  20.176  0.00  0.00    +0.000 N 
ATOM      5  C   UNL     1       3.683   2.650  20.072  0.00  0.00    +0.000 C 
ATOM      6  C   UNL     1       3.435   1.630  18.966  0.00  0.00    +0.000 C 
ATOM      7  C   UNL     1       3.249   2.155  17.536  0.00  0.00    +0.000 C 
ATOM      8  N   UNL     1       3.612   3.552  17.309  0.00  0.00    +0.000 N 
ATOM      9  C   UNL     1       4.867   3.825  16.788  0.00  0.00    +0.000 C 
ATOM     10  O   UNL     1       5.678   2.941  16.525  0.00  0.00    +0.000 OA
ATOM     11  N   UNL     1       5.176   5.140  16.594  0.00  0.00    +0.000 N 
ATOM     12  C   UNL     1       2.637   4.535  17.809  0.00  0.00    +0.000 C 
ATOM     13  C   UNL     1       2.805   4.846  19.300  0.00  0.00    +0.000 C 
ATOM     14  H   UNL     1       4.465   5.851  16.624  0.00  0.00    +0.000 HD
ENDROOT
BRANCH  11  15
ATOM     15  C   UNL     1       6.457   5.557  16.025  0.00  0.00    +0.000 C 
ATOM     16  C   UNL     1       6.278   6.234  14.664  0.00  0.00    +0.000 C 
BRANCH  15  17
ATOM     17  C   UNL     1       7.104   6.510  16.970  0.00  0.00    +0.000 A 
ATOM     18  N   UNL     1       7.334   7.796  16.843  0.00  0.00    +0.000 NA
ATOM     19  C   UNL     1       8.019   8.098  18.009  0.00  0.00    +0.000 A 
ATOM     20  N   UNL     1       8.204   7.031  18.811  0.00  0.00    +0.000 NA
ATOM     21  O   UNL     1       7.597   5.982  18.127  0.00  0.00    +0.000 OA
BRANCH  19  22
ATOM     22  C   UNL     1       8.501   9.446  18.328  0.00  0.00    +0.000 A 
ATOM     23  C   UNL     1       9.266   9.678  19.471  0.00  0.00    +0.000 A 
ATOM     24  C   UNL     1       9.689  10.977  19.750  0.00  0.00    +0.000 A 
ATOM     25  C   UNL     1       9.341  12.006  18.884  0.00  0.00    +0.000 A 
ATOM     26  C   UNL     1       8.586  11.692  17.766  0.00  0.00    +0.000 A 
ATOM     27  N   UNL     1       8.163  10.443  17.469  0.00  0.00    +0.000 NA
ENDBRANCH  19  22
ENDBRANCH  15  17
ENDBRANCH  11  15
TORSDOF 3
ENDMDL
MODEL 3
REMARK VINA RESULT:      -6.6      2.402      8.634
REMARK  Name = 
REMARK  5 active torsions:
REMARK  status: ('A' for Active; 'I' for Inactive)
REMARK    1  A    between atoms: C_1  and  C_2
REMARK    2  A    between atoms: N_11  and  C_12
REMARK    3  A    between atoms: C_12  and  C_13
REMARK    4  A    between atoms: C_12  and  C_14
REMARK    5  A    between atoms: C_16  and  C_17
REMARK                            x       y       z     vdW  Elec       q    Type
REMARK                         _______ _______ _______ _____ _____    ______ ____
ROOT
ATOM      1  C   UNL     1       4.116  16.719  18.540  0.00  0.00    +0.000 C 
ATOM      2  C   UNL     1       3.488  15.479  17.949  0.00  0.00    +0.000 C 
ATOM      3  O   UNL     1       3.367  15.378  16.730  0.00  0.00    +0.000 OA
ATOM      4  N   UNL     1       3.094  14.477  18.827  0.00  0.00    +0.000 N 
ATOM      5  C   UNL     1       3.119  14.579  20.286  0.00  0.00    +0.000 C 
ATOM      6  C   UNL     1       1.794  15.015  20.900  0.00  0.00    +0.000 C 
ATOM      7  C   UNL     1       0.547  14.179  20.580  0.00  0.00    +0.000 C 
ATOM      8  N   UNL     1       0.784  12.879  19.957  0.00  0.00    +0.000 N 
ATOM      9  C   UNL     1       0.802  11.757  20.769  0.00  0.00    +0.000 C 
ATOM     10  O   UNL     1       0.638  11.821  21.985  0.00  0.00    +0.000 OA
ATOM     11  N   UNL     1       1.031  10.560  20.156  0.00  0.00    +0.000 N 
ATOM     12  C   UNL     1       1.129  12.932  18.527  0.00  0.00    +0.000 C 
ATOM     13  C   UNL     1       2.616  13.202  18.275  0.00  0.00    +0.000 C 
ATOM     14  H   UNL     1       0.977  10.470  19.155  0.00  0.00    +0.000 HD
ENDROOT
BRANCH  11  15
ATOM     15  C   UNL     1       1.047   9.301  20.899  0.00  0.00    +0.000 C 
ATOM     16  C   UNL     1      -0.360   8.874  21.321  0.00  0.00    +0.000 C 
BRANCH  15  17
ATOM     17  C   UNL     1       1.643   8.248  20.029  0.00  0.00    +0.000 A 
ATOM     18  N   UNL     1       1.891   6.985  20.285  0.00  0.00    +0.000 NA
ATOM     19  C   UNL     1       2.505   6.554  19.120  0.00  0.00    +0.000 A 
ATOM     20  N   UNL     1       2.630   7.524  18.193  0.00  0.00    +0.000 NA
ATOM     21  O   UNL     1       2.058   8.642  18.791  0.00  0.00    +0.000 OA
BRANCH  19  22
ATOM     22  C   UNL     1       2.978   5.179  18.925  0.00  0.00    +0.000 A 
ATOM     23  C   UNL     1       3.270   4.699  17.649  0.00  0.00    +0.000 A 
ATOM     24  C   UNL     1       3.698   3.381  17.503  0.00  0.00    +0.000 A 
ATOM     25  C   UNL     1       3.826   2.580  18.631  0.00  0.00    +0.000 A 
ATOM     26  C   UNL     1       3.526   3.134  19.864  0.00  0.00    +0.000 A 
ATOM     27  N   UNL     1       3.109   4.408  20.036  0.00  0.00    +0.000 NA
ENDBRANCH  19  22
ENDBRANCH  15  17
ENDBRANCH  11  15
TORSDOF 3
ENDMDL
MODEL 4
REMARK VINA RESULT:      -6.5      2.368      2.759
REMARK  Name = 
REMARK  5 active torsions:
REMARK  status: ('A' for Active; 'I' for Inactive)
REMARK    1  A    between atoms: C_1  and  C_2
REMARK    2  A    between atoms: N_11  and  C_12
REMARK    3  A    between atoms: C_12  and  C_13
REMARK    4  A    between atoms: C_12  and  C_14
REMARK    5  A    between atoms: C_16  and  C_17
REMARK                            x       y       z     vdW  Elec       q    Type
REMARK                         _______ _______ _______ _____ _____    ______ ____
ROOT
ATOM      1  C   UNL     1       5.182   3.646  15.268  0.00  0.00    +0.000 C 
ATOM      2  C   UNL     1       5.433   4.760  16.257  0.00  0.00    +0.000 C 
ATOM      3  O   UNL     1       6.530   5.315  16.286  0.00  0.00    +0.000 OA
ATOM      4  N   UNL     1       4.382   5.133  17.086  0.00  0.00    +0.000 N 
ATOM      5  C   UNL     1       3.093   4.448  17.170  0.00  0.00    +0.000 C 
ATOM      6  C   UNL     1       3.012   3.412  18.285  0.00  0.00    +0.000 C 
ATOM      7  C   UNL     1       3.309   3.877  19.717  0.00  0.00    +0.000 C 
ATOM      8  N   UNL     1       3.359   5.321  19.929  0.00  0.00    +0.000 N 
ATOM      9  C   UNL     1       2.226   5.950  20.419  0.00  0.00    +0.000 C 
ATOM     10  O   UNL     1       1.188   5.340  20.665  0.00  0.00    +0.000 OA
ATOM     11  N   UNL     1       2.305   7.300  20.600  0.00  0.00    +0.000 N 
ATOM     12  C   UNL     1       4.588   5.976  19.450  0.00  0.00    +0.000 C 
ATOM     13  C   UNL     1       4.550   6.306  17.954  0.00  0.00    +0.000 C 
ATOM     14  H   UNL     1       3.191   7.775  20.584  0.00  0.00    +0.000 HD
ENDROOT
BRANCH  11  15
ATOM     15  C   UNL     1       1.186   8.075  21.136  0.00  0.00    +0.000 C 
ATOM     16  C   UNL     1       1.643   9.054  22.219  0.00  0.00    +0.000 C 
BRANCH  15  17
ATOM     17  C   UNL     1       0.560   8.834  20.017  0.00  0.00    +0.000 A 
ATOM     18  N   UNL     1      -0.691   9.186  19.834  0.00  0.00    +0.000 NA
ATOM     19  C   UNL     1      -0.656   9.797  18.592  0.00  0.00    +0.000 A 
ATOM     20  N   UNL     1       0.572   9.808  18.037  0.00  0.00    +0.000 NA
ATOM     21  O   UNL     1       1.376   9.175  18.978  0.00  0.00    +0.000 OA
BRANCH  19  22
ATOM     22  C   UNL     1      -1.844  10.365  17.945  0.00  0.00    +0.000 A 
ATOM     23  C   UNL     1      -2.178  10.018  16.636  0.00  0.00    +0.000 A 
ATOM     24  C   UNL     1      -3.304  10.595  16.050  0.00  0.00    +0.000 A 
ATOM     25  C   UNL     1      -4.065  11.496  16.782  0.00  0.00    +0.000 A 
ATOM     26  C   UNL     1      -3.672  11.781  18.079  0.00  0.00    +0.000 A 
ATOM     27  N   UNL     1      -2.587  11.238  18.674  0.00  0.00    +0.000 NA
ENDBRANCH  19  22
ENDBRANCH  15  17
ENDBRANCH  11  15
TORSDOF 3
ENDMDL
MODEL 5
REMARK VINA RESULT:      -6.5      4.717      7.306
REMARK  Name = 
REMARK  5 active torsions:
REMARK  status: ('A' for Active; 'I' for Inactive)
REMARK    1  A    between atoms: C_1  and  C_2
REMARK    2  A    between atoms: N_11  and  C_12
REMARK    3  A    between atoms: C_12  and  C_13
REMARK    4  A    between atoms: C_12  and  C_14
REMARK    5  A    between atoms: C_16  and  C_17
REMARK                            x       y       z     vdW  Elec       q    Type
REMARK                         _______ _______ _______ _____ _____    ______ ____
ROOT
ATOM      1  C   UNL     1       1.921   8.822  17.582  0.00  0.00    +0.000 C 
ATOM      2  C   UNL     1       1.753  10.196  18.187  0.00  0.00    +0.000 C 
ATOM      3  O   UNL     1       2.413  11.138  17.755  0.00  0.00    +0.000 OA
ATOM      4  N   UNL     1       0.819  10.340  19.207  0.00  0.00    +0.000 N 
ATOM      5  C   UNL     1       0.079   9.243  19.830  0.00  0.00    +0.000 C 
ATOM      6  C   UNL     1       0.720   8.708  21.105  0.00  0.00    +0.000 C 
ATOM      7  C   UNL     1       0.991   9.703  22.242  0.00  0.00    +0.000 C 
ATOM      8  N   UNL     1       0.352  11.011  22.121  0.00  0.00    +0.000 N 
ATOM      9  C   UNL     1      -0.839  11.222  22.798  0.00  0.00    +0.000 C 
ATOM     10  O   UNL     1      -1.374  10.351  23.478  0.00  0.00    +0.000 OA
ATOM     11  N   UNL     1      -1.412  12.453  22.659  0.00  0.00    +0.000 N 
ATOM     12  C   UNL     1       0.986  11.924  21.156  0.00  0.00    +0.000 C 
ATOM     13  C   UNL     1       0.529  11.688  19.713  0.00  0.00    +0.000 C 
ATOM     14  H   UNL     1      -0.898  13.224  22.268  0.00  0.00    +0.000 HD
ENDROOT
BRANCH  11  15
ATOM     15  C   UNL     1      -2.655  12.809  23.343  0.00  0.00    +0.000 C 
ATOM     16  C   UNL     1      -2.625  14.249  23.857  0.00  0.00    +0.000 C 
BRANCH  15  17
ATOM     17  C   UNL     1      -3.783  12.649  22.383  0.00  0.00    +0.000 A 
ATOM     18  N   UNL     1      -3.831  12.887  21.093  0.00  0.00    +0.000 NA
ATOM     19  C   UNL     1      -5.154  12.619  20.784  0.00  0.00    +0.000 A 
ATOM     20  N   UNL     1      -5.885  12.238  21.850  0.00  0.00    +0.000 NA
ATOM     21  O   UNL     1      -4.979  12.255  22.906  0.00  0.00    +0.000 OA
BRANCH  19  22
ATOM     22  C   UNL     1      -5.703  12.748  19.429  0.00  0.00    +0.000 A 
ATOM     23  C   UNL     1      -5.131  12.059  18.360  0.00  0.00    +0.000 A 
ATOM     24  C   UNL     1      -5.669  12.224  17.084  0.00  0.00    +0.000 A 
ATOM     25  C   UNL     1      -6.760  13.066  16.910  0.00  0.00    +0.000 A 
ATOM     26  C   UNL     1      -7.275  13.706  18.024  0.00  0.00    +0.000 A 
ATOM     27  N   UNL     1      -6.776  13.566  19.273  0.00  0.00    +0.000 NA
ENDBRANCH  19  22
ENDBRANCH  15  17
ENDBRANCH  11  15
TORSDOF 3
ENDMDL
MODEL 6
REMARK VINA RESULT:      -6.5      2.741      9.262
REMARK  Name = 
REMARK  5 active torsions:
REMARK  status: ('A' for Active; 'I' for Inactive)
REMARK    1  A    between atoms: C_1  and  C_2
REMARK    2  A    between atoms: N_11  and  C_12
REMARK    3  A    between atoms: C_12  and  C_13
REMARK    4  A    between atoms: C_12  and  C_14
REMARK    5  A    between atoms: C_16  and  C_17
REMARK                            x       y       z     vdW  Elec       q    Type
REMARK                         _______ _______ _______ _____ _____    ______ ____
ROOT
ATOM      1  C   UNL     1       0.036  17.991  19.850  0.00  0.00    +0.000 C 
ATOM      2  C   UNL     1      -0.256  16.673  19.174  0.00  0.00    +0.000 C 
ATOM      3  O   UNL     1      -0.680  16.659  18.020  0.00  0.00    +0.000 OA
ATOM      4  N   UNL     1       0.001  15.510  19.891  0.00  0.00    +0.000 N 
ATOM      5  C   UNL     1       0.409  15.461  21.295  0.00  0.00    +0.000 C 
ATOM      6  C   UNL     1      -0.747  15.271  22.270  0.00  0.00    +0.000 C 
ATOM      7  C   UNL     1      -1.654  14.048  22.076  0.00  0.00    +0.000 C 
ATOM      8  N   UNL     1      -1.165  13.021  21.160  0.00  0.00    +0.000 N 
ATOM      9  C   UNL     1      -0.518  11.919  21.696  0.00  0.00    +0.000 C 
ATOM     10  O   UNL     1      -0.335  11.787  22.904  0.00  0.00    +0.000 OA
ATOM     11  N   UNL     1      -0.069  10.982  20.813  0.00  0.00    +0.000 N 
ATOM     12  C   UNL     1      -1.289  13.355  19.731  0.00  0.00    +0.000 C 
ATOM     13  C   UNL     1      -0.134  14.216  19.210  0.00  0.00    +0.000 C 
ATOM     14  H   UNL     1      -0.374  10.983  19.854  0.00  0.00    +0.000 HD
ENDROOT
BRANCH  11  15
ATOM     15  C   UNL     1       0.605   9.762  21.256  0.00  0.00    +0.000 C 
ATOM     16  C   UNL     1      -0.364   8.798  21.944  0.00  0.00    +0.000 C 
BRANCH  15  17
ATOM     17  C   UNL     1       1.203   9.095  20.065  0.00  0.00    +0.000 A 
ATOM     18  N   UNL     1       1.833   7.948  19.970  0.00  0.00    +0.000 NA
ATOM     19  C   UNL     1       2.206   7.917  18.636  0.00  0.00    +0.000 A 
ATOM     20  N   UNL     1       1.822   9.009  17.948  0.00  0.00    +0.000 NA
ATOM     21  O   UNL     1       1.156   9.787  18.890  0.00  0.00    +0.000 OA
BRANCH  19  22
ATOM     22  C   UNL     1       2.955   6.805  18.040  0.00  0.00    +0.000 A 
ATOM     23  C   UNL     1       2.484   5.495  18.134  0.00  0.00    +0.000 A 
ATOM     24  C   UNL     1       3.235   4.464  17.572  0.00  0.00    +0.000 A 
ATOM     25  C   UNL     1       4.430   4.765  16.931  0.00  0.00    +0.000 A 
ATOM     26  C   UNL     1       4.824   6.091  16.873  0.00  0.00    +0.000 A 
ATOM     27  N   UNL     1       4.118   7.112  17.407  0.00  0.00    +0.000 NA
ENDBRANCH  19  22
ENDBRANCH  15  17
ENDBRANCH  11  15
TORSDOF 3
ENDMDL
MODEL 7
REMARK VINA RESULT:      -6.5      3.798      6.945
REMARK  Name = 
REMARK  5 active torsions:
REMARK  status: ('A' for Active; 'I' for Inactive)
REMARK    1  A    between atoms: C_1  and  C_2
REMARK    2  A    between atoms: N_11  and  C_12
REMARK    3  A    between atoms: C_12  and  C_13
REMARK    4  A    between atoms: C_12  and  C_14
REMARK    5  A    between atoms: C_16  and  C_17
REMARK                            x       y       z     vdW  Elec       q    Type
REMARK                         _______ _______ _______ _____ _____    ______ ____
ROOT
ATOM      1  C   UNL     1      -0.082   8.640  21.832  0.00  0.00    +0.000 C 
ATOM      2  C   UNL     1       0.469   8.846  20.441  0.00  0.00    +0.000 C 
ATOM      3  O   UNL     1      -0.047   9.677  19.697  0.00  0.00    +0.000 OA
ATOM      4  N   UNL     1       1.574   8.090  20.068  0.00  0.00    +0.000 N 
ATOM      5  C   UNL     1       2.168   7.018  20.867  0.00  0.00    +0.000 C 
ATOM      6  C   UNL     1       1.660   5.626  20.511  0.00  0.00    +0.000 C 
ATOM      7  C   UNL     1       1.802   5.163  19.055  0.00  0.00    +0.000 C 
ATOM      8  N   UNL     1       2.667   5.973  18.201  0.00  0.00    +0.000 N 
ATOM      9  C   UNL     1       3.974   5.555  18.010  0.00  0.00    +0.000 C 
ATOM     10  O   UNL     1       4.427   4.543  18.540  0.00  0.00    +0.000 OA
ATOM     11  N   UNL     1       4.757   6.337  17.211  0.00  0.00    +0.000 N 
ATOM     12  C   UNL     1       2.078   7.245  17.751  0.00  0.00    +0.000 C 
ATOM     13  C   UNL     1       2.220   8.372  18.780  0.00  0.00    +0.000 C 
ATOM     14  H   UNL     1       4.354   7.051  16.628  0.00  0.00    +0.000 HD
ENDROOT
BRANCH  11  15
ATOM     15  C   UNL     1       6.145   5.991  16.911  0.00  0.00    +0.000 C 
ATOM     16  C   UNL     1       6.411   5.975  15.404  0.00  0.00    +0.000 C 
BRANCH  15  17
ATOM     17  C   UNL     1       7.033   6.998  17.558  0.00  0.00    +0.000 A 
ATOM     18  N   UNL     1       7.171   8.279  17.313  0.00  0.00    +0.000 NA
ATOM     19  C   UNL     1       8.185   8.647  18.183  0.00  0.00    +0.000 A 
ATOM     20  N   UNL     1       8.650   7.622  18.924  0.00  0.00    +0.000 NA
ATOM     21  O   UNL     1       7.887   6.533  18.514  0.00  0.00    +0.000 OA
BRANCH  19  22
ATOM     22  C   UNL     1       8.703  10.016  18.276  0.00  0.00    +0.000 A 
ATOM     23  C   UNL     1       9.775  10.318  19.115  0.00  0.00    +0.000 A 
ATOM     24  C   UNL     1      10.226  11.635  19.190  0.00  0.00    +0.000 A 
ATOM     25  C   UNL     1       9.600  12.612  18.427  0.00  0.00    +0.000 A 
ATOM     26  C   UNL     1       8.548  12.230  17.612  0.00  0.00    +0.000 A 
ATOM     27  N   UNL     1       8.089  10.962  17.517  0.00  0.00    +0.000 NA
ENDBRANCH  19  22
ENDBRANCH  15  17
ENDBRANCH  11  15
TORSDOF 3
ENDMDL
MODEL 8
REMARK VINA RESULT:      -6.4      6.307     11.064
REMARK  Name = 
REMARK  5 active torsions:
REMARK  status: ('A' for Active; 'I' for Inactive)
REMARK    1  A    between atoms: C_1  and  C_2
REMARK    2  A    between atoms: N_11  and  C_12
REMARK    3  A    between atoms: C_12  and  C_13
REMARK    4  A    between atoms: C_12  and  C_14
REMARK    5  A    between atoms: C_16  and  C_17
REMARK                            x       y       z     vdW  Elec       q    Type
REMARK                         _______ _______ _______ _____ _____    ______ ____
ROOT
ATOM      1  C   UNL     1      -2.844  15.423  25.272  0.00  0.00    +0.000 C 
ATOM      2  C   UNL     1      -3.590  15.849  24.030  0.00  0.00    +0.000 C 
ATOM      3  O   UNL     1      -3.750  17.045  23.794  0.00  0.00    +0.000 OA
ATOM      4  N   UNL     1      -4.045  14.850  23.178  0.00  0.00    +0.000 N 
ATOM      5  C   UNL     1      -3.975  13.415  23.452  0.00  0.00    +0.000 C 
ATOM      6  C   UNL     1      -5.243  12.840  24.072  0.00  0.00    +0.000 C 
ATOM      7  C   UNL     1      -6.563  13.037  23.316  0.00  0.00    +0.000 C 
ATOM      8  N   UNL     1      -6.453  13.501  21.935  0.00  0.00    +0.000 N 
ATOM      9  C   UNL     1      -6.510  12.558  20.921  0.00  0.00    +0.000 C 
ATOM     10  O   UNL     1      -6.637  11.357  21.144  0.00  0.00    +0.000 OA
ATOM     11  N   UNL     1      -6.399  13.025  19.644  0.00  0.00    +0.000 N 
ATOM     12  C   UNL     1      -6.141  14.932  21.785  0.00  0.00    +0.000 C 
ATOM     13  C   UNL     1      -4.643  15.236  21.893  0.00  0.00    +0.000 C 
ATOM     14  H   UNL     1      -6.485  14.007  19.440  0.00  0.00    +0.000 HD
ENDROOT
BRANCH  11  15
ATOM     15  C   UNL     1      -6.470  12.135  18.486  0.00  0.00    +0.000 C 
ATOM     16  C   UNL     1      -7.218  12.784  17.319  0.00  0.00    +0.000 C 
BRANCH  15  17
ATOM     17  C   UNL     1      -5.082  11.803  18.060  0.00  0.00    +0.000 A 
ATOM     18  N   UNL     1      -3.970  11.783  18.757  0.00  0.00    +0.000 NA
ATOM     19  C   UNL     1      -3.017  11.474  17.800  0.00  0.00    +0.000 A 
ATOM     20  N   UNL     1      -3.533  11.318  16.565  0.00  0.00    +0.000 NA
ATOM     21  O   UNL     1      -4.897  11.533  16.736  0.00  0.00    +0.000 OA
BRANCH  19  22
ATOM     22  C   UNL     1      -1.589  11.341  18.106  0.00  0.00    +0.000 A 
ATOM     23  C   UNL     1      -0.969  10.091  18.092  0.00  0.00    +0.000 A 
ATOM     24  C   UNL     1       0.385  10.004  18.407  0.00  0.00    +0.000 A 
ATOM     25  C   UNL     1       1.085  11.161  18.724  0.00  0.00    +0.000 A 
ATOM     26  C   UNL     1       0.400  12.365  18.707  0.00  0.00    +0.000 A 
ATOM     27  N   UNL     1      -0.912  12.481  18.405  0.00  0.00    +0.000 NA
ENDBRANCH  19  22
ENDBRANCH  15  17
ENDBRANCH  11  15
TORSDOF 3
ENDMDL
MODEL 9
REMARK VINA RESULT:      -6.4      3.000      8.536
REMARK  Name = 
REMARK  5 active torsions:
REMARK  status: ('A' for Active; 'I' for Inactive)
REMARK    1  A    between atoms: C_1  and  C_2
REMARK    2  A    between atoms: N_11  and  C_12
REMARK    3  A    between atoms: C_12  and  C_13
REMARK    4  A    between atoms: C_12  and  C_14
REMARK    5  A    between atoms: C_16  and  C_17
REMARK                            x       y       z     vdW  Elec       q    Type
REMARK                         _______ _______ _______ _____ _____    ______ ____
ROOT
ATOM      1  C   UNL     1       6.404  16.351  20.700  0.00  0.00    +0.000 C 
ATOM      2  C   UNL     1       5.484  15.788  19.643  0.00  0.00    +0.000 C 
ATOM      3  O   UNL     1       5.599  16.154  18.475  0.00  0.00    +0.000 OA
ATOM      4  N   UNL     1       4.548  14.841  20.042  0.00  0.00    +0.000 N 
ATOM      5  C   UNL     1       4.295  14.440  21.425  0.00  0.00    +0.000 C 
ATOM      6  C   UNL     1       3.148  15.194  22.089  0.00  0.00    +0.000 C 
ATOM      7  C   UNL     1       1.775  15.155  21.405  0.00  0.00    +0.000 C 
ATOM      8  N   UNL     1       1.612  14.168  20.340  0.00  0.00    +0.000 N 
ATOM      9  C   UNL     1       1.012  12.959  20.654  0.00  0.00    +0.000 C 
ATOM     10  O   UNL     1       0.628  12.689  21.790  0.00  0.00    +0.000 OA
ATOM     11  N   UNL     1       0.880  12.058  19.638  0.00  0.00    +0.000 N 
ATOM     12  C   UNL     1       2.251  14.524  19.062  0.00  0.00    +0.000 C 
ATOM     13  C   UNL     1       3.741  14.170  19.014  0.00  0.00    +0.000 C 
ATOM     14  H   UNL     1       1.013  12.333  18.679  0.00  0.00    +0.000 HD
ENDROOT
BRANCH  11  15
ATOM     15  C   UNL     1       0.240  10.758  19.835  0.00  0.00    +0.000 C 
ATOM     16  C   UNL     1      -1.184  10.738  19.276  0.00  0.00    +0.000 C 
BRANCH  15  17
ATOM     17  C   UNL     1       1.057   9.721  19.144  0.00  0.00    +0.000 A 
ATOM     18  N   UNL     1       1.545   8.591  19.600  0.00  0.00    +0.000 NA
ATOM     19  C   UNL     1       2.264   8.113  18.518  0.00  0.00    +0.000 A 
ATOM     20  N   UNL     1       2.221   8.927  17.445  0.00  0.00    +0.000 NA
ATOM     21  O   UNL     1       1.421   9.989  17.857  0.00  0.00    +0.000 OA
BRANCH  19  22
ATOM     22  C   UNL     1       3.007   6.848  18.546  0.00  0.00    +0.000 A 
ATOM     23  C   UNL     1       3.923   6.535  17.541  0.00  0.00    +0.000 A 
ATOM     24  C   UNL     1       4.594   5.315  17.594  0.00  0.00    +0.000 A 
ATOM     25  C   UNL     1       4.337   4.442  18.643  0.00  0.00    +0.000 A 
ATOM     26  C   UNL     1       3.420   4.830  19.606  0.00  0.00    +0.000 A 
ATOM     27  N   UNL     1       2.755   6.006  19.583  0.00  0.00    +0.000 NA
ENDBRANCH  19  22
ENDBRANCH  15  17
ENDBRANCH  11  15
TORSDOF 3
ENDMDL
