MODEL 1
REMARK VINA RESULT:      -7.8      0.000      0.000
REMARK  Name = 
REMARK  5 active torsions:
REMARK  status: ('A' for Active; 'I' for Inactive)
REMARK    1  A    between atoms: C_7  and  C_8
REMARK    2  A    between atoms: N_13  and  C_14
REMARK    3  A    between atoms: C_14  and  C_15
REMARK    4  A    between atoms: C_15  and  O_16
REMARK    5  A    between atoms: O_16  and  C_17
REMARK                            x       y       z     vdW  Elec       q    Type
REMARK                         _______ _______ _______ _____ _____    ______ ____
ROOT
ATOM      1  C   UNL     1       2.436   7.060  18.674  0.00  0.00    +0.000 A 
ATOM      2  N   UNL     1       2.159   6.963  20.042  0.00  0.00    +0.000 NA
ATOM      3  C   UNL     1       1.641   8.117  20.319  0.00  0.00    +0.000 A 
ATOM      4  C   UNL     1       1.139   8.656  21.581  0.00  0.00    +0.000 A 
ATOM      5  C   UNL     1       0.654   9.905  21.525  0.00  0.00    +0.000 A 
ATOM      6  N   UNL     1       0.593  10.711  20.378  0.00  0.00    +0.000 N 
ATOM      7  C   UNL     1       1.089  10.163  19.185  0.00  0.00    +0.000 A 
ATOM      8  C   UNL     1       1.599   8.932  19.109  0.00  0.00    +0.000 A 
ATOM      9  N   UNL     1       2.125   8.193  18.094  0.00  0.00    +0.000 NA
ENDROOT
BRANCH   1  16
ATOM     10  F   UNL     1       5.025   7.115  17.452  0.00  0.00    +0.000 F 
ATOM     11  C   UNL     1       4.309   5.983  17.420  0.00  0.00    +0.000 A 
ATOM     12  C   UNL     1       4.875   4.878  16.784  0.00  0.00    +0.000 A 
ATOM     13  C   UNL     1       4.174   3.674  16.721  0.00  0.00    +0.000 A 
ATOM     14  C   UNL     1       2.908   3.575  17.294  0.00  0.00    +0.000 A 
ATOM     15  C   UNL     1       2.342   4.682  17.930  0.00  0.00    +0.000 A 
ATOM     16  C   UNL     1       3.044   5.897  17.999  0.00  0.00    +0.000 A 
ENDBRANCH   1  16
BRANCH   6  17
ATOM     17  C   UNL     1       0.026  12.089  20.353  0.00  0.00    +0.000 C 
BRANCH  17  18
ATOM     18  C   UNL     1      -1.004  12.310  19.246  0.00  0.00    +0.000 C 
BRANCH  18  19
ATOM     19  O   UNL     1      -2.086  11.380  19.303  0.00  0.00    +0.000 OA
BRANCH  19  20
ATOM     20  C   UNL     1      -2.597  11.040  18.070  0.00  0.00    +0.000 A 
ATOM     21  C   UNL     1      -1.988  10.181  17.146  0.00  0.00    +0.000 A 
ATOM     22  C   UNL     1      -2.595   9.908  15.919  0.00  0.00    +0.000 A 
ATOM     23  C   UNL     1      -3.818  10.491  15.606  0.00  0.00    +0.000 A 
ATOM     24  C   UNL     1      -4.434  11.345  16.519  0.00  0.00    +0.000 A 
ATOM     25  C   UNL     1      -3.825  11.619  17.748  0.00  0.00    +0.000 A 
ENDBRANCH  19  20
ENDBRANCH  18  19
ENDBRANCH  17  18
ENDBRANCH   6  17
TORSDOF 5
ENDMDL
MODEL 2
REMARK VINA RESULT:      -7.8      6.452      8.994
REMARK  Name = 
REMARK  5 active torsions:
REMARK  status: ('A' for Active; 'I' for Inactive)
REMARK    1  A    between atoms: C_7  and  C_8
REMARK    2  A    between atoms: N_13  and  C_14
REMARK    3  A    between atoms: C_14  and  C_15
REMARK    4  A    between atoms: C_15  and  O_16
REMARK    5  A    between atoms: O_16  and  C_17
REMARK                            x       y       z     vdW  Elec       q    Type
REMARK                         _______ _______ _______ _____ _____    ______ ____
ROOT
ATOM      1  C   UNL     1       4.104   4.811  18.856  0.00  0.00    +0.000 A 
ATOM      2  N   UNL     1       5.300   4.433  19.477  0.00  0.00    +0.000 NA
ATOM      3  C   UNL     1       6.135   5.340  19.082  0.00  0.00    +0.000 A 
ATOM      4  C   UNL     1       7.555   5.518  19.375  0.00  0.00    +0.000 A 
ATOM      5  C   UNL     1       8.137   6.582  18.802  0.00  0.00    +0.000 A 
ATOM      6  N   UNL     1       7.501   7.512  17.965  0.00  0.00    +0.000 N 
ATOM      7  C   UNL     1       6.138   7.307  17.700  0.00  0.00    +0.000 A 
ATOM      8  C   UNL     1       5.446   6.286  18.210  0.00  0.00    +0.000 A 
ATOM      9  N   UNL     1       4.149   5.885  18.108  0.00  0.00    +0.000 NA
ENDROOT
BRANCH   1  16
ATOM     10  F   UNL     1       2.985   3.052  16.894  0.00  0.00    +0.000 F 
ATOM     11  C   UNL     1       2.402   3.148  18.097  0.00  0.00    +0.000 A 
ATOM     12  C   UNL     1       1.266   2.372  18.328  0.00  0.00    +0.000 A 
ATOM     13  C   UNL     1       0.620   2.432  19.562  0.00  0.00    +0.000 A 
ATOM     14  C   UNL     1       1.109   3.267  20.564  0.00  0.00    +0.000 A 
ATOM     15  C   UNL     1       2.246   4.043  20.331  0.00  0.00    +0.000 A 
ATOM     16  C   UNL     1       2.903   3.986  19.091  0.00  0.00    +0.000 A 
ENDBRANCH   1  16
BRANCH   6  17
ATOM     17  C   UNL     1       8.178   8.696  17.363  0.00  0.00    +0.000 C 
BRANCH  17  18
ATOM     18  C   UNL     1       8.697   9.698  18.394  0.00  0.00    +0.000 C 
BRANCH  18  19
ATOM     19  O   UNL     1       8.823  11.018  17.867  0.00  0.00    +0.000 OA
BRANCH  19  20
ATOM     20  C   UNL     1       9.978  11.664  18.248  0.00  0.00    +0.000 A 
ATOM     21  C   UNL     1      10.841  11.254  19.272  0.00  0.00    +0.000 A 
ATOM     22  C   UNL     1      11.987  11.990  19.577  0.00  0.00    +0.000 A 
ATOM     23  C   UNL     1      12.281  13.144  18.860  0.00  0.00    +0.000 A 
ATOM     24  C   UNL     1      11.430  13.561  17.837  0.00  0.00    +0.000 A 
ATOM     25  C   UNL     1      10.282  12.823  17.532  0.00  0.00    +0.000 A 
ENDBRANCH  19  20
ENDBRANCH  18  19
ENDBRANCH  17  18
ENDBRANCH   6  17
TORSDOF 5
ENDMDL
MODEL 3
REMARK VINA RESULT:      -7.7      6.301      8.599
REMARK  Name = 
REMARK  5 active torsions:
REMARK  status: ('A' for Active; 'I' for Inactive)
REMARK    1  A    between atoms: C_7  and  C_8
REMARK    2  A    between atoms: N_13  and  C_14
REMARK    3  A    between atoms: C_14  and  C_15
REMARK    4  A    between atoms: C_15  and  O_16
REMARK    5  A    between atoms: O_16  and  C_17
REMARK                            x       y       z     vdW  Elec       q    Type
REMARK                         _______ _______ _______ _____ _____    ______ ____
ROOT
ATOM      1  C   UNL     1       8.376   9.224  18.224  0.00  0.00    +0.000 A 
ATOM      2  N   UNL     1       8.722   8.107  18.992  0.00  0.00    +0.000 NA
ATOM      3  C   UNL     1       7.981   7.168  18.496  0.00  0.00    +0.000 A 
ATOM      4  C   UNL     1       7.865   5.757  18.856  0.00  0.00    +0.000 A 
ATOM      5  C   UNL     1       6.993   5.043  18.128  0.00  0.00    +0.000 A 
ATOM      6  N   UNL     1       6.206   5.536  17.076  0.00  0.00    +0.000 N 
ATOM      7  C   UNL     1       6.338   6.897  16.761  0.00  0.00    +0.000 A 
ATOM      8  C   UNL     1       7.171   7.713  17.411  0.00  0.00    +0.000 A 
ATOM      9  N   UNL     1       7.474   9.036  17.292  0.00  0.00    +0.000 NA
ENDROOT
BRANCH   1  16
ATOM     10  F   UNL     1       7.643  11.705  16.995  0.00  0.00    +0.000 F 
ATOM     11  C   UNL     1       8.646  11.684  17.884  0.00  0.00    +0.000 A 
ATOM     12  C   UNL     1       9.285  12.892  18.165  0.00  0.00    +0.000 A 
ATOM     13  C   UNL     1      10.335  12.929  19.082  0.00  0.00    +0.000 A 
ATOM     14  C   UNL     1      10.745  11.759  19.718  0.00  0.00    +0.000 A 
ATOM     15  C   UNL     1      10.105  10.551  19.435  0.00  0.00    +0.000 A 
ATOM     16  C   UNL     1       9.045  10.507  18.514  0.00  0.00    +0.000 A 
ENDBRANCH   1  16
BRANCH   6  17
ATOM     17  C   UNL     1       5.262   4.704  16.277  0.00  0.00    +0.000 C 
BRANCH  17  18
ATOM     18  C   UNL     1       4.545   3.630  17.095  0.00  0.00    +0.000 C 
BRANCH  18  19
ATOM     19  O   UNL     1       3.124   3.735  17.020  0.00  0.00    +0.000 OA
BRANCH  19  20
ATOM     20  C   UNL     1       2.500   3.766  18.247  0.00  0.00    +0.000 A 
ATOM     21  C   UNL     1       1.342   3.056  18.590  0.00  0.00    +0.000 A 
ATOM     22  C   UNL     1       0.790   3.165  19.867  0.00  0.00    +0.000 A 
ATOM     23  C   UNL     1       1.393   3.984  20.815  0.00  0.00    +0.000 A 
ATOM     24  C   UNL     1       2.547   4.693  20.486  0.00  0.00    +0.000 A 
ATOM     25  C   UNL     1       3.099   4.584  19.205  0.00  0.00    +0.000 A 
ENDBRANCH  19  20
ENDBRANCH  18  19
ENDBRANCH  17  18
ENDBRANCH   6  17
TORSDOF 5
ENDMDL
MODEL 4
REMARK VINA RESULT:      -7.7      0.337      1.021
REMARK  Name = 
REMARK  5 active torsions:
REMARK  status: ('A' for Active; 'I' for Inactive)
REMARK    1  A    between atoms: C_7  and  C_8
REMARK    2  A    between atoms: N_13  and  C_14
REMARK    3  A    between atoms: C_14  and  C_15
REMARK    4  A    between atoms: C_15  and  O_16
REMARK    5  A    between atoms: O_16  and  C_17
REMARK                            x       y       z     vdW  Elec       q    Type
REMARK                         _______ _______ _______ _____ _____    ______ ____
ROOT
ATOM      1  C   UNL     1       2.577   7.097  18.471  0.00  0.00    +0.000 A 
ATOM      2  N   UNL     1       2.216   7.079  19.822  0.00  0.00    +0.000 NA
ATOM      3  C   UNL     1       1.691   8.250  20.002  0.00  0.00    +0.000 A 
ATOM      4  C   UNL     1       1.116   8.862  21.197  0.00  0.00    +0.000 A 
ATOM      5  C   UNL     1       0.645  10.108  21.041  0.00  0.00    +0.000 A 
ATOM      6  N   UNL     1       0.661  10.847  19.848  0.00  0.00    +0.000 N 
ATOM      7  C   UNL     1       1.226  10.230  18.721  0.00  0.00    +0.000 A 
ATOM      8  C   UNL     1       1.729   8.995  18.747  0.00  0.00    +0.000 A 
ATOM      9  N   UNL     1       2.312   8.196  17.810  0.00  0.00    +0.000 NA
ENDROOT
BRANCH   1  16
ATOM     10  F   UNL     1       5.266   7.051  17.485  0.00  0.00    +0.000 F 
ATOM     11  C   UNL     1       4.530   5.932  17.436  0.00  0.00    +0.000 A 
ATOM     12  C   UNL     1       5.125   4.790  16.900  0.00  0.00    +0.000 A 
ATOM     13  C   UNL     1       4.406   3.598  16.825  0.00  0.00    +0.000 A 
ATOM     14  C   UNL     1       3.092   3.548  17.285  0.00  0.00    +0.000 A 
ATOM     15  C   UNL     1       2.497   4.691  17.822  0.00  0.00    +0.000 A 
ATOM     16  C   UNL     1       3.217   5.895  17.903  0.00  0.00    +0.000 A 
ENDBRANCH   1  16
BRANCH   6  17
ATOM     17  C   UNL     1       0.108  12.224  19.710  0.00  0.00    +0.000 C 
BRANCH  17  18
ATOM     18  C   UNL     1      -1.412  12.262  19.546  0.00  0.00    +0.000 C 
BRANCH  18  19
ATOM     19  O   UNL     1      -1.972  10.977  19.278  0.00  0.00    +0.000 OA
BRANCH  19  20
ATOM     20  C   UNL     1      -2.626  10.894  18.069  0.00  0.00    +0.000 A 
ATOM     21  C   UNL     1      -3.831  11.534  17.749  0.00  0.00    +0.000 A 
ATOM     22  C   UNL     1      -4.410  11.375  16.490  0.00  0.00    +0.000 A 
ATOM     23  C   UNL     1      -3.789  10.576  15.536  0.00  0.00    +0.000 A 
ATOM     24  C   UNL     1      -2.588   9.937  15.843  0.00  0.00    +0.000 A 
ATOM     25  C   UNL     1      -2.009  10.095  17.106  0.00  0.00    +0.000 A 
ENDBRANCH  19  20
ENDBRANCH  18  19
ENDBRANCH  17  18
ENDBRANCH   6  17
TORSDOF 5
ENDMDL
MODEL 5
REMARK VINA RESULT:      -7.7      3.260      7.920
REMARK  Name = 
REMARK  5 active torsions:
REMARK  status: ('A' for Active; 'I' for Inactive)
REMARK    1  A    between atoms: C_7  and  C_8
REMARK    2  A    between atoms: N_13  and  C_14
REMARK    3  A    between atoms: C_14  and  C_15
REMARK    4  A    between atoms: C_15  and  O_16
REMARK    5  A    between atoms: O_16  and  C_17
REMARK                            x       y       z     vdW  Elec       q    Type
REMARK                         _______ _______ _______ _____ _____    ______ ____
ROOT
ATOM      1  C   UNL     1       1.360   9.804  18.578  0.00  0.00    +0.000 A 
ATOM      2  N   UNL     1       1.303   9.025  19.738  0.00  0.00    +0.000 NA
ATOM      3  C   UNL     1       2.017   7.988  19.431  0.00  0.00    +0.000 A 
ATOM      4  C   UNL     1       2.352   6.800  20.211  0.00  0.00    +0.000 A 
ATOM      5  C   UNL     1       3.131   5.901  19.591  0.00  0.00    +0.000 A 
ATOM      6  N   UNL     1       3.636   6.014  18.286  0.00  0.00    +0.000 N 
ATOM      7  C   UNL     1       3.289   7.167  17.564  0.00  0.00    +0.000 A 
ATOM      8  C   UNL     1       2.519   8.133  18.069  0.00  0.00    +0.000 A 
ATOM      9  N   UNL     1       2.059   9.319  17.581  0.00  0.00    +0.000 NA
ENDROOT
BRANCH   1  16
ATOM     10  F   UNL     1      -1.484  10.033  18.330  0.00  0.00    +0.000 F 
ATOM     11  C   UNL     1      -0.743  11.145  18.441  0.00  0.00    +0.000 A 
ATOM     12  C   UNL     1      -1.411  12.369  18.431  0.00  0.00    +0.000 A 
ATOM     13  C   UNL     1      -0.691  13.558  18.544  0.00  0.00    +0.000 A 
ATOM     14  C   UNL     1       0.697  13.522  18.668  0.00  0.00    +0.000 A 
ATOM     15  C   UNL     1       1.364  12.296  18.678  0.00  0.00    +0.000 A 
ATOM     16  C   UNL     1       0.644  11.094  18.566  0.00  0.00    +0.000 A 
ENDBRANCH   1  16
BRANCH   6  17
ATOM     17  C   UNL     1       4.517   5.001  17.639  0.00  0.00    +0.000 C 
BRANCH  17  18
ATOM     18  C   UNL     1       3.758   3.814  17.047  0.00  0.00    +0.000 C 
BRANCH  18  19
ATOM     19  O   UNL     1       3.854   2.639  17.853  0.00  0.00    +0.000 OA
BRANCH  19  20
ATOM     20  C   UNL     1       3.059   2.667  18.977  0.00  0.00    +0.000 A 
ATOM     21  C   UNL     1       3.513   2.557  20.298  0.00  0.00    +0.000 A 
ATOM     22  C   UNL     1       2.616   2.593  21.366  0.00  0.00    +0.000 A 
ATOM     23  C   UNL     1       1.255   2.741  21.124  0.00  0.00    +0.000 A 
ATOM     24  C   UNL     1       0.792   2.854  19.813  0.00  0.00    +0.000 A 
ATOM     25  C   UNL     1       1.692   2.816  18.744  0.00  0.00    +0.000 A 
ENDBRANCH  19  20
ENDBRANCH  18  19
ENDBRANCH  17  18
ENDBRANCH   6  17
TORSDOF 5
ENDMDL
MODEL 6
REMARK VINA RESULT:      -7.6      6.545      8.817
REMARK  Name = 
REMARK  5 active torsions:
REMARK  status: ('A' for Active; 'I' for Inactive)
REMARK    1  A    between atoms: C_7  and  C_8
REMARK    2  A    between atoms: N_13  and  C_14
REMARK    3  A    between atoms: C_14  and  C_15
REMARK    4  A    between atoms: C_15  and  O_16
REMARK    5  A    between atoms: O_16  and  C_17
REMARK                            x       y       z     vdW  Elec       q    Type
REMARK                         _______ _______ _______ _____ _____    ______ ____
ROOT
ATOM      1  C   UNL     1       4.066   4.708  18.875  0.00  0.00    +0.000 A 
ATOM      2  N   UNL     1       5.245   4.371  19.548  0.00  0.00    +0.000 NA
ATOM      3  C   UNL     1       6.092   5.251  19.116  0.00  0.00    +0.000 A 
ATOM      4  C   UNL     1       7.504   5.447  19.432  0.00  0.00    +0.000 A 
ATOM      5  C   UNL     1       8.101   6.472  18.806  0.00  0.00    +0.000 A 
ATOM      6  N   UNL     1       7.487   7.346  17.895  0.00  0.00    +0.000 N 
ATOM      7  C   UNL     1       6.131   7.124  17.610  0.00  0.00    +0.000 A 
ATOM      8  C   UNL     1       5.426   6.138  18.168  0.00  0.00    +0.000 A 
ATOM      9  N   UNL     1       4.130   5.732  18.060  0.00  0.00    +0.000 NA
ENDROOT
BRANCH   1  16
ATOM     10  F   UNL     1       2.702   3.210  16.851  0.00  0.00    +0.000 F 
ATOM     11  C   UNL     1       2.235   3.192  18.107  0.00  0.00    +0.000 A 
ATOM     12  C   UNL     1       1.094   2.431  18.361  0.00  0.00    +0.000 A 
ATOM     13  C   UNL     1       0.564   2.375  19.650  0.00  0.00    +0.000 A 
ATOM     14  C   UNL     1       1.176   3.080  20.684  0.00  0.00    +0.000 A 
ATOM     15  C   UNL     1       2.318   3.841  20.429  0.00  0.00    +0.000 A 
ATOM     16  C   UNL     1       2.858   3.900  19.133  0.00  0.00    +0.000 A 
ENDBRANCH   1  16
BRANCH   6  17
ATOM     17  C   UNL     1       8.181   8.488  17.235  0.00  0.00    +0.000 C 
BRANCH  17  18
ATOM     18  C   UNL     1       8.247   9.749  18.096  0.00  0.00    +0.000 C 
BRANCH  18  19
ATOM     19  O   UNL     1       9.193   9.643  19.160  0.00  0.00    +0.000 OA
BRANCH  19  20
ATOM     20  C   UNL     1       9.828  10.826  19.463  0.00  0.00    +0.000 A 
ATOM     21  C   UNL     1      10.725  11.506  18.630  0.00  0.00    +0.000 A 
ATOM     22  C   UNL     1      11.316  12.702  19.042  0.00  0.00    +0.000 A 
ATOM     23  C   UNL     1      11.014  13.230  20.292  0.00  0.00    +0.000 A 
ATOM     24  C   UNL     1      10.120  12.563  21.129  0.00  0.00    +0.000 A 
ATOM     25  C   UNL     1       9.529  11.365  20.715  0.00  0.00    +0.000 A 
ENDBRANCH  19  20
ENDBRANCH  18  19
ENDBRANCH  17  18
ENDBRANCH   6  17
TORSDOF 5
ENDMDL
MODEL 7
REMARK VINA RESULT:      -7.6      1.871      2.649
REMARK  Name = 
REMARK  5 active torsions:
REMARK  status: ('A' for Active; 'I' for Inactive)
REMARK    1  A    between atoms: C_7  and  C_8
REMARK    2  A    between atoms: N_13  and  C_14
REMARK    3  A    between atoms: C_14  and  C_15
REMARK    4  A    between atoms: C_15  and  O_16
REMARK    5  A    between atoms: O_16  and  C_17
REMARK                            x       y       z     vdW  Elec       q    Type
REMARK                         _______ _______ _______ _____ _____    ______ ____
ROOT
ATOM      1  C   UNL     1       2.369   6.432  19.642  0.00  0.00    +0.000 A 
ATOM      2  N   UNL     1       2.633   7.116  18.451  0.00  0.00    +0.000 NA
ATOM      3  C   UNL     1       2.120   8.286  18.664  0.00  0.00    +0.000 A 
ATOM      4  C   UNL     1       2.060   9.469  17.810  0.00  0.00    +0.000 A 
ATOM      5  C   UNL     1       1.453  10.539  18.343  0.00  0.00    +0.000 A 
ATOM      6  N   UNL     1       0.886  10.607  19.626  0.00  0.00    +0.000 N 
ATOM      7  C   UNL     1       0.957   9.450  20.417  0.00  0.00    +0.000 A 
ATOM      8  C   UNL     1       1.535   8.321  20.001  0.00  0.00    +0.000 A 
ATOM      9  N   UNL     1       1.729   7.099  20.570  0.00  0.00    +0.000 NA
ENDROOT
BRANCH   1  16
ATOM     10  F   UNL     1       0.715   4.302  20.608  0.00  0.00    +0.000 F 
ATOM     11  C   UNL     1       1.977   4.038  20.241  0.00  0.00    +0.000 A 
ATOM     12  C   UNL     1       2.419   2.720  20.350  0.00  0.00    +0.000 A 
ATOM     13  C   UNL     1       3.722   2.388  19.981  0.00  0.00    +0.000 A 
ATOM     14  C   UNL     1       4.583   3.374  19.503  0.00  0.00    +0.000 A 
ATOM     15  C   UNL     1       4.139   4.693  19.394  0.00  0.00    +0.000 A 
ATOM     16  C   UNL     1       2.826   5.034  19.762  0.00  0.00    +0.000 A 
ENDBRANCH   1  16
BRANCH   6  17
ATOM     17  C   UNL     1       0.238  11.824  20.191  0.00  0.00    +0.000 C 
BRANCH  17  18
ATOM     18  C   UNL     1      -1.051  12.224  19.472  0.00  0.00    +0.000 C 
BRANCH  18  19
ATOM     19  O   UNL     1      -2.014  11.171  19.436  0.00  0.00    +0.000 OA
BRANCH  19  20
ATOM     20  C   UNL     1      -2.641  11.028  18.218  0.00  0.00    +0.000 A 
ATOM     21  C   UNL     1      -3.867  11.604  17.861  0.00  0.00    +0.000 A 
ATOM     22  C   UNL     1      -4.414  11.389  16.596  0.00  0.00    +0.000 A 
ATOM     23  C   UNL     1      -3.740  10.595  15.674  0.00  0.00    +0.000 A 
ATOM     24  C   UNL     1      -2.517  10.019  16.018  0.00  0.00    +0.000 A 
ATOM     25  C   UNL     1      -1.970  10.235  17.286  0.00  0.00    +0.000 A 
ENDBRANCH  19  20
ENDBRANCH  18  19
ENDBRANCH  17  18
ENDBRANCH   6  17
TORSDOF 5
ENDMDL
MODEL 8
REMARK VINA RESULT:      -7.6      5.972      8.549
REMARK  Name = 
REMARK  5 active torsions:
REMARK  status: ('A' for Active; 'I' for Inactive)
REMARK    1  A    between atoms: C_7  and  C_8
REMARK    2  A    between atoms: N_13  and  C_14
REMARK    3  A    between atoms: C_14  and  C_15
REMARK    4  A    between atoms: C_15  and  O_16
REMARK    5  A    between atoms: O_16  and  C_17
REMARK                            x       y       z     vdW  Elec       q    Type
REMARK                         _______ _______ _______ _____ _____    ______ ____
ROOT
ATOM      1  C   UNL     1       8.622   9.302  18.380  0.00  0.00    +0.000 A 
ATOM      2  N   UNL     1       8.888   8.127  19.092  0.00  0.00    +0.000 NA
ATOM      3  C   UNL     1       8.078   7.270  18.556  0.00  0.00    +0.000 A 
ATOM      4  C   UNL     1       7.861   5.855  18.848  0.00  0.00    +0.000 A 
ATOM      5  C   UNL     1       6.937   5.242  18.093  0.00  0.00    +0.000 A 
ATOM      6  N   UNL     1       6.185   5.842  17.070  0.00  0.00    +0.000 N 
ATOM      7  C   UNL     1       6.416   7.203  16.820  0.00  0.00    +0.000 A 
ATOM      8  C   UNL     1       7.308   7.924  17.503  0.00  0.00    +0.000 A 
ATOM      9  N   UNL     1       7.706   9.225  17.446  0.00  0.00    +0.000 NA
ENDROOT
BRANCH   1  16
ATOM     10  F   UNL     1       8.999  10.219  21.067  0.00  0.00    +0.000 F 
ATOM     11  C   UNL     1       9.533  10.917  20.054  0.00  0.00    +0.000 A 
ATOM     12  C   UNL     1      10.255  12.067  20.372  0.00  0.00    +0.000 A 
ATOM     13  C   UNL     1      10.833  12.831  19.359  0.00  0.00    +0.000 A 
ATOM     14  C   UNL     1      10.690  12.444  18.028  0.00  0.00    +0.000 A 
ATOM     15  C   UNL     1       9.967  11.292  17.711  0.00  0.00    +0.000 A 
ATOM     16  C   UNL     1       9.384  10.517  18.728  0.00  0.00    +0.000 A 
ENDBRANCH   1  16
BRANCH   6  17
ATOM     17  C   UNL     1       5.181   5.120  16.238  0.00  0.00    +0.000 C 
BRANCH  17  18
ATOM     18  C   UNL     1       4.208   4.267  17.050  0.00  0.00    +0.000 C 
BRANCH  18  19
ATOM     19  O   UNL     1       3.049   4.991  17.462  0.00  0.00    +0.000 OA
BRANCH  19  20
ATOM     20  C   UNL     1       2.276   4.328  18.389  0.00  0.00    +0.000 A 
ATOM     21  C   UNL     1       1.630   3.102  18.184  0.00  0.00    +0.000 A 
ATOM     22  C   UNL     1       0.865   2.520  19.196  0.00  0.00    +0.000 A 
ATOM     23  C   UNL     1       0.741   3.158  20.425  0.00  0.00    +0.000 A 
ATOM     24  C   UNL     1       1.383   4.377  20.642  0.00  0.00    +0.000 A 
ATOM     25  C   UNL     1       2.148   4.960  19.627  0.00  0.00    +0.000 A 
ENDBRANCH  19  20
ENDBRANCH  18  19
ENDBRANCH  17  18
ENDBRANCH   6  17
TORSDOF 5
ENDMDL
MODEL 9
REMARK VINA RESULT:      -7.6      6.251      8.840
REMARK  Name = 
REMARK  5 active torsions:
REMARK  status: ('A' for Active; 'I' for Inactive)
REMARK    1  A    between atoms: C_7  and  C_8
REMARK    2  A    between atoms: N_13  and  C_14
REMARK    3  A    between atoms: C_14  and  C_15
REMARK    4  A    between atoms: C_15  and  O_16
REMARK    5  A    between atoms: O_16  and  C_17
REMARK                            x       y       z     vdW  Elec       q    Type
REMARK                         _______ _______ _______ _____ _____    ______ ____
ROOT
ATOM      1  C   UNL     1       4.126   4.755  18.709  0.00  0.00    +0.000 A 
ATOM      2  N   UNL     1       5.287   4.391  19.400  0.00  0.00    +0.000 NA
ATOM      3  C   UNL     1       6.146   5.282  19.019  0.00  0.00    +0.000 A 
ATOM      4  C   UNL     1       7.551   5.463  19.378  0.00  0.00    +0.000 A 
ATOM      5  C   UNL     1       8.166   6.507  18.802  0.00  0.00    +0.000 A 
ATOM      6  N   UNL     1       7.578   7.414  17.907  0.00  0.00    +0.000 N 
ATOM      7  C   UNL     1       6.229   7.207  17.581  0.00  0.00    +0.000 A 
ATOM      8  C   UNL     1       5.507   6.204  18.086  0.00  0.00    +0.000 A 
ATOM      9  N   UNL     1       4.214   5.806  17.931  0.00  0.00    +0.000 NA
ENDROOT
BRANCH   1  16
ATOM     10  F   UNL     1       2.034   5.457  20.534  0.00  0.00    +0.000 F 
ATOM     11  C   UNL     1       1.925   4.333  19.812  0.00  0.00    +0.000 A 
ATOM     12  C   UNL     1       0.780   3.558  19.993  0.00  0.00    +0.000 A 
ATOM     13  C   UNL     1       0.613   2.379  19.268  0.00  0.00    +0.000 A 
ATOM     14  C   UNL     1       1.592   1.975  18.362  0.00  0.00    +0.000 A 
ATOM     15  C   UNL     1       2.737   2.752  18.182  0.00  0.00    +0.000 A 
ATOM     16  C   UNL     1       2.910   3.942  18.908  0.00  0.00    +0.000 A 
ENDBRANCH   1  16
BRANCH   6  17
ATOM     17  C   UNL     1       8.291   8.575  17.304  0.00  0.00    +0.000 C 
BRANCH  17  18
ATOM     18  C   UNL     1       8.294   9.822  18.189  0.00  0.00    +0.000 C 
BRANCH  18  19
ATOM     19  O   UNL     1       9.218   9.727  19.273  0.00  0.00    +0.000 OA
BRANCH  19  20
ATOM     20  C   UNL     1       9.869  10.907  19.557  0.00  0.00    +0.000 A 
ATOM     21  C   UNL     1      10.806  11.539  18.729  0.00  0.00    +0.000 A 
ATOM     22  C   UNL     1      11.411  12.734  19.119  0.00  0.00    +0.000 A 
ATOM     23  C   UNL     1      11.084  13.310  20.341  0.00  0.00    +0.000 A 
ATOM     24  C   UNL     1      10.150  12.692  21.172  0.00  0.00    +0.000 A 
ATOM     25  C   UNL     1       9.545  11.493  20.781  0.00  0.00    +0.000 A 
ENDBRANCH  19  20
ENDBRANCH  18  19
ENDBRANCH  17  18
ENDBRANCH   6  17
TORSDOF 5
ENDMDL
