MODEL 1
REMARK VINA RESULT:      -6.9      0.000      0.000
REMARK  Name = 
REMARK  13 active torsions:
REMARK  status: ('A' for Active; 'I' for Inactive)
REMARK    1  A    between atoms: C_1  and  C_2
REMARK    2  A    between atoms: C_2  and  C_3
REMARK    3  A    between atoms: N_6  and  C_7
REMARK    4  A    between atoms: C_12  and  C_13
REMARK    5  A    between atoms: C_17  and  C_18
REMARK    6  A    between atoms: C_19  and  C_20
REMARK    7  A    between atoms: C_20  and  C_21
REMARK    8  A    between atoms: C_20  and  C_22
REMARK    9  A    between atoms: C_22  and  C_23
REMARK   10  A    between atoms: C_23  and  C_24
REMARK   11  A    between atoms: C_24  and  C_25
REMARK   12  A    between atoms: C_25  and  C_26
REMARK   13  A    between atoms: C_25  and  C_27
REMARK                            x       y       z     vdW  Elec       q    Type
REMARK                         _______ _______ _______ _____ _____    ______ ____
ROOT
ATOM      1  C   UNL     1      -3.507  11.953  18.803  0.00  0.00    +0.000 C 
ATOM      2  C   UNL     1      -4.750  12.300  19.610  0.00  0.00    +0.000 C 
ATOM      3  C   UNL     1      -4.769  12.861  20.818  0.00  0.00    +0.000 C 
ATOM      4  N   UNL     1      -5.965  13.226  21.452  0.00  0.00    +0.000 N 
ATOM      5  C   UNL     1      -7.175  12.405  21.309  0.00  0.00    +0.000 C 
ATOM      6  C   UNL     1      -6.071  14.267  22.381  0.00  0.00    +0.000 C 
ATOM      7  O   UNL     1      -7.105  14.503  23.032  0.00  0.00    +0.000 OA
ATOM      8  C   UNL     1      -4.821  15.096  22.677  0.00  0.00    +0.000 C 
ATOM      9  C   UNL     1      -3.640  14.788  21.771  0.00  0.00    +0.000 C 
ATOM     10  C   UNL     1      -3.495  13.267  21.567  0.00  0.00    +0.000 C 
ATOM     11  C   UNL     1      -3.482  12.554  22.952  0.00  0.00    +0.000 C 
ATOM     12  C   UNL     1      -2.157  12.976  20.766  0.00  0.00    +0.000 C 
ATOM     13  C   UNL     1      -0.986  12.736  21.754  0.00  0.00    +0.000 C 
ATOM     14  C   UNL     1       0.198  11.884  21.317  0.00  0.00    +0.000 C 
ATOM     15  C   UNL     1      -0.043  10.757  20.182  0.00  0.00    +0.000 C 
ATOM     16  C   UNL     1      -0.685   9.575  20.923  0.00  0.00    +0.000 C 
ATOM     17  C   UNL     1       1.290  10.440  19.345  0.00  0.00    +0.000 C 
ATOM     18  C   UNL     1       1.633  11.895  19.063  0.00  0.00    +0.000 C 
ATOM     19  C   UNL     1       0.223  12.481  18.627  0.00  0.00    +0.000 C 
ATOM     20  C   UNL     1      -0.889  11.456  19.125  0.00  0.00    +0.000 C 
ATOM     21  C   UNL     1      -2.277  11.829  19.746  0.00  0.00    +0.000 C 
ENDROOT
BRANCH   1  23
ATOM     22  C   UNL     1      -3.207  10.672  16.514  0.00  0.00    +0.000 C 
ATOM     23  C   UNL     1      -3.800  10.699  17.919  0.00  0.00    +0.000 C 
ENDBRANCH   1  23
BRANCH  17  24
ATOM     24  C   UNL     1       1.501   9.663  17.938  0.00  0.00    +0.000 C 
ATOM     25  C   UNL     1       0.198   8.979  17.377  0.00  0.00    +0.000 C 
BRANCH  24  26
ATOM     26  C   UNL     1       2.693   8.700  17.668  0.00  0.00    +0.000 C 
BRANCH  26  27
ATOM     27  C   UNL     1       2.522   7.465  18.588  0.00  0.00    +0.000 C 
BRANCH  27  28
ATOM     28  C   UNL     1       3.313   6.210  18.280  0.00  0.00    +0.000 C 
BRANCH  28  29
ATOM     29  C   UNL     1       2.611   4.985  18.919  0.00  0.00    +0.000 C 
ATOM     30  C   UNL     1       1.905   5.331  20.235  0.00  0.00    +0.000 C 
ATOM     31  C   UNL     1       1.625   4.389  17.921  0.00  0.00    +0.000 C 
ENDBRANCH  28  29
ENDBRANCH  27  28
ENDBRANCH  26  27
ENDBRANCH  24  26
ENDBRANCH  17  24
TORSDOF 6
ENDMDL
MODEL 2
REMARK VINA RESULT:      -6.8      2.023      3.242
REMARK  Name = 
REMARK  13 active torsions:
REMARK  status: ('A' for Active; 'I' for Inactive)
REMARK    1  A    between atoms: C_1  and  C_2
REMARK    2  A    between atoms: C_2  and  C_3
REMARK    3  A    between atoms: N_6  and  C_7
REMARK    4  A    between atoms: C_12  and  C_13
REMARK    5  A    between atoms: C_17  and  C_18
REMARK    6  A    between atoms: C_19  and  C_20
REMARK    7  A    between atoms: C_20  and  C_21
REMARK    8  A    between atoms: C_20  and  C_22
REMARK    9  A    between atoms: C_22  and  C_23
REMARK   10  A    between atoms: C_23  and  C_24
REMARK   11  A    between atoms: C_24  and  C_25
REMARK   12  A    between atoms: C_25  and  C_26
REMARK   13  A    between atoms: C_25  and  C_27
REMARK                            x       y       z     vdW  Elec       q    Type
REMARK                         _______ _______ _______ _____ _____    ______ ____
ROOT
ATOM      1  C   UNL     1      -1.644  11.459  22.440  0.00  0.00    +0.000 C 
ATOM      2  C   UNL     1      -2.064  12.660  23.275  0.00  0.00    +0.000 C 
ATOM      3  C   UNL     1      -2.290  13.891  22.820  0.00  0.00    +0.000 C 
ATOM      4  N   UNL     1      -2.760  14.919  23.649  0.00  0.00    +0.000 N 
ATOM      5  C   UNL     1      -2.318  15.022  25.046  0.00  0.00    +0.000 C 
ATOM      6  C   UNL     1      -3.526  15.999  23.197  0.00  0.00    +0.000 C 
ATOM      7  O   UNL     1      -3.832  16.970  23.913  0.00  0.00    +0.000 OA
ATOM      8  C   UNL     1      -3.927  16.029  21.723  0.00  0.00    +0.000 C 
ATOM      9  C   UNL     1      -3.583  14.762  20.958  0.00  0.00    +0.000 C 
ATOM     10  C   UNL     1      -2.174  14.264  21.338  0.00  0.00    +0.000 C 
ATOM     11  C   UNL     1      -1.153  15.431  21.195  0.00  0.00    +0.000 C 
ATOM     12  C   UNL     1      -1.781  13.048  20.397  0.00  0.00    +0.000 C 
ATOM     13  C   UNL     1      -1.025  13.565  19.145  0.00  0.00    +0.000 C 
ATOM     14  C   UNL     1      -0.052  12.641  18.425  0.00  0.00    +0.000 C 
ATOM     15  C   UNL     1       0.659  11.463  19.274  0.00  0.00    +0.000 C 
ATOM     16  C   UNL     1       1.800  12.152  20.038  0.00  0.00    +0.000 C 
ATOM     17  C   UNL     1       1.066  10.211  18.355  0.00  0.00    +0.000 C 
ATOM     18  C   UNL     1      -0.286  10.091  17.668  0.00  0.00    +0.000 C 
ATOM     19  C   UNL     1      -1.285  10.223  18.896  0.00  0.00    +0.000 C 
ATOM     20  C   UNL     1      -0.466  10.858  20.104  0.00  0.00    +0.000 C 
ATOM     21  C   UNL     1      -0.993  11.936  21.111  0.00  0.00    +0.000 C 
ENDROOT
BRANCH   1  23
ATOM     22  C   UNL     1      -0.611   9.063  22.848  0.00  0.00    +0.000 C 
ATOM     23  C   UNL     1      -0.763  10.508  23.312  0.00  0.00    +0.000 C 
ENDBRANCH   1  23
BRANCH  17  24
ATOM     24  C   UNL     1       1.489   8.697  18.749  0.00  0.00    +0.000 C 
ATOM     25  C   UNL     1       1.717   8.471  20.291  0.00  0.00    +0.000 C 
BRANCH  24  26
ATOM     26  C   UNL     1       2.584   7.893  17.989  0.00  0.00    +0.000 C 
BRANCH  26  27
ATOM     27  C   UNL     1       2.738   6.520  18.691  0.00  0.00    +0.000 C 
BRANCH  27  28
ATOM     28  C   UNL     1       2.029   5.317  18.103  0.00  0.00    +0.000 C 
BRANCH  28  29
ATOM     29  C   UNL     1       1.973   4.182  19.157  0.00  0.00    +0.000 C 
ATOM     30  C   UNL     1       1.249   4.607  20.440  0.00  0.00    +0.000 C 
ATOM     31  C   UNL     1       1.307   2.955  18.546  0.00  0.00    +0.000 C 
ENDBRANCH  28  29
ENDBRANCH  27  28
ENDBRANCH  26  27
ENDBRANCH  24  26
ENDBRANCH  17  24
TORSDOF 6
ENDMDL
MODEL 3
REMARK VINA RESULT:      -6.7      1.721      3.176
REMARK  Name = 
REMARK  13 active torsions:
REMARK  status: ('A' for Active; 'I' for Inactive)
REMARK    1  A    between atoms: C_1  and  C_2
REMARK    2  A    between atoms: C_2  and  C_3
REMARK    3  A    between atoms: N_6  and  C_7
REMARK    4  A    between atoms: C_12  and  C_13
REMARK    5  A    between atoms: C_17  and  C_18
REMARK    6  A    between atoms: C_19  and  C_20
REMARK    7  A    between atoms: C_20  and  C_21
REMARK    8  A    between atoms: C_20  and  C_22
REMARK    9  A    between atoms: C_22  and  C_23
REMARK   10  A    between atoms: C_23  and  C_24
REMARK   11  A    between atoms: C_24  and  C_25
REMARK   12  A    between atoms: C_25  and  C_26
REMARK   13  A    between atoms: C_25  and  C_27
REMARK                            x       y       z     vdW  Elec       q    Type
REMARK                         _______ _______ _______ _____ _____    ______ ____
ROOT
ATOM      1  C   UNL     1      -1.614  11.145  22.407  0.00  0.00    +0.000 C 
ATOM      2  C   UNL     1      -2.296  12.253  23.197  0.00  0.00    +0.000 C 
ATOM      3  C   UNL     1      -2.754  13.402  22.701  0.00  0.00    +0.000 C 
ATOM      4  N   UNL     1      -3.449  14.331  23.488  0.00  0.00    +0.000 N 
ATOM      5  C   UNL     1      -3.079  14.554  24.892  0.00  0.00    +0.000 C 
ATOM      6  C   UNL     1      -4.405  15.220  22.987  0.00  0.00    +0.000 C 
ATOM      7  O   UNL     1      -4.924  16.124  23.666  0.00  0.00    +0.000 OA
ATOM      8  C   UNL     1      -4.760  15.132  21.503  0.00  0.00    +0.000 C 
ATOM      9  C   UNL     1      -4.142  13.945  20.783  0.00  0.00    +0.000 C 
ATOM     10  C   UNL     1      -2.674  13.756  21.211  0.00  0.00    +0.000 C 
ATOM     11  C   UNL     1      -1.908  15.104  21.060  0.00  0.00    +0.000 C 
ATOM     12  C   UNL     1      -2.013  12.625  20.316  0.00  0.00    +0.000 C 
ATOM     13  C   UNL     1      -1.341  13.256  19.069  0.00  0.00    +0.000 C 
ATOM     14  C   UNL     1      -0.179  12.535  18.400  0.00  0.00    +0.000 C 
ATOM     15  C   UNL     1       0.732  11.547  19.299  0.00  0.00    +0.000 C 
ATOM     16  C   UNL     1       1.685  12.473  20.070  0.00  0.00    +0.000 C 
ATOM     17  C   UNL     1       1.413  10.383  18.427  0.00  0.00    +0.000 C 
ATOM     18  C   UNL     1       0.135   9.973  17.711  0.00  0.00    +0.000 C 
ATOM     19  C   UNL     1      -0.906   9.926  18.910  0.00  0.00    +0.000 C 
ATOM     20  C   UNL     1      -0.271  10.744  20.118  0.00  0.00    +0.000 C 
ATOM     21  C   UNL     1      -1.036  11.714  21.081  0.00  0.00    +0.000 C 
ENDROOT
BRANCH   1  23
ATOM     22  C   UNL     1      -0.239   8.968  22.991  0.00  0.00    +0.000 C 
ATOM     23  C   UNL     1      -0.584  10.415  23.327  0.00  0.00    +0.000 C 
ENDBRANCH   1  23
BRANCH  17  24
ATOM     24  C   UNL     1       2.124   8.998  18.874  0.00  0.00    +0.000 C 
ATOM     25  C   UNL     1       2.555   8.076  17.671  0.00  0.00    +0.000 C 
BRANCH  24  26
ATOM     26  C   UNL     1       1.564   8.076  19.996  0.00  0.00    +0.000 C 
BRANCH  26  27
ATOM     27  C   UNL     1       2.121   6.650  19.760  0.00  0.00    +0.000 C 
BRANCH  27  28
ATOM     28  C   UNL     1       1.824   5.571  20.783  0.00  0.00    +0.000 C 
BRANCH  28  29
ATOM     29  C   UNL     1       1.164   4.358  20.079  0.00  0.00    +0.000 C 
ATOM     30  C   UNL     1       1.772   4.074  18.701  0.00  0.00    +0.000 C 
ATOM     31  C   UNL     1       1.273   3.132  20.978  0.00  0.00    +0.000 C 
ENDBRANCH  28  29
ENDBRANCH  27  28
ENDBRANCH  26  27
ENDBRANCH  24  26
ENDBRANCH  17  24
TORSDOF 6
ENDMDL
MODEL 4
REMARK VINA RESULT:      -6.6      3.231      7.828
REMARK  Name = 
REMARK  13 active torsions:
REMARK  status: ('A' for Active; 'I' for Inactive)
REMARK    1  A    between atoms: C_1  and  C_2
REMARK    2  A    between atoms: C_2  and  C_3
REMARK    3  A    between atoms: N_6  and  C_7
REMARK    4  A    between atoms: C_12  and  C_13
REMARK    5  A    between atoms: C_17  and  C_18
REMARK    6  A    between atoms: C_19  and  C_20
REMARK    7  A    between atoms: C_20  and  C_21
REMARK    8  A    between atoms: C_20  and  C_22
REMARK    9  A    between atoms: C_22  and  C_23
REMARK   10  A    between atoms: C_23  and  C_24
REMARK   11  A    between atoms: C_24  and  C_25
REMARK   12  A    between atoms: C_25  and  C_26
REMARK   13  A    between atoms: C_25  and  C_27
REMARK                            x       y       z     vdW  Elec       q    Type
REMARK                         _______ _______ _______ _____ _____    ______ ____
ROOT
ATOM      1  C   UNL     1      -2.333  11.128  18.864  0.00  0.00    +0.000 C 
ATOM      2  C   UNL     1      -1.121  10.248  18.590  0.00  0.00    +0.000 C 
ATOM      3  C   UNL     1      -0.148   9.963  19.453  0.00  0.00    +0.000 C 
ATOM      4  N   UNL     1       0.888   9.071  19.142  0.00  0.00    +0.000 N 
ATOM      5  C   UNL     1       1.447   9.010  17.785  0.00  0.00    +0.000 C 
ATOM      6  C   UNL     1       1.576   8.310  20.093  0.00  0.00    +0.000 C 
ATOM      7  O   UNL     1       2.575   7.617  19.825  0.00  0.00    +0.000 OA
ATOM      8  C   UNL     1       1.131   8.409  21.552  0.00  0.00    +0.000 C 
ATOM      9  C   UNL     1      -0.145   9.207  21.761  0.00  0.00    +0.000 C 
ATOM     10  C   UNL     1      -0.136  10.482  20.895  0.00  0.00    +0.000 C 
ATOM     11  C   UNL     1       1.190  11.264  21.132  0.00  0.00    +0.000 C 
ATOM     12  C   UNL     1      -1.395  11.373  21.269  0.00  0.00    +0.000 C 
ATOM     13  C   UNL     1      -1.020  12.386  22.381  0.00  0.00    +0.000 C 
ATOM     14  C   UNL     1      -1.796  13.691  22.496  0.00  0.00    +0.000 C 
ATOM     15  C   UNL     1      -2.493  14.291  21.165  0.00  0.00    +0.000 C 
ATOM     16  C   UNL     1      -1.356  14.977  20.394  0.00  0.00    +0.000 C 
ATOM     17  C   UNL     1      -3.776  15.194  21.504  0.00  0.00    +0.000 C 
ATOM     18  C   UNL     1      -4.421  14.183  22.441  0.00  0.00    +0.000 C 
ATOM     19  C   UNL     1      -4.263  12.834  21.618  0.00  0.00    +0.000 C 
ATOM     20  C   UNL     1      -3.153  13.087  20.506  0.00  0.00    +0.000 C 
ATOM     21  C   UNL     1      -2.042  12.076  20.062  0.00  0.00    +0.000 C 
ENDROOT
BRANCH   1  23
ATOM     22  C   UNL     1      -3.019  10.957  16.320  0.00  0.00    +0.000 C 
ATOM     23  C   UNL     1      -2.766  11.836  17.541  0.00  0.00    +0.000 C 
ENDBRANCH   1  23
BRANCH  17  24
ATOM     24  C   UNL     1      -4.975  15.735  20.557  0.00  0.00    +0.000 C 
ATOM     25  C   UNL     1      -4.673  17.115  19.859  0.00  0.00    +0.000 C 
BRANCH  24  26
ATOM     26  C   UNL     1      -6.468  15.746  20.995  0.00  0.00    +0.000 C 
BRANCH  26  27
ATOM     27  C   UNL     1      -7.207  14.647  20.190  0.00  0.00    +0.000 C 
BRANCH  27  28
ATOM     28  C   UNL     1      -6.824  14.423  18.741  0.00  0.00    +0.000 C 
BRANCH  28  29
ATOM     29  C   UNL     1      -6.330  12.966  18.555  0.00  0.00    +0.000 C 
ATOM     30  C   UNL     1      -7.156  11.957  19.362  0.00  0.00    +0.000 C 
ATOM     31  C   UNL     1      -6.346  12.610  17.073  0.00  0.00    +0.000 C 
ENDBRANCH  28  29
ENDBRANCH  27  28
ENDBRANCH  26  27
ENDBRANCH  24  26
ENDBRANCH  17  24
TORSDOF 6
ENDMDL
MODEL 5
REMARK VINA RESULT:      -6.5      1.014      1.212
REMARK  Name = 
REMARK  13 active torsions:
REMARK  status: ('A' for Active; 'I' for Inactive)
REMARK    1  A    between atoms: C_1  and  C_2
REMARK    2  A    between atoms: C_2  and  C_3
REMARK    3  A    between atoms: N_6  and  C_7
REMARK    4  A    between atoms: C_12  and  C_13
REMARK    5  A    between atoms: C_17  and  C_18
REMARK    6  A    between atoms: C_19  and  C_20
REMARK    7  A    between atoms: C_20  and  C_21
REMARK    8  A    between atoms: C_20  and  C_22
REMARK    9  A    between atoms: C_22  and  C_23
REMARK   10  A    between atoms: C_23  and  C_24
REMARK   11  A    between atoms: C_24  and  C_25
REMARK   12  A    between atoms: C_25  and  C_26
REMARK   13  A    between atoms: C_25  and  C_27
REMARK                            x       y       z     vdW  Elec       q    Type
REMARK                         _______ _______ _______ _____ _____    ______ ____
ROOT
ATOM      1  C   UNL     1      -3.883  12.397  19.594  0.00  0.00    +0.000 C 
ATOM      2  C   UNL     1      -5.083  12.661  20.493  0.00  0.00    +0.000 C 
ATOM      3  C   UNL     1      -5.042  13.130  21.739  0.00  0.00    +0.000 C 
ATOM      4  N   UNL     1      -6.205  13.425  22.465  0.00  0.00    +0.000 N 
ATOM      5  C   UNL     1      -7.409  12.595  22.327  0.00  0.00    +0.000 C 
ATOM      6  C   UNL     1      -6.272  14.391  23.473  0.00  0.00    +0.000 C 
ATOM      7  O   UNL     1      -7.271  14.560  24.197  0.00  0.00    +0.000 OA
ATOM      8  C   UNL     1      -5.020  15.218  23.761  0.00  0.00    +0.000 C 
ATOM      9  C   UNL     1      -3.888  15.001  22.771  0.00  0.00    +0.000 C 
ATOM     10  C   UNL     1      -3.734  13.502  22.445  0.00  0.00    +0.000 C 
ATOM     11  C   UNL     1      -3.632  12.688  23.769  0.00  0.00    +0.000 C 
ATOM     12  C   UNL     1      -2.439  13.296  21.551  0.00  0.00    +0.000 C 
ATOM     13  C   UNL     1      -1.210  13.004  22.452  0.00  0.00    +0.000 C 
ATOM     14  C   UNL     1      -0.041  12.209  21.886  0.00  0.00    +0.000 C 
ATOM     15  C   UNL     1      -0.331  11.166  20.685  0.00  0.00    +0.000 C 
ATOM     16  C   UNL     1      -0.913   9.920  21.370  0.00  0.00    +0.000 C 
ATOM     17  C   UNL     1       0.957  10.936  19.754  0.00  0.00    +0.000 C 
ATOM     18  C   UNL     1       1.263  12.414  19.565  0.00  0.00    +0.000 C 
ATOM     19  C   UNL     1      -0.178  13.005  19.252  0.00  0.00    +0.000 C 
ATOM     20  C   UNL     1      -1.244  11.926  19.732  0.00  0.00    +0.000 C 
ATOM     21  C   UNL     1      -2.600  12.226  20.456  0.00  0.00    +0.000 C 
ENDROOT
BRANCH   1  23
ATOM     22  C   UNL     1      -5.617  11.135  18.054  0.00  0.00    +0.000 C 
ATOM     23  C   UNL     1      -4.208  11.208  18.636  0.00  0.00    +0.000 C 
ENDBRANCH   1  23
BRANCH  17  24
ATOM     24  C   UNL     1       1.100  10.271  18.283  0.00  0.00    +0.000 C 
ATOM     25  C   UNL     1      -0.230   9.627  17.735  0.00  0.00    +0.000 C 
BRANCH  24  26
ATOM     26  C   UNL     1       2.276   9.334  17.882  0.00  0.00    +0.000 C 
BRANCH  26  27
ATOM     27  C   UNL     1       2.169   8.046  18.735  0.00  0.00    +0.000 C 
BRANCH  27  28
ATOM     28  C   UNL     1       2.338   6.703  18.054  0.00  0.00    +0.000 C 
BRANCH  28  29
ATOM     29  C   UNL     1       2.611   5.612  19.120  0.00  0.00    +0.000 C 
ATOM     30  C   UNL     1       4.104   5.459  19.437  0.00  0.00    +0.000 C 
ATOM     31  C   UNL     1       1.823   5.932  20.385  0.00  0.00    +0.000 C 
ENDBRANCH  28  29
ENDBRANCH  27  28
ENDBRANCH  26  27
ENDBRANCH  24  26
ENDBRANCH  17  24
TORSDOF 6
ENDMDL
MODEL 6
REMARK VINA RESULT:      -6.4      4.009      8.646
REMARK  Name = 
REMARK  13 active torsions:
REMARK  status: ('A' for Active; 'I' for Inactive)
REMARK    1  A    between atoms: C_1  and  C_2
REMARK    2  A    between atoms: C_2  and  C_3
REMARK    3  A    between atoms: N_6  and  C_7
REMARK    4  A    between atoms: C_12  and  C_13
REMARK    5  A    between atoms: C_17  and  C_18
REMARK    6  A    between atoms: C_19  and  C_20
REMARK    7  A    between atoms: C_20  and  C_21
REMARK    8  A    between atoms: C_20  and  C_22
REMARK    9  A    between atoms: C_22  and  C_23
REMARK   10  A    between atoms: C_23  and  C_24
REMARK   11  A    between atoms: C_24  and  C_25
REMARK   12  A    between atoms: C_25  and  C_26
REMARK   13  A    between atoms: C_25  and  C_27
REMARK                            x       y       z     vdW  Elec       q    Type
REMARK                         _______ _______ _______ _____ _____    ______ ____
ROOT
ATOM      1  C   UNL     1       0.911   8.249  21.421  0.00  0.00    +0.000 C 
ATOM      2  C   UNL     1       1.227   6.767  21.277  0.00  0.00    +0.000 C 
ATOM      3  C   UNL     1       1.871   6.197  20.260  0.00  0.00    +0.000 C 
ATOM      4  N   UNL     1       2.196   4.833  20.252  0.00  0.00    +0.000 N 
ATOM      5  C   UNL     1       1.283   3.839  20.829  0.00  0.00    +0.000 C 
ATOM      6  C   UNL     1       3.291   4.296  19.569  0.00  0.00    +0.000 C 
ATOM      7  O   UNL     1       3.501   3.073  19.462  0.00  0.00    +0.000 OA
ATOM      8  C   UNL     1       4.227   5.258  18.838  0.00  0.00    +0.000 C 
ATOM      9  C   UNL     1       3.939   6.727  19.101  0.00  0.00    +0.000 C 
ATOM     10  C   UNL     1       2.421   6.995  19.073  0.00  0.00    +0.000 C 
ATOM     11  C   UNL     1       1.813   6.418  17.760  0.00  0.00    +0.000 C 
ATOM     12  C   UNL     1       2.168   8.559  19.175  0.00  0.00    +0.000 C 
ATOM     13  C   UNL     1       2.085   9.179  17.756  0.00  0.00    +0.000 C 
ATOM     14  C   UNL     1       1.290  10.461  17.546  0.00  0.00    +0.000 C 
ATOM     15  C   UNL     1       0.069  10.782  18.557  0.00  0.00    +0.000 C 
ATOM     16  C   UNL     1      -1.099   9.916  18.061  0.00  0.00    +0.000 C 
ATOM     17  C   UNL     1      -0.214  12.357  18.691  0.00  0.00    +0.000 C 
ATOM     18  C   UNL     1       1.238  12.742  18.934  0.00  0.00    +0.000 C 
ATOM     19  C   UNL     1       1.689  11.653  19.998  0.00  0.00    +0.000 C 
ATOM     20  C   UNL     1       0.627  10.469  19.940  0.00  0.00    +0.000 C 
ATOM     21  C   UNL     1       0.944   8.938  20.028  0.00  0.00    +0.000 C 
ENDROOT
BRANCH   1  23
ATOM     22  C   UNL     1      -0.499   9.553  23.233  0.00  0.00    +0.000 C 
ATOM     23  C   UNL     1      -0.422   8.417  22.218  0.00  0.00    +0.000 C 
ENDBRANCH   1  23
BRANCH  17  24
ATOM     24  C   UNL     1      -1.073  13.193  19.781  0.00  0.00    +0.000 C 
ATOM     25  C   UNL     1      -0.417  14.560  20.208  0.00  0.00    +0.000 C 
BRANCH  24  26
ATOM     26  C   UNL     1      -1.690  12.549  21.056  0.00  0.00    +0.000 C 
BRANCH  26  27
ATOM     27  C   UNL     1      -0.904  13.077  22.282  0.00  0.00    +0.000 C 
BRANCH  27  28
ATOM     28  C   UNL     1      -1.663  13.398  23.554  0.00  0.00    +0.000 C 
BRANCH  28  29
ATOM     29  C   UNL     1      -3.187  13.340  23.276  0.00  0.00    +0.000 C 
ATOM     30  C   UNL     1      -3.940  12.486  24.303  0.00  0.00    +0.000 C 
ATOM     31  C   UNL     1      -3.749  14.756  23.238  0.00  0.00    +0.000 C 
ENDBRANCH  28  29
ENDBRANCH  27  28
ENDBRANCH  26  27
ENDBRANCH  24  26
ENDBRANCH  17  24
TORSDOF 6
ENDMDL
MODEL 7
REMARK VINA RESULT:      -6.4      2.044      3.405
REMARK  Name = 
REMARK  13 active torsions:
REMARK  status: ('A' for Active; 'I' for Inactive)
REMARK    1  A    between atoms: C_1  and  C_2
REMARK    2  A    between atoms: C_2  and  C_3
REMARK    3  A    between atoms: N_6  and  C_7
REMARK    4  A    between atoms: C_12  and  C_13
REMARK    5  A    between atoms: C_17  and  C_18
REMARK    6  A    between atoms: C_19  and  C_20
REMARK    7  A    between atoms: C_20  and  C_21
REMARK    8  A    between atoms: C_20  and  C_22
REMARK    9  A    between atoms: C_22  and  C_23
REMARK   10  A    between atoms: C_23  and  C_24
REMARK   11  A    between atoms: C_24  and  C_25
REMARK   12  A    between atoms: C_25  and  C_26
REMARK   13  A    between atoms: C_25  and  C_27
REMARK                            x       y       z     vdW  Elec       q    Type
REMARK                         _______ _______ _______ _____ _____    ______ ____
ROOT
ATOM      1  C   UNL     1      -1.725  11.492  22.454  0.00  0.00    +0.000 C 
ATOM      2  C   UNL     1      -2.153  12.676  23.310  0.00  0.00    +0.000 C 
ATOM      3  C   UNL     1      -2.423  13.905  22.871  0.00  0.00    +0.000 C 
ATOM      4  N   UNL     1      -2.896  14.914  23.721  0.00  0.00    +0.000 N 
ATOM      5  C   UNL     1      -2.418  15.018  25.105  0.00  0.00    +0.000 C 
ATOM      6  C   UNL     1      -3.703  15.976  23.299  0.00  0.00    +0.000 C 
ATOM      7  O   UNL     1      -4.014  16.934  24.030  0.00  0.00    +0.000 OA
ATOM      8  C   UNL     1      -4.147  16.005  21.837  0.00  0.00    +0.000 C 
ATOM      9  C   UNL     1      -3.792  14.753  21.053  0.00  0.00    +0.000 C 
ATOM     10  C   UNL     1      -2.361  14.291  21.389  0.00  0.00    +0.000 C 
ATOM     11  C   UNL     1      -1.375  15.485  21.226  0.00  0.00    +0.000 C 
ATOM     12  C   UNL     1      -1.963  13.092  20.427  0.00  0.00    +0.000 C 
ATOM     13  C   UNL     1      -1.257  13.638  19.159  0.00  0.00    +0.000 C 
ATOM     14  C   UNL     1      -0.281  12.745  18.405  0.00  0.00    +0.000 C 
ATOM     15  C   UNL     1       0.485  11.580  19.224  0.00  0.00    +0.000 C 
ATOM     16  C   UNL     1       1.629  12.294  19.960  0.00  0.00    +0.000 C 
ATOM     17  C   UNL     1       0.899  10.345  18.284  0.00  0.00    +0.000 C 
ATOM     18  C   UNL     1      -0.469  10.194  17.635  0.00  0.00    +0.000 C 
ATOM     19  C   UNL     1      -1.436  10.291  18.891  0.00  0.00    +0.000 C 
ATOM     20  C   UNL     1      -0.600  10.940  20.081  0.00  0.00    +0.000 C 
ATOM     21  C   UNL     1      -1.126  11.996  21.110  0.00  0.00    +0.000 C 
ENDROOT
BRANCH   1  23
ATOM     22  C   UNL     1      -0.569   9.141  22.779  0.00  0.00    +0.000 C 
ATOM     23  C   UNL     1      -0.795  10.560  23.293  0.00  0.00    +0.000 C 
ENDBRANCH   1  23
BRANCH  17  24
ATOM     24  C   UNL     1       1.373   8.840  18.654  0.00  0.00    +0.000 C 
ATOM     25  C   UNL     1       1.717   8.628  20.177  0.00  0.00    +0.000 C 
BRANCH  24  26
ATOM     26  C   UNL     1       2.421   8.048  17.820  0.00  0.00    +0.000 C 
BRANCH  26  27
ATOM     27  C   UNL     1       2.606   6.661  18.485  0.00  0.00    +0.000 C 
BRANCH  27  28
ATOM     28  C   UNL     1       3.447   5.618  17.778  0.00  0.00    +0.000 C 
BRANCH  28  29
ATOM     29  C   UNL     1       4.892   6.151  17.601  0.00  0.00    +0.000 C 
ATOM     30  C   UNL     1       5.935   5.262  18.287  0.00  0.00    +0.000 C 
ATOM     31  C   UNL     1       5.200   6.292  16.115  0.00  0.00    +0.000 C 
ENDBRANCH  28  29
ENDBRANCH  27  28
ENDBRANCH  26  27
ENDBRANCH  24  26
ENDBRANCH  17  24
TORSDOF 6
ENDMDL
MODEL 8
REMARK VINA RESULT:      -6.4      4.030      8.586
REMARK  Name = 
REMARK  13 active torsions:
REMARK  status: ('A' for Active; 'I' for Inactive)
REMARK    1  A    between atoms: C_1  and  C_2
REMARK    2  A    between atoms: C_2  and  C_3
REMARK    3  A    between atoms: N_6  and  C_7
REMARK    4  A    between atoms: C_12  and  C_13
REMARK    5  A    between atoms: C_17  and  C_18
REMARK    6  A    between atoms: C_19  and  C_20
REMARK    7  A    between atoms: C_20  and  C_21
REMARK    8  A    between atoms: C_20  and  C_22
REMARK    9  A    between atoms: C_22  and  C_23
REMARK   10  A    between atoms: C_23  and  C_24
REMARK   11  A    between atoms: C_24  and  C_25
REMARK   12  A    between atoms: C_25  and  C_26
REMARK   13  A    between atoms: C_25  and  C_27
REMARK                            x       y       z     vdW  Elec       q    Type
REMARK                         _______ _______ _______ _____ _____    ______ ____
ROOT
ATOM      1  C   UNL     1       0.962   8.239  21.429  0.00  0.00    +0.000 C 
ATOM      2  C   UNL     1       1.303   6.763  21.279  0.00  0.00    +0.000 C 
ATOM      3  C   UNL     1       1.933   6.205  20.246  0.00  0.00    +0.000 C 
ATOM      4  N   UNL     1       2.283   4.848  20.231  0.00  0.00    +0.000 N 
ATOM      5  C   UNL     1       1.405   3.836  20.832  0.00  0.00    +0.000 C 
ATOM      6  C   UNL     1       3.371   4.330  19.520  0.00  0.00    +0.000 C 
ATOM      7  O   UNL     1       3.602   3.112  19.409  0.00  0.00    +0.000 OA
ATOM      8  C   UNL     1       4.268   5.310  18.765  0.00  0.00    +0.000 C 
ATOM      9  C   UNL     1       3.959   6.773  19.033  0.00  0.00    +0.000 C 
ATOM     10  C   UNL     1       2.436   7.012  19.044  0.00  0.00    +0.000 C 
ATOM     11  C   UNL     1       1.806   6.420  17.748  0.00  0.00    +0.000 C 
ATOM     12  C   UNL     1       2.155   8.570  19.151  0.00  0.00    +0.000 C 
ATOM     13  C   UNL     1       2.024   9.187  17.734  0.00  0.00    +0.000 C 
ATOM     14  C   UNL     1       1.198  10.452  17.543  0.00  0.00    +0.000 C 
ATOM     15  C   UNL     1      -0.003  10.750  18.585  0.00  0.00    +0.000 C 
ATOM     16  C   UNL     1      -1.166   9.861  18.120  0.00  0.00    +0.000 C 
ATOM     17  C   UNL     1      -0.312  12.320  18.725  0.00  0.00    +0.000 C 
ATOM     18  C   UNL     1       1.138  12.734  18.930  0.00  0.00    +0.000 C 
ATOM     19  C   UNL     1       1.637  11.656  19.983  0.00  0.00    +0.000 C 
ATOM     20  C   UNL     1       0.596  10.451  19.953  0.00  0.00    +0.000 C 
ATOM     21  C   UNL     1       0.946   8.927  20.035  0.00  0.00    +0.000 C 
ENDROOT
BRANCH   1  23
ATOM     22  C   UNL     1      -0.426   9.518  23.276  0.00  0.00    +0.000 C 
ATOM     23  C   UNL     1      -0.353   8.382  22.260  0.00  0.00    +0.000 C 
ENDBRANCH   1  23
BRANCH  17  24
ATOM     24  C   UNL     1      -1.160  13.141  19.835  0.00  0.00    +0.000 C 
ATOM     25  C   UNL     1      -2.713  12.882  19.782  0.00  0.00    +0.000 C 
BRANCH  24  26
ATOM     26  C   UNL     1      -0.945  14.655  20.123  0.00  0.00    +0.000 C 
BRANCH  26  27
ATOM     27  C   UNL     1      -0.693  14.818  21.643  0.00  0.00    +0.000 C 
BRANCH  27  28
ATOM     28  C   UNL     1      -0.603  13.575  22.505  0.00  0.00    +0.000 C 
BRANCH  28  29
ATOM     29  C   UNL     1      -1.747  13.587  23.552  0.00  0.00    +0.000 C 
ATOM     30  C   UNL     1      -2.559  14.887  23.520  0.00  0.00    +0.000 C 
ATOM     31  C   UNL     1      -2.652  12.382  23.326  0.00  0.00    +0.000 C 
ENDBRANCH  28  29
ENDBRANCH  27  28
ENDBRANCH  26  27
ENDBRANCH  24  26
ENDBRANCH  17  24
TORSDOF 6
ENDMDL
MODEL 9
REMARK VINA RESULT:      -6.3      2.652      4.058
REMARK  Name = 
REMARK  13 active torsions:
REMARK  status: ('A' for Active; 'I' for Inactive)
REMARK    1  A    between atoms: C_1  and  C_2
REMARK    2  A    between atoms: C_2  and  C_3
REMARK    3  A    between atoms: N_6  and  C_7
REMARK    4  A    between atoms: C_12  and  C_13
REMARK    5  A    between atoms: C_17  and  C_18
REMARK    6  A    between atoms: C_19  and  C_20
REMARK    7  A    between atoms: C_20  and  C_21
REMARK    8  A    between atoms: C_20  and  C_22
REMARK    9  A    between atoms: C_22  and  C_23
REMARK   10  A    between atoms: C_23  and  C_24
REMARK   11  A    between atoms: C_24  and  C_25
REMARK   12  A    between atoms: C_25  and  C_26
REMARK   13  A    between atoms: C_25  and  C_27
REMARK                            x       y       z     vdW  Elec       q    Type
REMARK                         _______ _______ _______ _____ _____    ______ ____
ROOT
ATOM      1  C   UNL     1       1.781  13.351  20.763  0.00  0.00    +0.000 C 
ATOM      2  C   UNL     1       1.104  14.707  20.905  0.00  0.00    +0.000 C 
ATOM      3  C   UNL     1      -0.089  14.934  21.454  0.00  0.00    +0.000 C 
ATOM      4  N   UNL     1      -0.599  16.229  21.622  0.00  0.00    +0.000 N 
ATOM      5  C   UNL     1      -0.350  17.272  20.618  0.00  0.00    +0.000 C 
ATOM      6  C   UNL     1      -1.498  16.590  22.631  0.00  0.00    +0.000 C 
ATOM      7  O   UNL     1      -2.042  17.707  22.697  0.00  0.00    +0.000 OA
ATOM      8  C   UNL     1      -1.902  15.524  23.649  0.00  0.00    +0.000 C 
ATOM      9  C   UNL     1      -1.120  14.226  23.535  0.00  0.00    +0.000 C 
ATOM     10  C   UNL     1      -0.952  13.821  22.058  0.00  0.00    +0.000 C 
ATOM     11  C   UNL     1      -2.341  13.830  21.353  0.00  0.00    +0.000 C 
ATOM     12  C   UNL     1      -0.289  12.381  21.985  0.00  0.00    +0.000 C 
ATOM     13  C   UNL     1      -1.389  11.289  21.935  0.00  0.00    +0.000 C 
ATOM     14  C   UNL     1      -1.081   9.947  21.284  0.00  0.00    +0.000 C 
ATOM     15  C   UNL     1       0.056   9.894  20.135  0.00  0.00    +0.000 C 
ATOM     16  C   UNL     1      -0.637  10.409  18.864  0.00  0.00    +0.000 C 
ATOM     17  C   UNL     1       0.754   8.451  20.036  0.00  0.00    +0.000 C 
ATOM     18  C   UNL     1       1.022   8.319  21.528  0.00  0.00    +0.000 C 
ATOM     19  C   UNL     1       1.602   9.755  21.882  0.00  0.00    +0.000 C 
ATOM     20  C   UNL     1       1.199  10.732  20.691  0.00  0.00    +0.000 C 
ATOM     21  C   UNL     1       0.721  12.216  20.836  0.00  0.00    +0.000 C 
ENDROOT
BRANCH   1  23
ATOM     22  C   UNL     1       1.966  13.269  18.130  0.00  0.00    +0.000 C 
ATOM     23  C   UNL     1       2.672  13.352  19.480  0.00  0.00    +0.000 C 
ENDBRANCH   1  23
BRANCH  17  24
ATOM     24  C   UNL     1       2.123   7.982  19.306  0.00  0.00    +0.000 C 
ATOM     25  C   UNL     1       2.236   8.427  17.799  0.00  0.00    +0.000 C 
BRANCH  24  26
ATOM     26  C   UNL     1       2.694   6.538  19.414  0.00  0.00    +0.000 C 
BRANCH  26  27
ATOM     27  C   UNL     1       2.582   5.878  18.017  0.00  0.00    +0.000 C 
BRANCH  27  28
ATOM     28  C   UNL     1       1.662   4.686  17.844  0.00  0.00    +0.000 C 
BRANCH  28  29
ATOM     29  C   UNL     1       2.013   3.604  18.896  0.00  0.00    +0.000 C 
ATOM     30  C   UNL     1       0.877   3.369  19.899  0.00  0.00    +0.000 C 
ATOM     31  C   UNL     1       2.380   2.306  18.186  0.00  0.00    +0.000 C 
ENDBRANCH  28  29
ENDBRANCH  27  28
ENDBRANCH  26  27
ENDBRANCH  24  26
ENDBRANCH  17  24
TORSDOF 6
ENDMDL
