MODEL 1
REMARK VINA RESULT:      -8.2      0.000      0.000
REMARK  Name = 
REMARK  4 active torsions:
REMARK  status: ('A' for Active; 'I' for Inactive)
REMARK    1  A    between atoms: C_2  and  O_3
REMARK    2  A    between atoms: C_2  and  C_16
REMARK    3  A    between atoms: O_3  and  C_4
REMARK    4  A    between atoms: C_4  and  N_5
REMARK                            x       y       z     vdW  Elec       q    Type
REMARK                         _______ _______ _______ _____ _____    ______ ____
ROOT
ATOM      1  N   UNL     1       4.946   5.018  18.509  0.00  0.00    +0.000 N 
ATOM      2  N   UNL     1       5.550   3.971  19.145  0.00  0.00    +0.000 NA
ATOM      3  N   UNL     1       4.892   3.145  19.814  0.00  0.00    +0.000 NA
ATOM      4  C   UNL     1       3.518   3.334  19.996  0.00  0.00    +0.000 A 
ATOM      5  C   UNL     1       2.824   2.489  20.873  0.00  0.00    +0.000 A 
ATOM      6  C   UNL     1       1.454   2.658  21.098  0.00  0.00    +0.000 A 
ATOM      7  C   UNL     1       0.755   3.662  20.428  0.00  0.00    +0.000 A 
ATOM      8  C   UNL     1       1.430   4.502  19.547  0.00  0.00    +0.000 A 
ATOM      9  C   UNL     1       2.808   4.335  19.355  0.00  0.00    +0.000 A 
ATOM     10  C   UNL     1       3.585   5.249  18.526  0.00  0.00    +0.000 A 
ATOM     11  O   UNL     1       3.020   6.159  17.926  0.00  0.00    +0.000 OA
ENDROOT
BRANCH   1  12
ATOM     12  C   UNL     1       5.827   5.979  17.869  0.00  0.00    +0.000 C 
BRANCH  12  13
ATOM     13  O   UNL     1       5.938   5.644  16.469  0.00  0.00    +0.000 OA
BRANCH  13  15
ATOM     14  O   UNL     1       7.890   4.526  16.878  0.00  0.00    +0.000 OA
ATOM     15  C   UNL     1       7.047   4.942  16.106  0.00  0.00    +0.000 C 
BRANCH  15  16
ATOM     16  C   UNL     1       7.107   4.705  14.614  0.00  0.00    +0.000 C 
ATOM     17  C   UNL     1       6.246   3.817  14.101  0.00  0.00    +0.000 C 
ATOM     18  O   UNL     1       6.108   3.483  12.783  0.00  0.00    +0.000 OA
ATOM     19  C   UNL     1       7.046   4.094  11.904  0.00  0.00    +0.000 C 
ATOM     20  C   UNL     1       7.739   5.354  12.430  0.00  0.00    +0.000 C 
ATOM     21  O   UNL     1       8.000   5.411  13.836  0.00  0.00    +0.000 OA
ENDBRANCH  15  16
ENDBRANCH  13  15
ENDBRANCH  12  13
ENDBRANCH   1  12
TORSDOF 4
ENDMDL
MODEL 2
REMARK VINA RESULT:      -7.7      0.977      1.085
REMARK  Name = 
REMARK  4 active torsions:
REMARK  status: ('A' for Active; 'I' for Inactive)
REMARK    1  A    between atoms: C_2  and  O_3
REMARK    2  A    between atoms: C_2  and  C_16
REMARK    3  A    between atoms: O_3  and  C_4
REMARK    4  A    between atoms: C_4  and  N_5
REMARK                            x       y       z     vdW  Elec       q    Type
REMARK                         _______ _______ _______ _____ _____    ______ ____
ROOT
ATOM      1  N   UNL     1       5.382   4.720  19.152  0.00  0.00    +0.000 N 
ATOM      2  N   UNL     1       5.590   3.407  19.463  0.00  0.00    +0.000 NA
ATOM      3  N   UNL     1       4.653   2.666  19.833  0.00  0.00    +0.000 NA
ATOM      4  C   UNL     1       3.374   3.203  20.022  0.00  0.00    +0.000 A 
ATOM      5  C   UNL     1       2.374   2.398  20.584  0.00  0.00    +0.000 A 
ATOM      6  C   UNL     1       1.089   2.904  20.808  0.00  0.00    +0.000 A 
ATOM      7  C   UNL     1       0.783   4.216  20.449  0.00  0.00    +0.000 A 
ATOM      8  C   UNL     1       1.765   5.023  19.881  0.00  0.00    +0.000 A 
ATOM      9  C   UNL     1       3.054   4.508  19.689  0.00  0.00    +0.000 A 
ATOM     10  C   UNL     1       4.147   5.337  19.196  0.00  0.00    +0.000 A 
ATOM     11  O   UNL     1       3.934   6.503  18.880  0.00  0.00    +0.000 OA
ENDROOT
BRANCH   1  12
ATOM     12  C   UNL     1       6.565   5.508  18.856  0.00  0.00    +0.000 C 
BRANCH  12  13
ATOM     13  O   UNL     1       7.158   5.013  17.637  0.00  0.00    +0.000 OA
BRANCH  13  15
ATOM     14  O   UNL     1       7.374   7.082  16.687  0.00  0.00    +0.000 OA
ATOM     15  C   UNL     1       7.194   5.882  16.589  0.00  0.00    +0.000 C 
BRANCH  15  16
ATOM     16  C   UNL     1       7.010   5.182  15.262  0.00  0.00    +0.000 C 
ATOM     17  C   UNL     1       5.951   4.371  15.141  0.00  0.00    +0.000 C 
ATOM     18  O   UNL     1       5.581   3.675  14.024  0.00  0.00    +0.000 OA
ATOM     19  C   UNL     1       6.480   3.777  12.924  0.00  0.00    +0.000 C 
ATOM     20  C   UNL     1       7.438   4.971  12.947  0.00  0.00    +0.000 C 
ATOM     21  O   UNL     1       7.893   5.413  14.229  0.00  0.00    +0.000 OA
ENDBRANCH  15  16
ENDBRANCH  13  15
ENDBRANCH  12  13
ENDBRANCH   1  12
TORSDOF 4
ENDMDL
MODEL 3
REMARK VINA RESULT:      -7.7      1.480      1.757
REMARK  Name = 
REMARK  4 active torsions:
REMARK  status: ('A' for Active; 'I' for Inactive)
REMARK    1  A    between atoms: C_2  and  O_3
REMARK    2  A    between atoms: C_2  and  C_16
REMARK    3  A    between atoms: O_3  and  C_4
REMARK    4  A    between atoms: C_4  and  N_5
REMARK                            x       y       z     vdW  Elec       q    Type
REMARK                         _______ _______ _______ _____ _____    ______ ____
ROOT
ATOM      1  N   UNL     1       4.148   5.585  17.415  0.00  0.00    +0.000 N 
ATOM      2  N   UNL     1       3.733   6.620  18.203  0.00  0.00    +0.000 NA
ATOM      3  N   UNL     1       3.013   6.431  19.207  0.00  0.00    +0.000 NA
ATOM      4  C   UNL     1       2.540   5.145  19.491  0.00  0.00    +0.000 A 
ATOM      5  C   UNL     1       1.610   4.973  20.526  0.00  0.00    +0.000 A 
ATOM      6  C   UNL     1       1.098   3.707  20.826  0.00  0.00    +0.000 A 
ATOM      7  C   UNL     1       1.529   2.591  20.111  0.00  0.00    +0.000 A 
ATOM      8  C   UNL     1       2.460   2.746  19.087  0.00  0.00    +0.000 A 
ATOM      9  C   UNL     1       2.941   4.025  18.781  0.00  0.00    +0.000 A 
ATOM     10  C   UNL     1       3.836   4.261  17.653  0.00  0.00    +0.000 A 
ATOM     11  O   UNL     1       4.233   3.315  16.982  0.00  0.00    +0.000 OA
ENDROOT
BRANCH   1  12
ATOM     12  C   UNL     1       4.875   5.942  16.210  0.00  0.00    +0.000 C 
BRANCH  12  13
ATOM     13  O   UNL     1       6.269   6.114  16.545  0.00  0.00    +0.000 OA
BRANCH  13  15
ATOM     14  O   UNL     1       7.700   4.410  17.071  0.00  0.00    +0.000 OA
ATOM     15  C   UNL     1       7.092   5.070  16.249  0.00  0.00    +0.000 C 
BRANCH  15  16
ATOM     16  C   UNL     1       7.149   4.794  14.764  0.00  0.00    +0.000 C 
ATOM     17  C   UNL     1       6.299   3.881  14.278  0.00  0.00    +0.000 C 
ATOM     18  O   UNL     1       6.160   3.510  12.970  0.00  0.00    +0.000 OA
ATOM     19  C   UNL     1       7.087   4.111  12.071  0.00  0.00    +0.000 C 
ATOM     20  C   UNL     1       7.764   5.393  12.561  0.00  0.00    +0.000 C 
ATOM     21  O   UNL     1       8.029   5.492  13.963  0.00  0.00    +0.000 OA
ENDBRANCH  15  16
ENDBRANCH  13  15
ENDBRANCH  12  13
ENDBRANCH   1  12
TORSDOF 4
ENDMDL
MODEL 4
REMARK VINA RESULT:      -7.6      1.790      3.129
REMARK  Name = 
REMARK  4 active torsions:
REMARK  status: ('A' for Active; 'I' for Inactive)
REMARK    1  A    between atoms: C_2  and  O_3
REMARK    2  A    between atoms: C_2  and  C_16
REMARK    3  A    between atoms: O_3  and  C_4
REMARK    4  A    between atoms: C_4  and  N_5
REMARK                            x       y       z     vdW  Elec       q    Type
REMARK                         _______ _______ _______ _____ _____    ______ ____
ROOT
ATOM      1  N   UNL     1       3.927   3.647  17.484  0.00  0.00    +0.000 N 
ATOM      2  N   UNL     1       4.922   3.290  18.351  0.00  0.00    +0.000 NA
ATOM      3  N   UNL     1       4.670   2.900  19.511  0.00  0.00    +0.000 NA
ATOM      4  C   UNL     1       3.350   2.907  19.977  0.00  0.00    +0.000 A 
ATOM      5  C   UNL     1       3.101   2.616  21.325  0.00  0.00    +0.000 A 
ATOM      6  C   UNL     1       1.798   2.634  21.833  0.00  0.00    +0.000 A 
ATOM      7  C   UNL     1       0.723   2.919  20.991  0.00  0.00    +0.000 A 
ATOM      8  C   UNL     1       0.956   3.200  19.648  0.00  0.00    +0.000 A 
ATOM      9  C   UNL     1       2.270   3.205  19.162  0.00  0.00    +0.000 A 
ATOM     10  C   UNL     1       2.582   3.594  17.792  0.00  0.00    +0.000 A 
ATOM     11  O   UNL     1       1.674   3.870  17.014  0.00  0.00    +0.000 OA
ENDROOT
BRANCH   1  12
ATOM     12  C   UNL     1       4.349   4.201  16.210  0.00  0.00    +0.000 C 
BRANCH  12  13
ATOM     13  O   UNL     1       5.610   3.603  15.841  0.00  0.00    +0.000 OA
BRANCH  13  15
ATOM     14  O   UNL     1       7.058   4.580  14.365  0.00  0.00    +0.000 OA
ATOM     15  C   UNL     1       6.604   4.465  15.488  0.00  0.00    +0.000 C 
BRANCH  15  16
ATOM     16  C   UNL     1       7.073   5.301  16.657  0.00  0.00    +0.000 C 
ATOM     17  C   UNL     1       7.647   4.655  17.679  0.00  0.00    +0.000 C 
ATOM     18  O   UNL     1       8.171   5.219  18.809  0.00  0.00    +0.000 OA
ATOM     19  C   UNL     1       7.995   6.628  18.918  0.00  0.00    +0.000 C 
ATOM     20  C   UNL     1       7.698   7.371  17.613  0.00  0.00    +0.000 C 
ATOM     21  O   UNL     1       6.930   6.673  16.629  0.00  0.00    +0.000 OA
ENDBRANCH  15  16
ENDBRANCH  13  15
ENDBRANCH  12  13
ENDBRANCH   1  12
TORSDOF 4
ENDMDL
MODEL 5
REMARK VINA RESULT:      -7.5      2.145      6.802
REMARK  Name = 
REMARK  4 active torsions:
REMARK  status: ('A' for Active; 'I' for Inactive)
REMARK    1  A    between atoms: C_2  and  O_3
REMARK    2  A    between atoms: C_2  and  C_16
REMARK    3  A    between atoms: O_3  and  C_4
REMARK    4  A    between atoms: C_4  and  N_5
REMARK                            x       y       z     vdW  Elec       q    Type
REMARK                         _______ _______ _______ _____ _____    ______ ____
ROOT
ATOM      1  N   UNL     1       6.092   4.787  16.914  0.00  0.00    +0.000 N 
ATOM      2  N   UNL     1       7.174   5.578  16.650  0.00  0.00    +0.000 NA
ATOM      3  N   UNL     1       7.615   5.716  15.488  0.00  0.00    +0.000 NA
ATOM      4  C   UNL     1       7.052   4.981  14.438  0.00  0.00    +0.000 A 
ATOM      5  C   UNL     1       7.655   5.028  13.174  0.00  0.00    +0.000 A 
ATOM      6  C   UNL     1       7.135   4.292  12.104  0.00  0.00    +0.000 A 
ATOM      7  C   UNL     1       5.989   3.518  12.281  0.00  0.00    +0.000 A 
ATOM      8  C   UNL     1       5.375   3.470  13.529  0.00  0.00    +0.000 A 
ATOM      9  C   UNL     1       5.925   4.192  14.596  0.00  0.00    +0.000 A 
ATOM     10  C   UNL     1       5.387   4.097  15.948  0.00  0.00    +0.000 A 
ATOM     11  O   UNL     1       4.388   3.417  16.160  0.00  0.00    +0.000 OA
ENDROOT
BRANCH   1  12
ATOM     12  C   UNL     1       5.751   4.607  18.314  0.00  0.00    +0.000 C 
BRANCH  12  13
ATOM     13  O   UNL     1       5.174   5.833  18.811  0.00  0.00    +0.000 OA
BRANCH  13  15
ATOM     14  O   UNL     1       3.581   6.926  17.587  0.00  0.00    +0.000 OA
ATOM     15  C   UNL     1       3.896   6.098  18.421  0.00  0.00    +0.000 C 
BRANCH  15  16
ATOM     16  C   UNL     1       2.891   5.216  19.128  0.00  0.00    +0.000 C 
ATOM     17  C   UNL     1       2.019   4.549  18.363  0.00  0.00    +0.000 C 
ATOM     18  O   UNL     1       1.059   3.675  18.794  0.00  0.00    +0.000 OA
ATOM     19  C   UNL     1       0.945   3.552  20.208  0.00  0.00    +0.000 C 
ATOM     20  C   UNL     1       2.160   4.004  21.022  0.00  0.00    +0.000 C 
ATOM     21  O   UNL     1       2.918   5.101  20.502  0.00  0.00    +0.000 OA
ENDBRANCH  15  16
ENDBRANCH  13  15
ENDBRANCH  12  13
ENDBRANCH   1  12
TORSDOF 4
ENDMDL
MODEL 6
REMARK VINA RESULT:      -7.4      2.143      6.929
REMARK  Name = 
REMARK  4 active torsions:
REMARK  status: ('A' for Active; 'I' for Inactive)
REMARK    1  A    between atoms: C_2  and  O_3
REMARK    2  A    between atoms: C_2  and  C_16
REMARK    3  A    between atoms: O_3  and  C_4
REMARK    4  A    between atoms: C_4  and  N_5
REMARK                            x       y       z     vdW  Elec       q    Type
REMARK                         _______ _______ _______ _____ _____    ______ ____
ROOT
ATOM      1  N   UNL     1       5.889   4.778  17.136  0.00  0.00    +0.000 N 
ATOM      2  N   UNL     1       6.991   5.566  16.963  0.00  0.00    +0.000 NA
ATOM      3  N   UNL     1       7.504   5.734  15.835  0.00  0.00    +0.000 NA
ATOM      4  C   UNL     1       7.003   5.036  14.731  0.00  0.00    +0.000 A 
ATOM      5  C   UNL     1       7.683   5.115  13.508  0.00  0.00    +0.000 A 
ATOM      6  C   UNL     1       7.225   4.414  12.387  0.00  0.00    +0.000 A 
ATOM      7  C   UNL     1       6.065   3.645  12.469  0.00  0.00    +0.000 A 
ATOM      8  C   UNL     1       5.375   3.566  13.676  0.00  0.00    +0.000 A 
ATOM      9  C   UNL     1       5.863   4.252  14.796  0.00  0.00    +0.000 A 
ATOM     10  C   UNL     1       5.241   4.122  16.108  0.00  0.00    +0.000 A 
ATOM     11  O   UNL     1       4.226   3.445  16.238  0.00  0.00    +0.000 OA
ENDROOT
BRANCH   1  12
ATOM     12  C   UNL     1       5.461   4.560  18.506  0.00  0.00    +0.000 C 
BRANCH  12  13
ATOM     13  O   UNL     1       4.768   5.739  18.967  0.00  0.00    +0.000 OA
BRANCH  13  15
ATOM     14  O   UNL     1       2.920   6.613  17.941  0.00  0.00    +0.000 OA
ATOM     15  C   UNL     1       3.436   5.801  18.687  0.00  0.00    +0.000 C 
BRANCH  15  16
ATOM     16  C   UNL     1       2.655   4.716  19.391  0.00  0.00    +0.000 C 
ATOM     17  C   UNL     1       2.616   4.761  20.729  0.00  0.00    +0.000 C 
ATOM     18  O   UNL     1       1.941   3.906  21.555  0.00  0.00    +0.000 OA
ATOM     19  C   UNL     1       1.295   2.819  20.900  0.00  0.00    +0.000 C 
ATOM     20  C   UNL     1       1.032   2.997  19.402  0.00  0.00    +0.000 C 
ATOM     21  O   UNL     1       1.994   3.752  18.660  0.00  0.00    +0.000 OA
ENDBRANCH  15  16
ENDBRANCH  13  15
ENDBRANCH  12  13
ENDBRANCH   1  12
TORSDOF 4
ENDMDL
MODEL 7
REMARK VINA RESULT:      -7.4      1.819      3.256
REMARK  Name = 
REMARK  4 active torsions:
REMARK  status: ('A' for Active; 'I' for Inactive)
REMARK    1  A    between atoms: C_2  and  O_3
REMARK    2  A    between atoms: C_2  and  C_16
REMARK    3  A    between atoms: O_3  and  C_4
REMARK    4  A    between atoms: C_4  and  N_5
REMARK                            x       y       z     vdW  Elec       q    Type
REMARK                         _______ _______ _______ _____ _____    ______ ____
ROOT
ATOM      1  N   UNL     1       4.094   3.554  17.477  0.00  0.00    +0.000 N 
ATOM      2  N   UNL     1       5.043   3.337  18.436  0.00  0.00    +0.000 NA
ATOM      3  N   UNL     1       4.732   3.024  19.605  0.00  0.00    +0.000 NA
ATOM      4  C   UNL     1       3.384   2.978  19.978  0.00  0.00    +0.000 A 
ATOM      5  C   UNL     1       3.056   2.779  21.326  0.00  0.00    +0.000 A 
ATOM      6  C   UNL     1       1.721   2.747  21.742  0.00  0.00    +0.000 A 
ATOM      7  C   UNL     1       0.695   2.890  20.808  0.00  0.00    +0.000 A 
ATOM      8  C   UNL     1       1.007   3.079  19.464  0.00  0.00    +0.000 A 
ATOM      9  C   UNL     1       2.350   3.135  19.070  0.00  0.00    +0.000 A 
ATOM     10  C   UNL     1       2.736   3.434  17.696  0.00  0.00    +0.000 A 
ATOM     11  O   UNL     1       1.872   3.584  16.839  0.00  0.00    +0.000 OA
ENDROOT
BRANCH   1  12
ATOM     12  C   UNL     1       4.572   4.033  16.193  0.00  0.00    +0.000 C 
BRANCH  12  13
ATOM     13  O   UNL     1       5.948   3.626  16.030  0.00  0.00    +0.000 OA
BRANCH  13  15
ATOM     14  O   UNL     1       7.143   4.729  14.423  0.00  0.00    +0.000 OA
ATOM     15  C   UNL     1       6.809   4.583  15.584  0.00  0.00    +0.000 C 
BRANCH  15  16
ATOM     16  C   UNL     1       7.293   5.479  16.700  0.00  0.00    +0.000 C 
ATOM     17  C   UNL     1       7.208   6.800  16.504  0.00  0.00    +0.000 C 
ATOM     18  O   UNL     1       7.553   7.781  17.393  0.00  0.00    +0.000 OA
ATOM     19  C   UNL     1       8.139   7.317  18.605  0.00  0.00    +0.000 C 
ATOM     20  C   UNL     1       7.877   5.851  18.961  0.00  0.00    +0.000 C 
ATOM     21  O   UNL     1       7.768   4.929  17.873  0.00  0.00    +0.000 OA
ENDBRANCH  15  16
ENDBRANCH  13  15
ENDBRANCH  12  13
ENDBRANCH   1  12
TORSDOF 4
ENDMDL
MODEL 8
REMARK VINA RESULT:      -7.4      1.240      1.278
REMARK  Name = 
REMARK  4 active torsions:
REMARK  status: ('A' for Active; 'I' for Inactive)
REMARK    1  A    between atoms: C_2  and  O_3
REMARK    2  A    between atoms: C_2  and  C_16
REMARK    3  A    between atoms: O_3  and  C_4
REMARK    4  A    between atoms: C_4  and  N_5
REMARK                            x       y       z     vdW  Elec       q    Type
REMARK                         _______ _______ _______ _____ _____    ______ ____
ROOT
ATOM      1  N   UNL     1       4.366   3.553  17.728  0.00  0.00    +0.000 N 
ATOM      2  N   UNL     1       5.209   3.339  18.781  0.00  0.00    +0.000 NA
ATOM      3  N   UNL     1       4.777   3.019  19.910  0.00  0.00    +0.000 NA
ATOM      4  C   UNL     1       3.398   2.961  20.136  0.00  0.00    +0.000 A 
ATOM      5  C   UNL     1       2.929   2.753  21.441  0.00  0.00    +0.000 A 
ATOM      6  C   UNL     1       1.558   2.710  21.711  0.00  0.00    +0.000 A 
ATOM      7  C   UNL     1       0.636   2.849  20.674  0.00  0.00    +0.000 A 
ATOM      8  C   UNL     1       1.088   3.046  19.372  0.00  0.00    +0.000 A 
ATOM      9  C   UNL     1       2.465   3.114  19.124  0.00  0.00    +0.000 A 
ATOM     10  C   UNL     1       2.993   3.422  17.800  0.00  0.00    +0.000 A 
ATOM     11  O   UNL     1       2.224   3.569  16.855  0.00  0.00    +0.000 OA
ENDROOT
BRANCH   1  12
ATOM     12  C   UNL     1       4.975   4.041  16.503  0.00  0.00    +0.000 C 
BRANCH  12  13
ATOM     13  O   UNL     1       6.391   4.206  16.724  0.00  0.00    +0.000 OA
BRANCH  13  15
ATOM     14  O   UNL     1       7.412   6.242  16.513  0.00  0.00    +0.000 OA
ATOM     15  C   UNL     1       6.996   5.207  16.026  0.00  0.00    +0.000 C 
BRANCH  15  16
ATOM     16  C   UNL     1       7.125   4.878  14.556  0.00  0.00    +0.000 C 
ATOM     17  C   UNL     1       6.305   3.940  14.065  0.00  0.00    +0.000 C 
ATOM     18  O   UNL     1       6.230   3.522  12.766  0.00  0.00    +0.000 OA
ATOM     19  C   UNL     1       7.193   4.098  11.890  0.00  0.00    +0.000 C 
ATOM     20  C   UNL     1       7.838   5.403  12.364  0.00  0.00    +0.000 C 
ATOM     21  O   UNL     1       8.037   5.554  13.772  0.00  0.00    +0.000 OA
ENDBRANCH  15  16
ENDBRANCH  13  15
ENDBRANCH  12  13
ENDBRANCH   1  12
TORSDOF 4
ENDMDL
MODEL 9
REMARK VINA RESULT:      -7.3      2.071      3.586
REMARK  Name = 
REMARK  4 active torsions:
REMARK  status: ('A' for Active; 'I' for Inactive)
REMARK    1  A    between atoms: C_2  and  O_3
REMARK    2  A    between atoms: C_2  and  C_16
REMARK    3  A    between atoms: O_3  and  C_4
REMARK    4  A    between atoms: C_4  and  N_5
REMARK                            x       y       z     vdW  Elec       q    Type
REMARK                         _______ _______ _______ _____ _____    ______ ____
ROOT
ATOM      1  N   UNL     1       3.742   3.651  17.247  0.00  0.00    +0.000 N 
ATOM      2  N   UNL     1       2.431   3.695  16.865  0.00  0.00    +0.000 NA
ATOM      3  N   UNL     1       1.504   3.584  17.695  0.00  0.00    +0.000 NA
ATOM      4  C   UNL     1       1.799   3.319  19.037  0.00  0.00    +0.000 A 
ATOM      5  C   UNL     1       0.751   3.044  19.925  0.00  0.00    +0.000 A 
ATOM      6  C   UNL     1       1.006   2.753  21.269  0.00  0.00    +0.000 A 
ATOM      7  C   UNL     1       2.316   2.761  21.748  0.00  0.00    +0.000 A 
ATOM      8  C   UNL     1       3.366   3.043  20.879  0.00  0.00    +0.000 A 
ATOM      9  C   UNL     1       3.094   3.304  19.530  0.00  0.00    +0.000 A 
ATOM     10  C   UNL     1       4.159   3.502  18.554  0.00  0.00    +0.000 A 
ATOM     11  O   UNL     1       5.330   3.502  18.922  0.00  0.00    +0.000 OA
ENDROOT
BRANCH   1  12
ATOM     12  C   UNL     1       4.726   3.666  16.179  0.00  0.00    +0.000 C 
BRANCH  12  13
ATOM     13  O   UNL     1       4.959   5.035  15.785  0.00  0.00    +0.000 OA
BRANCH  13  15
ATOM     14  O   UNL     1       6.816   5.145  14.454  0.00  0.00    +0.000 OA
ATOM     15  C   UNL     1       6.251   5.369  15.508  0.00  0.00    +0.000 C 
BRANCH  15  16
ATOM     16  C   UNL     1       6.912   6.087  16.662  0.00  0.00    +0.000 C 
ATOM     17  C   UNL     1       7.463   5.329  17.619  0.00  0.00    +0.000 C 
ATOM     18  O   UNL     1       8.138   5.772  18.722  0.00  0.00    +0.000 OA
ATOM     19  C   UNL     1       8.167   7.187  18.885  0.00  0.00    +0.000 C 
ATOM     20  C   UNL     1       7.884   8.014  17.628  0.00  0.00    +0.000 C 
ATOM     21  O   UNL     1       6.959   7.465  16.685  0.00  0.00    +0.000 OA
ENDBRANCH  15  16
ENDBRANCH  13  15
ENDBRANCH  12  13
ENDBRANCH   1  12
TORSDOF 4
ENDMDL
