MODEL 1
REMARK VINA RESULT:      -7.7      0.000      0.000
REMARK  Name = 
REMARK  4 active torsions:
REMARK  status: ('A' for Active; 'I' for Inactive)
REMARK    1  A    between atoms: C_1  and  C_2
REMARK    2  A    between atoms: C_5  and  S_6
REMARK    3  A    between atoms: S_6  and  C_9
REMARK    4  A    between atoms: C_9  and  C_10
REMARK                            x       y       z     vdW  Elec       q    Type
REMARK                         _______ _______ _______ _____ _____    ______ ____
ROOT
ATOM      1  S   UNL     1       5.445   4.631  19.082  0.00  0.00    +0.000 S 
ATOM      2  O   UNL     1       5.225   3.224  19.358  0.00  0.00    +0.000 OA
ATOM      3  O   UNL     1       6.542   5.343  19.706  0.00  0.00    +0.000 OA
ENDROOT
BRANCH   1   8
ATOM      4  C   UNL     1       6.639   3.987  13.187  0.00  0.00    +0.000 C 
ATOM      5  C   UNL     1       6.307   4.386  14.600  0.00  0.00    +0.000 A 
ATOM      6  C   UNL     1       7.319   4.776  15.488  0.00  0.00    +0.000 A 
ATOM      7  C   UNL     1       7.045   4.958  16.851  0.00  0.00    +0.000 A 
ATOM      8  C   UNL     1       5.746   4.756  17.323  0.00  0.00    +0.000 A 
ATOM      9  C   UNL     1       4.716   4.430  16.434  0.00  0.00    +0.000 A 
ATOM     10  C   UNL     1       4.999   4.240  15.079  0.00  0.00    +0.000 A 
ENDBRANCH   1   8
BRANCH   1  11
ATOM     11  C   UNL     1       3.905   5.495  19.414  0.00  0.00    +0.000 C 
BRANCH  11  12
ATOM     12  C   UNL     1       2.894   4.483  19.918  0.00  0.00    +0.000 A 
ATOM     13  C   UNL     1       3.021   3.990  21.234  0.00  0.00    +0.000 A 
ATOM     14  C   UNL     1       2.052   3.147  21.786  0.00  0.00    +0.000 A 
ATOM     15  C   UNL     1       0.937   2.787  21.043  0.00  0.00    +0.000 A 
ATOM     16  C   UNL     1       0.806   3.234  19.729  0.00  0.00    +0.000 A 
ATOM     17  C   UNL     1       1.782   4.064  19.166  0.00  0.00    +0.000 A 
ATOM     18 CL   UNL     1       1.579   4.518  17.513  0.00  0.00    +0.000 Cl
ENDBRANCH  11  12
ENDBRANCH   1  11
TORSDOF 3
ENDMDL
MODEL 2
REMARK VINA RESULT:      -7.7      2.279      3.404
REMARK  Name = 
REMARK  4 active torsions:
REMARK  status: ('A' for Active; 'I' for Inactive)
REMARK    1  A    between atoms: C_1  and  C_2
REMARK    2  A    between atoms: C_5  and  S_6
REMARK    3  A    between atoms: S_6  and  C_9
REMARK    4  A    between atoms: C_9  and  C_10
REMARK                            x       y       z     vdW  Elec       q    Type
REMARK                         _______ _______ _______ _____ _____    ______ ____
ROOT
ATOM      1  S   UNL     1       5.109   4.350  17.719  0.00  0.00    +0.000 S 
ATOM      2  O   UNL     1       5.353   3.549  16.534  0.00  0.00    +0.000 OA
ATOM      3  O   UNL     1       5.179   3.757  19.039  0.00  0.00    +0.000 OA
ENDROOT
BRANCH   1   8
ATOM      4  C   UNL     1       8.724   9.135  18.514  0.00  0.00    +0.000 C 
ATOM      5  C   UNL     1       7.987   7.877  18.142  0.00  0.00    +0.000 A 
ATOM      6  C   UNL     1       6.995   7.896  17.151  0.00  0.00    +0.000 A 
ATOM      7  C   UNL     1       6.173   6.781  16.939  0.00  0.00    +0.000 A 
ATOM      8  C   UNL     1       6.354   5.637  17.719  0.00  0.00    +0.000 A 
ATOM      9  C   UNL     1       7.382   5.584  18.666  0.00  0.00    +0.000 A 
ATOM     10  C   UNL     1       8.191   6.703  18.879  0.00  0.00    +0.000 A 
ENDBRANCH   1   8
BRANCH   1  11
ATOM     11  C   UNL     1       3.519   5.158  17.508  0.00  0.00    +0.000 C 
BRANCH  11  12
ATOM     12  C   UNL     1       2.491   4.400  18.327  0.00  0.00    +0.000 A 
ATOM     13  C   UNL     1       2.095   3.115  17.903  0.00  0.00    +0.000 A 
ATOM     14  C   UNL     1       1.242   2.329  18.683  0.00  0.00    +0.000 A 
ATOM     15  C   UNL     1       0.776   2.803  19.901  0.00  0.00    +0.000 A 
ATOM     16  C   UNL     1       1.126   4.084  20.325  0.00  0.00    +0.000 A 
ATOM     17  C   UNL     1       1.967   4.882  19.540  0.00  0.00    +0.000 A 
ATOM     18 CL   UNL     1       2.298   6.479  20.105  0.00  0.00    +0.000 Cl
ENDBRANCH  11  12
ENDBRANCH   1  11
TORSDOF 3
ENDMDL
MODEL 3
REMARK VINA RESULT:      -7.6      1.196      1.338
REMARK  Name = 
REMARK  4 active torsions:
REMARK  status: ('A' for Active; 'I' for Inactive)
REMARK    1  A    between atoms: C_1  and  C_2
REMARK    2  A    between atoms: C_5  and  S_6
REMARK    3  A    between atoms: S_6  and  C_9
REMARK    4  A    between atoms: C_9  and  C_10
REMARK                            x       y       z     vdW  Elec       q    Type
REMARK                         _______ _______ _______ _____ _____    ______ ____
ROOT
ATOM      1  S   UNL     1       5.296   4.937  19.103  0.00  0.00    +0.000 S 
ATOM      2  O   UNL     1       6.453   5.217  19.934  0.00  0.00    +0.000 OA
ATOM      3  O   UNL     1       4.107   5.760  19.192  0.00  0.00    +0.000 OA
ENDROOT
BRANCH   1   8
ATOM      4  C   UNL     1       6.667   4.516  13.226  0.00  0.00    +0.000 C 
ATOM      5  C   UNL     1       6.445   4.836  14.679  0.00  0.00    +0.000 A 
ATOM      6  C   UNL     1       7.363   4.416  15.652  0.00  0.00    +0.000 A 
ATOM      7  C   UNL     1       7.067   4.537  17.016  0.00  0.00    +0.000 A 
ATOM      8  C   UNL     1       5.848   5.094  17.407  0.00  0.00    +0.000 A 
ATOM      9  C   UNL     1       4.952   5.577  16.446  0.00  0.00    +0.000 A 
ATOM     10  C   UNL     1       5.250   5.442  15.087  0.00  0.00    +0.000 A 
ENDBRANCH   1   8
BRANCH   1  11
ATOM     11  C   UNL     1       4.853   3.215  19.353  0.00  0.00    +0.000 C 
BRANCH  11  12
ATOM     12  C   UNL     1       3.369   3.148  19.659  0.00  0.00    +0.000 A 
ATOM     13  C   UNL     1       2.950   3.155  21.006  0.00  0.00    +0.000 A 
ATOM     14  C   UNL     1       1.593   3.213  21.338  0.00  0.00    +0.000 A 
ATOM     15  C   UNL     1       0.632   3.273  20.340  0.00  0.00    +0.000 A 
ATOM     16  C   UNL     1       1.021   3.233  19.001  0.00  0.00    +0.000 A 
ATOM     17  C   UNL     1       2.377   3.158  18.663  0.00  0.00    +0.000 A 
ATOM     18 CL   UNL     1       2.769   3.044  16.986  0.00  0.00    +0.000 Cl
ENDBRANCH  11  12
ENDBRANCH   1  11
TORSDOF 3
ENDMDL
MODEL 4
REMARK VINA RESULT:      -7.6      2.273      3.286
REMARK  Name = 
REMARK  4 active torsions:
REMARK  status: ('A' for Active; 'I' for Inactive)
REMARK    1  A    between atoms: C_1  and  C_2
REMARK    2  A    between atoms: C_5  and  S_6
REMARK    3  A    between atoms: S_6  and  C_9
REMARK    4  A    between atoms: C_9  and  C_10
REMARK                            x       y       z     vdW  Elec       q    Type
REMARK                         _______ _______ _______ _____ _____    ______ ____
ROOT
ATOM      1  S   UNL     1       5.353   4.365  17.679  0.00  0.00    +0.000 S 
ATOM      2  O   UNL     1       5.627   3.599  16.477  0.00  0.00    +0.000 OA
ATOM      3  O   UNL     1       5.476   3.754  18.987  0.00  0.00    +0.000 OA
ENDROOT
BRANCH   1   8
ATOM      4  C   UNL     1       8.682   9.349  18.498  0.00  0.00    +0.000 C 
ATOM      5  C   UNL     1       8.019   8.052  18.120  0.00  0.00    +0.000 A 
ATOM      6  C   UNL     1       7.027   8.018  17.130  0.00  0.00    +0.000 A 
ATOM      7  C   UNL     1       6.271   6.858  16.913  0.00  0.00    +0.000 A 
ATOM      8  C   UNL     1       6.520   5.722  17.685  0.00  0.00    +0.000 A 
ATOM      9  C   UNL     1       7.551   5.724  18.631  0.00  0.00    +0.000 A 
ATOM     10  C   UNL     1       8.293   6.888  18.850  0.00  0.00    +0.000 A 
ENDBRANCH   1   8
BRANCH   1  11
ATOM     11  C   UNL     1       3.715   5.081  17.504  0.00  0.00    +0.000 C 
BRANCH  11  12
ATOM     12  C   UNL     1       2.862   4.598  18.662  0.00  0.00    +0.000 A 
ATOM     13  C   UNL     1       2.641   5.464  19.753  0.00  0.00    +0.000 A 
ATOM     14  C   UNL     1       1.770   5.113  20.788  0.00  0.00    +0.000 A 
ATOM     15  C   UNL     1       1.097   3.901  20.751  0.00  0.00    +0.000 A 
ATOM     16  C   UNL     1       1.325   3.013  19.700  0.00  0.00    +0.000 A 
ATOM     17  C   UNL     1       2.209   3.353  18.670  0.00  0.00    +0.000 A 
ATOM     18 CL   UNL     1       2.486   2.172  17.442  0.00  0.00    +0.000 Cl
ENDBRANCH  11  12
ENDBRANCH   1  11
TORSDOF 3
ENDMDL
MODEL 5
REMARK VINA RESULT:      -7.3      1.414      1.967
REMARK  Name = 
REMARK  4 active torsions:
REMARK  status: ('A' for Active; 'I' for Inactive)
REMARK    1  A    between atoms: C_1  and  C_2
REMARK    2  A    between atoms: C_5  and  S_6
REMARK    3  A    between atoms: S_6  and  C_9
REMARK    4  A    between atoms: C_9  and  C_10
REMARK                            x       y       z     vdW  Elec       q    Type
REMARK                         _______ _______ _______ _____ _____    ______ ____
ROOT
ATOM      1  S   UNL     1       5.299   4.864  19.153  0.00  0.00    +0.000 S 
ATOM      2  O   UNL     1       6.493   5.351  19.818  0.00  0.00    +0.000 OA
ATOM      3  O   UNL     1       4.124   5.703  19.037  0.00  0.00    +0.000 OA
ENDROOT
BRANCH   1   8
ATOM      4  C   UNL     1       6.881   4.684  13.317  0.00  0.00    +0.000 C 
ATOM      5  C   UNL     1       6.509   4.483  14.762  0.00  0.00    +0.000 A 
ATOM      6  C   UNL     1       5.171   4.307  15.138  0.00  0.00    +0.000 A 
ATOM      7  C   UNL     1       4.799   4.317  16.489  0.00  0.00    +0.000 A 
ATOM      8  C   UNL     1       5.778   4.494  17.469  0.00  0.00    +0.000 A 
ATOM      9  C   UNL     1       7.125   4.605  17.108  0.00  0.00    +0.000 A 
ATOM     10  C   UNL     1       7.487   4.605  15.758  0.00  0.00    +0.000 A 
ENDBRANCH   1   8
BRANCH   1  11
ATOM     11  C   UNL     1       4.848   3.306  19.926  0.00  0.00    +0.000 C 
BRANCH  11  12
ATOM     12  C   UNL     1       3.339   3.164  19.858  0.00  0.00    +0.000 A 
ATOM     13  C   UNL     1       2.545   3.895  20.766  0.00  0.00    +0.000 A 
ATOM     14  C   UNL     1       1.150   3.890  20.670  0.00  0.00    +0.000 A 
ATOM     15  C   UNL     1       0.523   3.167  19.667  0.00  0.00    +0.000 A 
ATOM     16  C   UNL     1       1.285   2.409  18.779  0.00  0.00    +0.000 A 
ATOM     17  C   UNL     1       2.681   2.396  18.881  0.00  0.00    +0.000 A 
ATOM     18 CL   UNL     1       3.546   1.381  17.787  0.00  0.00    +0.000 Cl
ENDBRANCH  11  12
ENDBRANCH   1  11
TORSDOF 3
ENDMDL
MODEL 6
REMARK VINA RESULT:      -7.3      2.498      3.414
REMARK  Name = 
REMARK  4 active torsions:
REMARK  status: ('A' for Active; 'I' for Inactive)
REMARK    1  A    between atoms: C_1  and  C_2
REMARK    2  A    between atoms: C_5  and  S_6
REMARK    3  A    between atoms: S_6  and  C_9
REMARK    4  A    between atoms: C_9  and  C_10
REMARK                            x       y       z     vdW  Elec       q    Type
REMARK                         _______ _______ _______ _____ _____    ______ ____
ROOT
ATOM      1  S   UNL     1       4.977   4.612  17.629  0.00  0.00    +0.000 S 
ATOM      2  O   UNL     1       3.729   5.318  17.405  0.00  0.00    +0.000 OA
ATOM      3  O   UNL     1       5.434   3.605  16.693  0.00  0.00    +0.000 OA
ENDROOT
BRANCH   1   8
ATOM      4  C   UNL     1       8.787   9.227  18.516  0.00  0.00    +0.000 C 
ATOM      5  C   UNL     1       7.990   8.017  18.110  0.00  0.00    +0.000 A 
ATOM      6  C   UNL     1       6.952   8.126  17.174  0.00  0.00    +0.000 A 
ATOM      7  C   UNL     1       6.083   7.052  16.940  0.00  0.00    +0.000 A 
ATOM      8  C   UNL     1       6.263   5.857  17.640  0.00  0.00    +0.000 A 
ATOM      9  C   UNL     1       7.335   5.716  18.528  0.00  0.00    +0.000 A 
ATOM     10  C   UNL     1       8.191   6.795  18.765  0.00  0.00    +0.000 A 
ENDBRANCH   1   8
BRANCH   1  11
ATOM     11  C   UNL     1       4.912   3.909  19.281  0.00  0.00    +0.000 C 
BRANCH  11  12
ATOM     12  C   UNL     1       3.460   3.635  19.621  0.00  0.00    +0.000 A 
ATOM     13  C   UNL     1       2.743   4.591  20.371  0.00  0.00    +0.000 A 
ATOM     14  C   UNL     1       1.374   4.441  20.610  0.00  0.00    +0.000 A 
ATOM     15  C   UNL     1       0.693   3.344  20.102  0.00  0.00    +0.000 A 
ATOM     16  C   UNL     1       1.387   2.368  19.387  0.00  0.00    +0.000 A 
ATOM     17  C   UNL     1       2.762   2.506  19.159  0.00  0.00    +0.000 A 
ATOM     18 CL   UNL     1       3.557   1.222  18.324  0.00  0.00    +0.000 Cl
ENDBRANCH  11  12
ENDBRANCH   1  11
TORSDOF 3
ENDMDL
MODEL 7
REMARK VINA RESULT:      -7.3      1.331      1.845
REMARK  Name = 
REMARK  4 active torsions:
REMARK  status: ('A' for Active; 'I' for Inactive)
REMARK    1  A    between atoms: C_1  and  C_2
REMARK    2  A    between atoms: C_5  and  S_6
REMARK    3  A    between atoms: S_6  and  C_9
REMARK    4  A    between atoms: C_9  and  C_10
REMARK                            x       y       z     vdW  Elec       q    Type
REMARK                         _______ _______ _______ _____ _____    ______ ____
ROOT
ATOM      1  S   UNL     1       5.014   4.292  17.942  0.00  0.00    +0.000 S 
ATOM      2  O   UNL     1       6.012   4.117  18.981  0.00  0.00    +0.000 OA
ATOM      3  O   UNL     1       4.199   5.489  17.895  0.00  0.00    +0.000 OA
ENDROOT
BRANCH   1   8
ATOM      4  C   UNL     1       7.642   5.223  12.573  0.00  0.00    +0.000 C 
ATOM      5  C   UNL     1       7.093   4.768  13.899  0.00  0.00    +0.000 A 
ATOM      6  C   UNL     1       5.846   4.132  13.975  0.00  0.00    +0.000 A 
ATOM      7  C   UNL     1       5.243   3.885  15.216  0.00  0.00    +0.000 A 
ATOM      8  C   UNL     1       5.900   4.268  16.387  0.00  0.00    +0.000 A 
ATOM      9  C   UNL     1       7.174   4.844  16.325  0.00  0.00    +0.000 A 
ATOM     10  C   UNL     1       7.764   5.098  15.084  0.00  0.00    +0.000 A 
ENDBRANCH   1   8
BRANCH   1  11
ATOM     11  C   UNL     1       3.952   2.844  17.963  0.00  0.00    +0.000 C 
BRANCH  11  12
ATOM     12  C   UNL     1       2.985   2.983  19.123  0.00  0.00    +0.000 A 
ATOM     13  C   UNL     1       3.361   2.485  20.388  0.00  0.00    +0.000 A 
ATOM     14  C   UNL     1       2.558   2.692  21.513  0.00  0.00    +0.000 A 
ATOM     15  C   UNL     1       1.373   3.405  21.402  0.00  0.00    +0.000 A 
ATOM     16  C   UNL     1       0.963   3.879  20.157  0.00  0.00    +0.000 A 
ATOM     17  C   UNL     1       1.756   3.659  19.023  0.00  0.00    +0.000 A 
ATOM     18 CL   UNL     1       1.145   4.219  17.510  0.00  0.00    +0.000 Cl
ENDBRANCH  11  12
ENDBRANCH   1  11
TORSDOF 3
ENDMDL
MODEL 8
REMARK VINA RESULT:      -7.2      2.363      3.565
REMARK  Name = 
REMARK  4 active torsions:
REMARK  status: ('A' for Active; 'I' for Inactive)
REMARK    1  A    between atoms: C_1  and  C_2
REMARK    2  A    between atoms: C_5  and  S_6
REMARK    3  A    between atoms: S_6  and  C_9
REMARK    4  A    between atoms: C_9  and  C_10
REMARK                            x       y       z     vdW  Elec       q    Type
REMARK                         _______ _______ _______ _____ _____    ______ ____
ROOT
ATOM      1  S   UNL     1       5.271   4.325  18.277  0.00  0.00    +0.000 S 
ATOM      2  O   UNL     1       6.174   4.399  17.143  0.00  0.00    +0.000 OA
ATOM      3  O   UNL     1       5.786   4.155  19.620  0.00  0.00    +0.000 OA
ENDROOT
BRANCH   1   8
ATOM      4  C   UNL     1       1.424   8.987  18.027  0.00  0.00    +0.000 C 
ATOM      5  C   UNL     1       2.544   7.992  18.173  0.00  0.00    +0.000 A 
ATOM      6  C   UNL     1       3.417   7.738  17.106  0.00  0.00    +0.000 A 
ATOM      7  C   UNL     1       4.333   6.678  17.168  0.00  0.00    +0.000 A 
ATOM      8  C   UNL     1       4.380   5.877  18.310  0.00  0.00    +0.000 A 
ATOM      9  C   UNL     1       3.559   6.162  19.406  0.00  0.00    +0.000 A 
ATOM     10  C   UNL     1       2.641   7.214  19.334  0.00  0.00    +0.000 A 
ENDBRANCH   1   8
BRANCH   1  11
ATOM     11  C   UNL     1       4.069   3.037  17.929  0.00  0.00    +0.000 C 
BRANCH  11  12
ATOM     12  C   UNL     1       3.052   3.023  19.054  0.00  0.00    +0.000 A 
ATOM     13  C   UNL     1       3.421   2.474  20.300  0.00  0.00    +0.000 A 
ATOM     14  C   UNL     1       2.563   2.542  21.401  0.00  0.00    +0.000 A 
ATOM     15  C   UNL     1       1.329   3.164  21.286  0.00  0.00    +0.000 A 
ATOM     16  C   UNL     1       0.927   3.684  20.055  0.00  0.00    +0.000 A 
ATOM     17  C   UNL     1       1.776   3.603  18.945  0.00  0.00    +0.000 A 
ATOM     18 CL   UNL     1       1.177   4.210  17.445  0.00  0.00    +0.000 Cl
ENDBRANCH  11  12
ENDBRANCH   1  11
TORSDOF 3
ENDMDL
MODEL 9
REMARK VINA RESULT:      -7.2      2.300      3.441
REMARK  Name = 
REMARK  4 active torsions:
REMARK  status: ('A' for Active; 'I' for Inactive)
REMARK    1  A    between atoms: C_1  and  C_2
REMARK    2  A    between atoms: C_5  and  S_6
REMARK    3  A    between atoms: S_6  and  C_9
REMARK    4  A    between atoms: C_9  and  C_10
REMARK                            x       y       z     vdW  Elec       q    Type
REMARK                         _______ _______ _______ _____ _____    ______ ____
ROOT
ATOM      1  S   UNL     1       3.685   2.817  18.452  0.00  0.00    +0.000 S 
ATOM      2  O   UNL     1       3.814   1.722  17.510  0.00  0.00    +0.000 OA
ATOM      3  O   UNL     1       3.763   2.578  19.879  0.00  0.00    +0.000 OA
ENDROOT
BRANCH   1   8
ATOM      4  C   UNL     1       7.477   7.410  17.394  0.00  0.00    +0.000 C 
ATOM      5  C   UNL     1       6.730   6.123  17.618  0.00  0.00    +0.000 A 
ATOM      6  C   UNL     1       6.092   5.472  16.553  0.00  0.00    +0.000 A 
ATOM      7  C   UNL     1       5.235   4.388  16.786  0.00  0.00    +0.000 A 
ATOM      8  C   UNL     1       5.026   3.947  18.094  0.00  0.00    +0.000 A 
ATOM      9  C   UNL     1       5.708   4.548  19.158  0.00  0.00    +0.000 A 
ATOM     10  C   UNL     1       6.552   5.635  18.919  0.00  0.00    +0.000 A 
ENDBRANCH   1   8
BRANCH   1  11
ATOM     11  C   UNL     1       2.156   3.681  18.073  0.00  0.00    +0.000 C 
BRANCH  11  12
ATOM     12  C   UNL     1       2.162   5.003  18.815  0.00  0.00    +0.000 A 
ATOM     13  C   UNL     1       2.567   6.167  18.129  0.00  0.00    +0.000 A 
ATOM     14  C   UNL     1       2.480   7.426  18.731  0.00  0.00    +0.000 A 
ATOM     15  C   UNL     1       1.982   7.550  20.020  0.00  0.00    +0.000 A 
ATOM     16  C   UNL     1       1.607   6.410  20.730  0.00  0.00    +0.000 A 
ATOM     17  C   UNL     1       1.708   5.145  20.138  0.00  0.00    +0.000 A 
ATOM     18 CL   UNL     1       1.287   3.781  21.108  0.00  0.00    +0.000 Cl
ENDBRANCH  11  12
ENDBRANCH   1  11
TORSDOF 3
ENDMDL
