MODEL 1
REMARK VINA RESULT:      -9.1      0.000      0.000
REMARK  Name = 
REMARK  0 active torsions:
REMARK  status: ('A' for Active; 'I' for Inactive)
REMARK                            x       y       z     vdW  Elec       q    Type
REMARK                         _______ _______ _______ _____ _____    ______ ____
ROOT
ATOM      1  O   UNL     1       2.224   2.943  21.950  0.00  0.00    +0.000 OA
ATOM      2  C   UNL     1       2.431   3.829  21.132  0.00  0.00    +0.000 C 
ATOM      3  C   UNL     1       3.324   3.706  19.877  0.00  0.00    +0.000 C 
ATOM      4  C   UNL     1       3.144   5.086  19.344  0.00  0.00    +0.000 A 
ATOM      5  C   UNL     1       2.296   5.884  20.143  0.00  0.00    +0.000 A 
ATOM      6  C   UNL     1       2.014   7.219  19.789  0.00  0.00    +0.000 A 
ATOM      7  C   UNL     1       1.210   8.142  20.450  0.00  0.00    +0.000 A 
ATOM      8  C   UNL     1       0.406   8.212  21.604  0.00  0.00    +0.000 A 
ATOM      9  C   UNL     1      -0.262   9.408  21.906  0.00  0.00    +0.000 A 
ATOM     10  C   UNL     1      -0.142  10.525  21.083  0.00  0.00    +0.000 A 
ATOM     11  C   UNL     1       0.648  10.488  19.933  0.00  0.00    +0.000 A 
ATOM     12  C   UNL     1       1.312   9.291  19.636  0.00  0.00    +0.000 A 
ATOM     13  N   UNL     1       2.148   9.000  18.561  0.00  0.00    +0.000 N 
ATOM     14  C   UNL     1       2.583   7.714  18.658  0.00  0.00    +0.000 A 
ATOM     15  C   UNL     1       3.411   6.950  17.870  0.00  0.00    +0.000 A 
ATOM     16  N   UNL     1       4.085   7.216  16.716  0.00  0.00    +0.000 N 
ATOM     17  C   UNL     1       4.793   6.084  16.319  0.00  0.00    +0.000 A 
ATOM     18  C   UNL     1       5.615   5.908  15.200  0.00  0.00    +0.000 A 
ATOM     19  C   UNL     1       6.218   4.661  15.025  0.00  0.00    +0.000 A 
ATOM     20  C   UNL     1       6.007   3.628  15.935  0.00  0.00    +0.000 A 
ATOM     21  C   UNL     1       5.182   3.810  17.054  0.00  0.00    +0.000 A 
ATOM     22  C   UNL     1       4.560   5.056  17.258  0.00  0.00    +0.000 A 
ATOM     23  C   UNL     1       3.707   5.660  18.177  0.00  0.00    +0.000 A 
ATOM     24  N   UNL     1       1.890   5.107  21.193  0.00  0.00    +0.000 N 
ATOM     25  H   UNL     1       2.385   9.655  17.830  0.00  0.00    +0.000 HD
ATOM     26  H   UNL     1       4.083   8.091  16.214  0.00  0.00    +0.000 HD
ATOM     27  H   UNL     1       1.277   5.398  21.936  0.00  0.00    +0.000 HD
ENDROOT
TORSDOF 0
ENDMDL
MODEL 2
REMARK VINA RESULT:      -8.9      0.631      6.080
REMARK  Name = 
REMARK  0 active torsions:
REMARK  status: ('A' for Active; 'I' for Inactive)
REMARK                            x       y       z     vdW  Elec       q    Type
REMARK                         _______ _______ _______ _____ _____    ______ ____
ROOT
ATOM      1  O   UNL     1       2.462   2.510  21.498  0.00  0.00    +0.000 OA
ATOM      2  C   UNL     1       2.551   3.537  20.841  0.00  0.00    +0.000 C 
ATOM      3  C   UNL     1       1.858   4.879  21.167  0.00  0.00    +0.000 C 
ATOM      4  C   UNL     1       2.369   5.675  20.015  0.00  0.00    +0.000 A 
ATOM      5  C   UNL     1       3.212   4.935  19.158  0.00  0.00    +0.000 A 
ATOM      6  C   UNL     1       3.785   5.529  18.016  0.00  0.00    +0.000 A 
ATOM      7  C   UNL     1       4.631   4.958  17.070  0.00  0.00    +0.000 A 
ATOM      8  C   UNL     1       5.243   3.718  16.808  0.00  0.00    +0.000 A 
ATOM      9  C   UNL     1       6.063   3.579  15.679  0.00  0.00    +0.000 A 
ATOM     10  C   UNL     1       6.279   4.648  14.814  0.00  0.00    +0.000 A 
ATOM     11  C   UNL     1       5.686   5.890  15.045  0.00  0.00    +0.000 A 
ATOM     12  C   UNL     1       4.869   6.023  16.175  0.00  0.00    +0.000 A 
ATOM     13  N   UNL     1       4.172   7.143  16.622  0.00  0.00    +0.000 N 
ATOM     14  C   UNL     1       3.500   6.835  17.765  0.00  0.00    +0.000 A 
ATOM     15  C   UNL     1       2.681   7.569  18.589  0.00  0.00    +0.000 A 
ATOM     16  N   UNL     1       2.256   8.863  18.547  0.00  0.00    +0.000 N 
ATOM     17  C   UNL     1       1.424   9.114  19.636  0.00  0.00    +0.000 A 
ATOM     18  C   UNL     1       0.769  10.301  19.986  0.00  0.00    +0.000 A 
ATOM     19  C   UNL     1      -0.017  10.294  21.141  0.00  0.00    +0.000 A 
ATOM     20  C   UNL     1      -0.143   9.143  21.915  0.00  0.00    +0.000 A 
ATOM     21  C   UNL     1       0.516   7.958  21.559  0.00  0.00    +0.000 A 
ATOM     22  C   UNL     1       1.316   7.933  20.400  0.00  0.00    +0.000 A 
ATOM     23  C   UNL     1       2.110   7.032  19.698  0.00  0.00    +0.000 A 
ATOM     24  N   UNL     1       3.300   3.672  19.678  0.00  0.00    +0.000 N 
ATOM     25  H   UNL     1       4.176   8.039  16.157  0.00  0.00    +0.000 HD
ATOM     26  H   UNL     1       2.496   9.546  17.844  0.00  0.00    +0.000 HD
ATOM     27  H   UNL     1       3.832   2.912  19.288  0.00  0.00    +0.000 HD
ENDROOT
TORSDOF 0
ENDMDL
MODEL 3
REMARK VINA RESULT:      -8.2      3.984      7.310
REMARK  Name = 
REMARK  0 active torsions:
REMARK  status: ('A' for Active; 'I' for Inactive)
REMARK                            x       y       z     vdW  Elec       q    Type
REMARK                         _______ _______ _______ _____ _____    ______ ____
ROOT
ATOM      1  O   UNL     1       8.399   6.644  19.291  0.00  0.00    +0.000 OA
ATOM      2  C   UNL     1       7.493   6.054  18.718  0.00  0.00    +0.000 C 
ATOM      3  C   UNL     1       6.191   5.548  19.376  0.00  0.00    +0.000 C 
ATOM      4  C   UNL     1       5.554   4.949  18.168  0.00  0.00    +0.000 A 
ATOM      5  C   UNL     1       6.342   5.077  17.003  0.00  0.00    +0.000 A 
ATOM      6  C   UNL     1       5.895   4.566  15.768  0.00  0.00    +0.000 A 
ATOM      7  C   UNL     1       6.532   4.601  14.532  0.00  0.00    +0.000 A 
ATOM      8  C   UNL     1       7.733   5.077  13.972  0.00  0.00    +0.000 A 
ATOM      9  C   UNL     1       7.979   4.885  12.604  0.00  0.00    +0.000 A 
ATOM     10  C   UNL     1       7.055   4.231  11.794  0.00  0.00    +0.000 A 
ATOM     11  C   UNL     1       5.855   3.746  12.319  0.00  0.00    +0.000 A 
ATOM     12  C   UNL     1       5.615   3.942  13.685  0.00  0.00    +0.000 A 
ATOM     13  N   UNL     1       4.509   3.559  14.440  0.00  0.00    +0.000 N 
ATOM     14  C   UNL     1       4.685   3.947  15.733  0.00  0.00    +0.000 A 
ATOM     15  C   UNL     1       3.906   3.815  16.858  0.00  0.00    +0.000 A 
ATOM     16  N   UNL     1       2.686   3.247  17.070  0.00  0.00    +0.000 N 
ATOM     17  C   UNL     1       2.337   3.382  18.412  0.00  0.00    +0.000 A 
ATOM     18  C   UNL     1       1.178   2.948  19.067  0.00  0.00    +0.000 A 
ATOM     19  C   UNL     1       1.068   3.209  20.434  0.00  0.00    +0.000 A 
ATOM     20  C   UNL     1       2.078   3.878  21.121  0.00  0.00    +0.000 A 
ATOM     21  C   UNL     1       3.236   4.310  20.459  0.00  0.00    +0.000 A 
ATOM     22  C   UNL     1       3.377   4.062  19.080  0.00  0.00    +0.000 A 
ATOM     23  C   UNL     1       4.302   4.293  18.066  0.00  0.00    +0.000 A 
ATOM     24  N   UNL     1       7.484   5.738  17.365  0.00  0.00    +0.000 N 
ATOM     25  H   UNL     1       3.708   3.069  14.069  0.00  0.00    +0.000 HD
ATOM     26  H   UNL     1       2.111   2.796  16.375  0.00  0.00    +0.000 HD
ATOM     27  H   UNL     1       8.243   5.978  16.750  0.00  0.00    +0.000 HD
ENDROOT
TORSDOF 0
ENDMDL
MODEL 4
REMARK VINA RESULT:      -8.1      4.109      4.989
REMARK  Name = 
REMARK  0 active torsions:
REMARK  status: ('A' for Active; 'I' for Inactive)
REMARK                            x       y       z     vdW  Elec       q    Type
REMARK                         _______ _______ _______ _____ _____    ______ ____
ROOT
ATOM      1  O   UNL     1       8.207   5.992  20.033  0.00  0.00    +0.000 OA
ATOM      2  C   UNL     1       7.412   5.545  19.219  0.00  0.00    +0.000 C 
ATOM      3  C   UNL     1       7.644   5.445  17.695  0.00  0.00    +0.000 C 
ATOM      4  C   UNL     1       6.339   4.833  17.314  0.00  0.00    +0.000 A 
ATOM      5  C   UNL     1       5.485   4.613  18.418  0.00  0.00    +0.000 A 
ATOM      6  C   UNL     1       4.208   4.043  18.243  0.00  0.00    +0.000 A 
ATOM      7  C   UNL     1       3.245   3.757  19.205  0.00  0.00    +0.000 A 
ATOM      8  C   UNL     1       3.074   3.867  20.598  0.00  0.00    +0.000 A 
ATOM      9  C   UNL     1       1.875   3.431  21.181  0.00  0.00    +0.000 A 
ATOM     10  C   UNL     1       0.854   2.891  20.404  0.00  0.00    +0.000 A 
ATOM     11  C   UNL     1       0.992   2.769  19.020  0.00  0.00    +0.000 A 
ATOM     12  C   UNL     1       2.191   3.206  18.444  0.00  0.00    +0.000 A 
ATOM     13  N   UNL     1       2.572   3.192  17.104  0.00  0.00    +0.000 N 
ATOM     14  C   UNL     1       3.824   3.712  16.981  0.00  0.00    +0.000 A 
ATOM     15  C   UNL     1       4.643   3.920  15.897  0.00  0.00    +0.000 A 
ATOM     16  N   UNL     1       4.485   3.678  14.565  0.00  0.00    +0.000 N 
ATOM     17  C   UNL     1       5.629   4.078  13.880  0.00  0.00    +0.000 A 
ATOM     18  C   UNL     1       5.901   4.015  12.508  0.00  0.00    +0.000 A 
ATOM     19  C   UNL     1       7.139   4.487  12.068  0.00  0.00    +0.000 A 
ATOM     20  C   UNL     1       8.070   5.003  12.965  0.00  0.00    +0.000 A 
ATOM     21  C   UNL     1       7.793   5.064  14.338  0.00  0.00    +0.000 A 
ATOM     22  C   UNL     1       6.553   4.596  14.813  0.00  0.00    +0.000 A 
ATOM     23  C   UNL     1       5.880   4.467  16.025  0.00  0.00    +0.000 A 
ATOM     24  N   UNL     1       6.154   5.045  19.531  0.00  0.00    +0.000 N 
ATOM     25  H   UNL     1       1.995   2.846  16.351  0.00  0.00    +0.000 HD
ATOM     26  H   UNL     1       3.671   3.272  14.127  0.00  0.00    +0.000 HD
ATOM     27  H   UNL     1       5.803   5.019  20.474  0.00  0.00    +0.000 HD
ENDROOT
TORSDOF 0
ENDMDL
MODEL 5
REMARK VINA RESULT:      -7.4      6.434      8.546
REMARK  Name = 
REMARK  0 active torsions:
REMARK  status: ('A' for Active; 'I' for Inactive)
REMARK                            x       y       z     vdW  Elec       q    Type
REMARK                         _______ _______ _______ _____ _____    ______ ____
ROOT
ATOM      1  O   UNL     1       1.407  10.310  21.948  0.00  0.00    +0.000 OA
ATOM      2  C   UNL     1       0.378  10.794  21.500  0.00  0.00    +0.000 C 
ATOM      3  C   UNL     1      -0.235  10.482  20.116  0.00  0.00    +0.000 C 
ATOM      4  C   UNL     1      -1.431  11.368  20.202  0.00  0.00    +0.000 A 
ATOM      5  C   UNL     1      -1.510  12.079  21.420  0.00  0.00    +0.000 A 
ATOM      6  C   UNL     1      -2.577  12.965  21.673  0.00  0.00    +0.000 A 
ATOM      7  C   UNL     1      -2.813  13.740  22.804  0.00  0.00    +0.000 A 
ATOM      8  C   UNL     1      -2.221  13.996  24.055  0.00  0.00    +0.000 A 
ATOM      9  C   UNL     1      -2.833  14.901  24.935  0.00  0.00    +0.000 A 
ATOM     10  C   UNL     1      -4.017  15.548  24.589  0.00  0.00    +0.000 A 
ATOM     11  C   UNL     1      -4.628  15.316  23.356  0.00  0.00    +0.000 A 
ATOM     12  C   UNL     1      -4.013  14.412  22.482  0.00  0.00    +0.000 A 
ATOM     13  N   UNL     1      -4.417  14.012  21.211  0.00  0.00    +0.000 N 
ATOM     14  C   UNL     1      -3.525  13.114  20.710  0.00  0.00    +0.000 A 
ATOM     15  C   UNL     1      -3.463  12.430  19.520  0.00  0.00    +0.000 A 
ATOM     16  N   UNL     1      -4.274  12.413  18.425  0.00  0.00    +0.000 N 
ATOM     17  C   UNL     1      -3.755  11.537  17.475  0.00  0.00    +0.000 A 
ATOM     18  C   UNL     1      -4.259  11.212  16.210  0.00  0.00    +0.000 A 
ATOM     19  C   UNL     1      -3.542  10.294  15.440  0.00  0.00    +0.000 A 
ATOM     20  C   UNL     1      -2.365   9.722  15.917  0.00  0.00    +0.000 A 
ATOM     21  C   UNL     1      -1.866  10.051  17.185  0.00  0.00    +0.000 A 
ATOM     22  C   UNL     1      -2.566  10.974  17.985  0.00  0.00    +0.000 A 
ATOM     23  C   UNL     1      -2.451  11.568  19.239  0.00  0.00    +0.000 A 
ATOM     24  N   UNL     1      -0.423  11.713  22.166  0.00  0.00    +0.000 N 
ATOM     25  H   UNL     1      -5.248  14.348  20.746  0.00  0.00    +0.000 HD
ATOM     26  H   UNL     1      -5.122  12.946  18.305  0.00  0.00    +0.000 HD
ATOM     27  H   UNL     1      -0.202  12.053  23.087  0.00  0.00    +0.000 HD
ENDROOT
TORSDOF 0
ENDMDL
MODEL 6
REMARK VINA RESULT:      -7.3      6.462     10.225
REMARK  Name = 
REMARK  0 active torsions:
REMARK  status: ('A' for Active; 'I' for Inactive)
REMARK                            x       y       z     vdW  Elec       q    Type
REMARK                         _______ _______ _______ _____ _____    ______ ____
ROOT
ATOM      1  O   UNL     1       1.363  10.358  21.650  0.00  0.00    +0.000 OA
ATOM      2  C   UNL     1       0.305  10.902  21.369  0.00  0.00    +0.000 C 
ATOM      3  C   UNL     1      -0.470  11.887  22.274  0.00  0.00    +0.000 C 
ATOM      4  C   UNL     1      -1.620  12.161  21.365  0.00  0.00    +0.000 A 
ATOM      5  C   UNL     1      -1.540  11.460  20.141  0.00  0.00    +0.000 A 
ATOM      6  C   UNL     1      -2.543  11.599  19.161  0.00  0.00    +0.000 A 
ATOM      7  C   UNL     1      -2.628  10.993  17.912  0.00  0.00    +0.000 A 
ATOM      8  C   UNL     1      -1.891  10.091  17.120  0.00  0.00    +0.000 A 
ATOM      9  C   UNL     1      -2.374   9.736  15.852  0.00  0.00    +0.000 A 
ATOM     10  C   UNL     1      -3.569  10.260  15.366  0.00  0.00    +0.000 A 
ATOM     11  C   UNL     1      -4.322  11.155  16.127  0.00  0.00    +0.000 A 
ATOM     12  C   UNL     1      -3.835  11.507  17.391  0.00  0.00    +0.000 A 
ATOM     13  N   UNL     1      -4.392  12.370  18.332  0.00  0.00    +0.000 N 
ATOM     14  C   UNL     1      -3.588  12.426  19.430  0.00  0.00    +0.000 A 
ATOM     15  C   UNL     1      -3.681  13.115  20.616  0.00  0.00    +0.000 A 
ATOM     16  N   UNL     1      -4.611  13.981  21.106  0.00  0.00    +0.000 N 
ATOM     17  C   UNL     1      -4.228  14.404  22.377  0.00  0.00    +0.000 A 
ATOM     18  C   UNL     1      -4.882  15.289  23.243  0.00  0.00    +0.000 A 
ATOM     19  C   UNL     1      -4.284  15.552  24.477  0.00  0.00    +0.000 A 
ATOM     20  C   UNL     1      -3.078  14.951  24.833  0.00  0.00    +0.000 A 
ATOM     21  C   UNL     1      -2.429  14.066  23.962  0.00  0.00    +0.000 A 
ATOM     22  C   UNL     1      -3.007  13.781  22.709  0.00  0.00    +0.000 A 
ATOM     23  C   UNL     1      -2.735  13.007  21.585  0.00  0.00    +0.000 A 
ATOM     24  N   UNL     1      -0.386  10.725  20.177  0.00  0.00    +0.000 N 
ATOM     25  H   UNL     1      -5.259  12.870  18.204  0.00  0.00    +0.000 HD
ATOM     26  H   UNL     1      -5.451  14.282  20.635  0.00  0.00    +0.000 HD
ATOM     27  H   UNL     1      -0.053  10.120  19.445  0.00  0.00    +0.000 HD
ENDROOT
TORSDOF 0
ENDMDL
MODEL 7
REMARK VINA RESULT:      -7.3      5.930      8.681
REMARK  Name = 
REMARK  0 active torsions:
REMARK  status: ('A' for Active; 'I' for Inactive)
REMARK                            x       y       z     vdW  Elec       q    Type
REMARK                         _______ _______ _______ _____ _____    ______ ____
ROOT
ATOM      1  O   UNL     1      -4.060  10.001  13.925  0.00  0.00    +0.000 OA
ATOM      2  C   UNL     1      -3.788  10.348  15.066  0.00  0.00    +0.000 C 
ATOM      3  C   UNL     1      -2.480  10.018  15.820  0.00  0.00    +0.000 C 
ATOM      4  C   UNL     1      -2.786  10.712  17.104  0.00  0.00    +0.000 A 
ATOM      5  C   UNL     1      -4.052  11.339  17.108  0.00  0.00    +0.000 A 
ATOM      6  C   UNL     1      -4.507  12.042  18.242  0.00  0.00    +0.000 A 
ATOM      7  C   UNL     1      -5.711  12.713  18.422  0.00  0.00    +0.000 A 
ATOM      8  C   UNL     1      -6.888  12.991  17.700  0.00  0.00    +0.000 A 
ATOM      9  C   UNL     1      -7.904  13.747  18.304  0.00  0.00    +0.000 A 
ATOM     10  C   UNL     1      -7.767  14.226  19.603  0.00  0.00    +0.000 A 
ATOM     11  C   UNL     1      -6.613  13.968  20.346  0.00  0.00    +0.000 A 
ATOM     12  C   UNL     1      -5.602  13.213  19.738  0.00  0.00    +0.000 A 
ATOM     13  N   UNL     1      -4.370  12.824  20.259  0.00  0.00    +0.000 N 
ATOM     14  C   UNL     1      -3.692  12.097  19.329  0.00  0.00    +0.000 A 
ATOM     15  C   UNL     1      -2.458  11.492  19.340  0.00  0.00    +0.000 A 
ATOM     16  N   UNL     1      -1.483  11.409  20.288  0.00  0.00    +0.000 N 
ATOM     17  C   UNL     1      -0.412  10.670  19.791  0.00  0.00    +0.000 A 
ATOM     18  C   UNL     1       0.794  10.338  20.420  0.00  0.00    +0.000 A 
ATOM     19  C   UNL     1       1.716   9.578  19.697  0.00  0.00    +0.000 A 
ATOM     20  C   UNL     1       1.442   9.165  18.395  0.00  0.00    +0.000 A 
ATOM     21  C   UNL     1       0.233   9.501  17.771  0.00  0.00    +0.000 A 
ATOM     22  C   UNL     1      -0.717  10.267  18.474  0.00  0.00    +0.000 A 
ATOM     23  C   UNL     1      -1.984  10.806  18.268  0.00  0.00    +0.000 A 
ATOM     24  N   UNL     1      -4.617  11.104  15.885  0.00  0.00    +0.000 N 
ATOM     25  H   UNL     1      -4.045  13.054  21.186  0.00  0.00    +0.000 HD
ATOM     26  H   UNL     1      -1.515  11.814  21.212  0.00  0.00    +0.000 HD
ATOM     27  H   UNL     1      -5.523  11.426  15.585  0.00  0.00    +0.000 HD
ENDROOT
TORSDOF 0
ENDMDL
MODEL 8
REMARK VINA RESULT:      -7.2      7.460     10.141
REMARK  Name = 
REMARK  0 active torsions:
REMARK  status: ('A' for Active; 'I' for Inactive)
REMARK                            x       y       z     vdW  Elec       q    Type
REMARK                         _______ _______ _______ _____ _____    ______ ____
ROOT
ATOM      1  O   UNL     1      -2.712  10.610  15.093  0.00  0.00    +0.000 OA
ATOM      2  C   UNL     1      -2.745  11.065  16.227  0.00  0.00    +0.000 C 
ATOM      3  C   UNL     1      -4.003  11.180  17.116  0.00  0.00    +0.000 C 
ATOM      4  C   UNL     1      -3.367  11.792  18.318  0.00  0.00    +0.000 A 
ATOM      5  C   UNL     1      -1.979  12.003  18.165  0.00  0.00    +0.000 A 
ATOM      6  C   UNL     1      -1.216  12.574  19.203  0.00  0.00    +0.000 A 
ATOM      7  C   UNL     1       0.147  12.852  19.228  0.00  0.00    +0.000 A 
ATOM      8  C   UNL     1       1.269  12.730  18.386  0.00  0.00    +0.000 A 
ATOM      9  C   UNL     1       2.522  13.162  18.842  0.00  0.00    +0.000 A 
ATOM     10  C   UNL     1       2.674  13.709  20.113  0.00  0.00    +0.000 A 
ATOM     11  C   UNL     1       1.582  13.845  20.972  0.00  0.00    +0.000 A 
ATOM     12  C   UNL     1       0.333  13.411  20.511  0.00  0.00    +0.000 A 
ATOM     13  N   UNL     1      -0.896  13.435  21.167  0.00  0.00    +0.000 N 
ATOM     14  C   UNL     1      -1.856  12.916  20.353  0.00  0.00    +0.000 A 
ATOM     15  C   UNL     1      -3.206  12.717  20.517  0.00  0.00    +0.000 A 
ATOM     16  N   UNL     1      -4.055  12.972  21.552  0.00  0.00    +0.000 N 
ATOM     17  C   UNL     1      -5.344  12.577  21.205  0.00  0.00    +0.000 A 
ATOM     18  C   UNL     1      -6.521  12.654  21.960  0.00  0.00    +0.000 A 
ATOM     19  C   UNL     1      -7.700  12.185  21.377  0.00  0.00    +0.000 A 
ATOM     20  C   UNL     1      -7.702  11.660  20.087  0.00  0.00    +0.000 A 
ATOM     21  C   UNL     1      -6.521  11.585  19.336  0.00  0.00    +0.000 A 
ATOM     22  C   UNL     1      -5.316  12.050  19.896  0.00  0.00    +0.000 A 
ATOM     23  C   UNL     1      -3.976  12.169  19.540  0.00  0.00    +0.000 A 
ATOM     24  N   UNL     1      -1.644  11.559  16.915  0.00  0.00    +0.000 N 
ATOM     25  H   UNL     1      -1.036  13.788  22.102  0.00  0.00    +0.000 HD
ATOM     26  H   UNL     1      -3.804  13.382  22.439  0.00  0.00    +0.000 HD
ATOM     27  H   UNL     1      -0.721  11.577  16.514  0.00  0.00    +0.000 HD
ENDROOT
TORSDOF 0
ENDMDL
MODEL 9
REMARK VINA RESULT:      -6.9      9.344     11.272
REMARK  Name = 
REMARK  0 active torsions:
REMARK  status: ('A' for Active; 'I' for Inactive)
REMARK                            x       y       z     vdW  Elec       q    Type
REMARK                         _______ _______ _______ _____ _____    ______ ____
ROOT
ATOM      1  O   UNL     1       5.537  16.608  19.918  0.00  0.00    +0.000 OA
ATOM      2  C   UNL     1       6.189  15.729  20.464  0.00  0.00    +0.000 C 
ATOM      3  C   UNL     1       5.950  15.183  21.889  0.00  0.00    +0.000 C 
ATOM      4  C   UNL     1       7.046  14.173  21.923  0.00  0.00    +0.000 A 
ATOM      5  C   UNL     1       7.801  14.131  20.731  0.00  0.00    +0.000 A 
ATOM      6  C   UNL     1       8.879  13.235  20.587  0.00  0.00    +0.000 A 
ATOM      7  C   UNL     1       9.723  13.058  19.496  0.00  0.00    +0.000 A 
ATOM      8  C   UNL     1       9.908  13.584  18.203  0.00  0.00    +0.000 A 
ATOM      9  C   UNL     1      10.941  13.085  17.397  0.00  0.00    +0.000 A 
ATOM     10  C   UNL     1      11.786  12.078  17.856  0.00  0.00    +0.000 A 
ATOM     11  C   UNL     1      11.630  11.536  19.133  0.00  0.00    +0.000 A 
ATOM     12  C   UNL     1      10.596  12.038  19.933  0.00  0.00    +0.000 A 
ATOM     13  N   UNL     1      10.236  11.670  21.227  0.00  0.00    +0.000 N 
ATOM     14  C   UNL     1       9.170  12.414  21.632  0.00  0.00    +0.000 A 
ATOM     15  C   UNL     1       8.445  12.442  22.799  0.00  0.00    +0.000 A 
ATOM     16  N   UNL     1       8.542  11.735  23.959  0.00  0.00    +0.000 N 
ATOM     17  C   UNL     1       7.552  12.154  24.844  0.00  0.00    +0.000 A 
ATOM     18  C   UNL     1       7.283  11.702  26.142  0.00  0.00    +0.000 A 
ATOM     19  C   UNL     1       6.221  12.292  26.829  0.00  0.00    +0.000 A 
ATOM     20  C   UNL     1       5.455  13.296  26.241  0.00  0.00    +0.000 A 
ATOM     21  C   UNL     1       5.729  13.744  24.942  0.00  0.00    +0.000 A 
ATOM     22  C   UNL     1       6.794  13.169  24.222  0.00  0.00    +0.000 A 
ATOM     23  C   UNL     1       7.399  13.292  22.975  0.00  0.00    +0.000 A 
ATOM     24  N   UNL     1       7.264  15.065  19.887  0.00  0.00    +0.000 N 
ATOM     25  H   UNL     1      10.704  10.958  21.768  0.00  0.00    +0.000 HD
ATOM     26  H   UNL     1       9.220  11.015  24.162  0.00  0.00    +0.000 HD
ATOM     27  H   UNL     1       7.589  15.271  18.956  0.00  0.00    +0.000 HD
ENDROOT
TORSDOF 0
ENDMDL
