MODEL 1
REMARK VINA RESULT:      -9.2      0.000      0.000
REMARK  Name = 
REMARK  5 active torsions:
REMARK  status: ('A' for Active; 'I' for Inactive)
REMARK    1  A    between atoms: C_1  and  C_2
REMARK    2  A    between atoms: C_5  and  N_6
REMARK    3  A    between atoms: N_13  and  C_14
REMARK    4  A    between atoms: N_13  and  C_15
REMARK    5  A    between atoms: C_19  and  C_20
REMARK                            x       y       z     vdW  Elec       q    Type
REMARK                         _______ _______ _______ _____ _____    ______ ____
ROOT
ATOM      1  N   UNL     1       8.401   8.779  18.888  0.00  0.00    +0.000 N 
ATOM      2  C   UNL     1       7.951   7.877  17.935  0.00  0.00    +0.000 C 
ATOM      3  O   UNL     1       8.138   8.046  16.735  0.00  0.00    +0.000 OA
ATOM      4  N   UNL     1       7.258   6.785  18.435  0.00  0.00    +0.000 N 
ATOM      5  C   UNL     1       6.791   5.811  17.562  0.00  0.00    +0.000 A 
ATOM      6  N   UNL     1       7.210   5.668  16.346  0.00  0.00    +0.000 NA
ATOM      7  C   UNL     1       6.630   4.751  15.505  0.00  0.00    +0.000 A 
ATOM      8  N   UNL     1       7.030   4.741  14.187  0.00  0.00    +0.000 N 
ATOM      9  C   UNL     1       8.021   5.670  13.665  0.00  0.00    +0.000 C 
ATOM     10  C   UNL     1       6.343   3.942  13.183  0.00  0.00    +0.000 C 
ATOM     11  N   UNL     1       5.716   3.917  15.915  0.00  0.00    +0.000 NA
ATOM     12  C   UNL     1       5.306   4.012  17.194  0.00  0.00    +0.000 A 
ATOM     13  N   UNL     1       4.392   3.325  17.820  0.00  0.00    +0.000 NA
ATOM     14  C   UNL     1       4.288   3.947  19.041  0.00  0.00    +0.000 A 
ATOM     15  N   UNL     1       5.166   4.959  19.244  0.00  0.00    +0.000 NA
ATOM     16  N   UNL     1       5.801   4.965  18.040  0.00  0.00    +0.000 N 
ATOM     17  H   UNL     1       8.648   8.414  19.795  0.00  0.00    +0.000 HD
ATOM     18  H   UNL     1       6.873   6.821  19.370  0.00  0.00    +0.000 HD
ENDROOT
BRANCH   1  23
ATOM     19  C   UNL     1      10.672  13.887  17.422  0.00  0.00    +0.000 C 
ATOM     20  C   UNL     1      10.077  12.565  17.817  0.00  0.00    +0.000 A 
ATOM     21  C   UNL     1       8.763  12.256  17.475  0.00  0.00    +0.000 A 
ATOM     22  C   UNL     1       8.208  11.025  17.840  0.00  0.00    +0.000 A 
ATOM     23  C   UNL     1       8.947  10.056  18.535  0.00  0.00    +0.000 A 
ATOM     24  C   UNL     1      10.257  10.379  18.901  0.00  0.00    +0.000 A 
ATOM     25  C   UNL     1      10.818  11.620  18.539  0.00  0.00    +0.000 A 
ENDBRANCH   1  23
BRANCH  14  26
ATOM     26  C   UNL     1       3.190   3.471  19.944  0.00  0.00    +0.000 A 
ATOM     27  C   UNL     1       1.872   3.885  19.800  0.00  0.00    +0.000 A 
ATOM     28  C   UNL     1       1.132   3.306  20.852  0.00  0.00    +0.000 A 
ATOM     29  C   UNL     1       2.035   2.563  21.574  0.00  0.00    +0.000 A 
ATOM     30  O   UNL     1       3.281   2.642  21.028  0.00  0.00    +0.000 OA
ENDBRANCH  14  26
TORSDOF 2
ENDMDL
MODEL 2
REMARK VINA RESULT:      -8.5      4.734      7.497
REMARK  Name = 
REMARK  5 active torsions:
REMARK  status: ('A' for Active; 'I' for Inactive)
REMARK    1  A    between atoms: C_1  and  C_2
REMARK    2  A    between atoms: C_5  and  N_6
REMARK    3  A    between atoms: N_13  and  C_14
REMARK    4  A    between atoms: N_13  and  C_15
REMARK    5  A    between atoms: C_19  and  C_20
REMARK                            x       y       z     vdW  Elec       q    Type
REMARK                         _______ _______ _______ _____ _____    ______ ____
ROOT
ATOM      1  N   UNL     1       5.517   5.850  15.145  0.00  0.00    +0.000 N 
ATOM      2  C   UNL     1       4.878   5.394  16.288  0.00  0.00    +0.000 C 
ATOM      3  O   UNL     1       4.777   4.200  16.549  0.00  0.00    +0.000 OA
ATOM      4  N   UNL     1       4.345   6.382  17.102  0.00  0.00    +0.000 N 
ATOM      5  C   UNL     1       3.710   6.027  18.285  0.00  0.00    +0.000 A 
ATOM      6  N   UNL     1       3.838   4.873  18.858  0.00  0.00    +0.000 NA
ATOM      7  C   UNL     1       3.099   4.554  19.970  0.00  0.00    +0.000 A 
ATOM      8  N   UNL     1       3.182   3.265  20.451  0.00  0.00    +0.000 N 
ATOM      9  C   UNL     1       4.003   2.247  19.815  0.00  0.00    +0.000 C 
ATOM     10  C   UNL     1       2.298   2.781  21.501  0.00  0.00    +0.000 C 
ATOM     11  N   UNL     1       2.324   5.421  20.559  0.00  0.00    +0.000 NA
ATOM     12  C   UNL     1       2.221   6.647  20.010  0.00  0.00    +0.000 A 
ATOM     13  N   UNL     1       1.493   7.660  20.387  0.00  0.00    +0.000 NA
ATOM     14  C   UNL     1       1.661   8.582  19.383  0.00  0.00    +0.000 A 
ATOM     15  N   UNL     1       2.539   8.221  18.416  0.00  0.00    +0.000 NA
ATOM     16  N   UNL     1       2.877   6.978  18.857  0.00  0.00    +0.000 N 
ATOM     17  H   UNL     1       5.976   6.746  15.194  0.00  0.00    +0.000 HD
ATOM     18  H   UNL     1       4.187   7.308  16.727  0.00  0.00    +0.000 HD
ENDROOT
BRANCH   1  23
ATOM     19  C   UNL     1       7.278   2.251  10.980  0.00  0.00    +0.000 C 
ATOM     20  C   UNL     1       6.818   3.197  12.052  0.00  0.00    +0.000 A 
ATOM     21  C   UNL     1       5.498   3.167  12.496  0.00  0.00    +0.000 A 
ATOM     22  C   UNL     1       5.067   4.046  13.495  0.00  0.00    +0.000 A 
ATOM     23  C   UNL     1       5.937   4.965  14.099  0.00  0.00    +0.000 A 
ATOM     24  C   UNL     1       7.255   5.012  13.634  0.00  0.00    +0.000 A 
ATOM     25  C   UNL     1       7.692   4.132  12.623  0.00  0.00    +0.000 A 
ENDBRANCH   1  23
BRANCH  14  26
ATOM     26  C   UNL     1       0.814   9.817  19.457  0.00  0.00    +0.000 A 
ATOM     27  C   UNL     1      -0.046  10.195  18.434  0.00  0.00    +0.000 A 
ATOM     28  C   UNL     1      -0.621  11.429  18.804  0.00  0.00    +0.000 A 
ATOM     29  C   UNL     1      -0.090  11.731  20.035  0.00  0.00    +0.000 A 
ATOM     30  O   UNL     1       0.771  10.758  20.448  0.00  0.00    +0.000 OA
ENDBRANCH  14  26
TORSDOF 2
ENDMDL
MODEL 3
REMARK VINA RESULT:      -7.9      4.675      7.437
REMARK  Name = 
REMARK  5 active torsions:
REMARK  status: ('A' for Active; 'I' for Inactive)
REMARK    1  A    between atoms: C_1  and  C_2
REMARK    2  A    between atoms: C_5  and  N_6
REMARK    3  A    between atoms: N_13  and  C_14
REMARK    4  A    between atoms: N_13  and  C_15
REMARK    5  A    between atoms: C_19  and  C_20
REMARK                            x       y       z     vdW  Elec       q    Type
REMARK                         _______ _______ _______ _____ _____    ______ ____
ROOT
ATOM      1  N   UNL     1       1.548   8.998  18.325  0.00  0.00    +0.000 N 
ATOM      2  C   UNL     1       2.068   7.770  18.703  0.00  0.00    +0.000 C 
ATOM      3  O   UNL     1       2.018   7.366  19.860  0.00  0.00    +0.000 OA
ATOM      4  N   UNL     1       2.669   7.043  17.685  0.00  0.00    +0.000 N 
ATOM      5  C   UNL     1       3.195   5.788  17.958  0.00  0.00    +0.000 A 
ATOM      6  N   UNL     1       2.905   5.094  19.011  0.00  0.00    +0.000 NA
ATOM      7  C   UNL     1       3.543   3.905  19.269  0.00  0.00    +0.000 A 
ATOM      8  N   UNL     1       3.287   3.284  20.472  0.00  0.00    +0.000 N 
ATOM      9  C   UNL     1       2.390   3.850  21.467  0.00  0.00    +0.000 C 
ATOM     10  C   UNL     1       4.053   2.128  20.915  0.00  0.00    +0.000 C 
ATOM     11  N   UNL     1       4.380   3.372  18.424  0.00  0.00    +0.000 NA
ATOM     12  C   UNL     1       4.652   4.052  17.294  0.00  0.00    +0.000 A 
ATOM     13  N   UNL     1       5.471   3.748  16.326  0.00  0.00    +0.000 NA
ATOM     14  C   UNL     1       5.463   4.862  15.522  0.00  0.00    +0.000 A 
ATOM     15  N   UNL     1       4.601   5.837  15.904  0.00  0.00    +0.000 NA
ATOM     16  N   UNL     1       4.100   5.276  17.039  0.00  0.00    +0.000 N 
ATOM     17  H   UNL     1       1.193   9.085  17.386  0.00  0.00    +0.000 HD
ATOM     18  H   UNL     1       2.951   7.512  16.835  0.00  0.00    +0.000 HD
ENDROOT
BRANCH   1  23
ATOM     19  C   UNL     1      -0.355  12.923  22.117  0.00  0.00    +0.000 C 
ATOM     20  C   UNL     1       0.152  11.901  21.140  0.00  0.00    +0.000 A 
ATOM     21  C   UNL     1      -0.216  10.564  21.267  0.00  0.00    +0.000 A 
ATOM     22  C   UNL     1       0.254   9.611  20.357  0.00  0.00    +0.000 A 
ATOM     23  C   UNL     1       1.084   9.959  19.282  0.00  0.00    +0.000 A 
ATOM     24  C   UNL     1       1.475  11.297  19.172  0.00  0.00    +0.000 A 
ATOM     25  C   UNL     1       1.008  12.260  20.089  0.00  0.00    +0.000 A 
ENDBRANCH   1  23
BRANCH  14  26
ATOM     26  C   UNL     1       6.441   4.876  14.386  0.00  0.00    +0.000 A 
ATOM     27  C   UNL     1       6.286   4.084  13.256  0.00  0.00    +0.000 A 
ATOM     28  C   UNL     1       7.415   4.294  12.438  0.00  0.00    +0.000 A 
ATOM     29  C   UNL     1       8.191   5.210  13.105  0.00  0.00    +0.000 A 
ATOM     30  O   UNL     1       7.609   5.581  14.281  0.00  0.00    +0.000 OA
ENDBRANCH  14  26
TORSDOF 2
ENDMDL
MODEL 4
REMARK VINA RESULT:      -6.8      7.687     10.107
REMARK  Name = 
REMARK  5 active torsions:
REMARK  status: ('A' for Active; 'I' for Inactive)
REMARK    1  A    between atoms: C_1  and  C_2
REMARK    2  A    between atoms: C_5  and  N_6
REMARK    3  A    between atoms: N_13  and  C_14
REMARK    4  A    between atoms: N_13  and  C_15
REMARK    5  A    between atoms: C_19  and  C_20
REMARK                            x       y       z     vdW  Elec       q    Type
REMARK                         _______ _______ _______ _____ _____    ______ ____
ROOT
ATOM      1  N   UNL     1       2.585   7.844  19.067  0.00  0.00    +0.000 N 
ATOM      2  C   UNL     1       1.501   8.598  18.643  0.00  0.00    +0.000 C 
ATOM      3  O   UNL     1       0.936   8.388  17.575  0.00  0.00    +0.000 OA
ATOM      4  N   UNL     1       1.117   9.616  19.503  0.00  0.00    +0.000 N 
ATOM      5  C   UNL     1       0.024  10.410  19.180  0.00  0.00    +0.000 A 
ATOM      6  N   UNL     1      -0.867  10.091  18.297  0.00  0.00    +0.000 NA
ATOM      7  C   UNL     1      -1.864  10.970  17.953  0.00  0.00    +0.000 A 
ATOM      8  N   UNL     1      -2.697  10.625  16.912  0.00  0.00    +0.000 N 
ATOM      9  C   UNL     1      -2.543   9.385  16.168  0.00  0.00    +0.000 C 
ATOM     10  C   UNL     1      -3.656  11.568  16.354  0.00  0.00    +0.000 C 
ATOM     11  N   UNL     1      -2.025  12.108  18.569  0.00  0.00    +0.000 NA
ATOM     12  C   UNL     1      -1.142  12.434  19.532  0.00  0.00    +0.000 A 
ATOM     13  N   UNL     1      -1.071  13.516  20.254  0.00  0.00    +0.000 NA
ATOM     14  C   UNL     1       0.103  13.373  20.953  0.00  0.00    +0.000 A 
ATOM     15  N   UNL     1       0.745  12.195  20.759  0.00  0.00    +0.000 NA
ATOM     16  N   UNL     1      -0.087  11.622  19.846  0.00  0.00    +0.000 N 
ATOM     17  H   UNL     1       2.707   7.720  20.060  0.00  0.00    +0.000 HD
ATOM     18  H   UNL     1       1.762   9.946  20.209  0.00  0.00    +0.000 HD
ENDROOT
BRANCH   1  23
ATOM     19  C   UNL     1       5.296   4.047  15.655  0.00  0.00    +0.000 C 
ATOM     20  C   UNL     1       4.582   5.037  16.531  0.00  0.00    +0.000 A 
ATOM     21  C   UNL     1       3.573   4.614  17.392  0.00  0.00    +0.000 A 
ATOM     22  C   UNL     1       2.907   5.533  18.209  0.00  0.00    +0.000 A 
ATOM     23  C   UNL     1       3.238   6.896  18.213  0.00  0.00    +0.000 A 
ATOM     24  C   UNL     1       4.232   7.324  17.327  0.00  0.00    +0.000 A 
ATOM     25  C   UNL     1       4.902   6.401  16.499  0.00  0.00    +0.000 A 
ENDBRANCH   1  23
BRANCH  14  26
ATOM     26  C   UNL     1       0.544  14.549  21.771  0.00  0.00    +0.000 A 
ATOM     27  C   UNL     1      -0.313  15.591  22.103  0.00  0.00    +0.000 A 
ATOM     28  C   UNL     1       0.446  16.551  22.806  0.00  0.00    +0.000 A 
ATOM     29  C   UNL     1       1.719  16.038  22.875  0.00  0.00    +0.000 A 
ATOM     30  O   UNL     1       1.790  14.822  22.264  0.00  0.00    +0.000 OA
ENDBRANCH  14  26
TORSDOF 2
ENDMDL
MODEL 5
REMARK VINA RESULT:      -6.7      8.281     10.358
REMARK  Name = 
REMARK  5 active torsions:
REMARK  status: ('A' for Active; 'I' for Inactive)
REMARK    1  A    between atoms: C_1  and  C_2
REMARK    2  A    between atoms: C_5  and  N_6
REMARK    3  A    between atoms: N_13  and  C_14
REMARK    4  A    between atoms: N_13  and  C_15
REMARK    5  A    between atoms: C_19  and  C_20
REMARK                            x       y       z     vdW  Elec       q    Type
REMARK                         _______ _______ _______ _____ _____    ______ ____
ROOT
ATOM      1  N   UNL     1       1.561   8.356  17.744  0.00  0.00    +0.000 N 
ATOM      2  C   UNL     1       1.363   9.524  18.464  0.00  0.00    +0.000 C 
ATOM      3  O   UNL     1       2.204   9.963  19.242  0.00  0.00    +0.000 OA
ATOM      4  N   UNL     1       0.141  10.147  18.259  0.00  0.00    +0.000 N 
ATOM      5  C   UNL     1      -0.141  11.338  18.915  0.00  0.00    +0.000 A 
ATOM      6  N   UNL     1       0.757  12.090  19.467  0.00  0.00    +0.000 NA
ATOM      7  C   UNL     1       0.396  13.201  20.189  0.00  0.00    +0.000 A 
ATOM      8  N   UNL     1       1.387  13.881  20.864  0.00  0.00    +0.000 N 
ATOM      9  C   UNL     1       2.777  13.453  20.847  0.00  0.00    +0.000 C 
ATOM     10  C   UNL     1       1.079  14.950  21.803  0.00  0.00    +0.000 C 
ATOM     11  N   UNL     1      -0.840  13.609  20.261  0.00  0.00    +0.000 NA
ATOM     12  C   UNL     1      -1.783  12.871  19.645  0.00  0.00    +0.000 A 
ATOM     13  N   UNL     1      -3.073  13.049  19.604  0.00  0.00    +0.000 NA
ATOM     14  C   UNL     1      -3.544  11.922  18.975  0.00  0.00    +0.000 A 
ATOM     15  N   UNL     1      -2.587  11.067  18.540  0.00  0.00    +0.000 NA
ATOM     16  N   UNL     1      -1.474  11.714  18.985  0.00  0.00    +0.000 N 
ATOM     17  H   UNL     1       1.120   8.287  16.839  0.00  0.00    +0.000 HD
ATOM     18  H   UNL     1      -0.626   9.625  17.855  0.00  0.00    +0.000 HD
ENDROOT
BRANCH   1  23
ATOM     19  C   UNL     1       5.980   4.766  18.735  0.00  0.00    +0.000 C 
ATOM     20  C   UNL     1       4.837   5.709  18.487  0.00  0.00    +0.000 A 
ATOM     21  C   UNL     1       4.898   6.629  17.444  0.00  0.00    +0.000 A 
ATOM     22  C   UNL     1       3.835   7.507  17.210  0.00  0.00    +0.000 A 
ATOM     23  C   UNL     1       2.670   7.484  17.991  0.00  0.00    +0.000 A 
ATOM     24  C   UNL     1       2.621   6.578  19.055  0.00  0.00    +0.000 A 
ATOM     25  C   UNL     1       3.693   5.695  19.297  0.00  0.00    +0.000 A 
ENDBRANCH   1  23
BRANCH  14  26
ATOM     26  C   UNL     1      -5.034  11.761  18.915  0.00  0.00    +0.000 A 
ATOM     27  C   UNL     1      -5.883  12.300  19.874  0.00  0.00    +0.000 A 
ATOM     28  C   UNL     1      -7.194  11.895  19.548  0.00  0.00    +0.000 A 
ATOM     29  C   UNL     1      -7.076  11.142  18.405  0.00  0.00    +0.000 A 
ATOM     30  O   UNL     1      -5.776  11.063  18.003  0.00  0.00    +0.000 OA
ENDBRANCH  14  26
TORSDOF 2
ENDMDL
MODEL 6
REMARK VINA RESULT:      -6.7      8.110     10.202
REMARK  Name = 
REMARK  5 active torsions:
REMARK  status: ('A' for Active; 'I' for Inactive)
REMARK    1  A    between atoms: C_1  and  C_2
REMARK    2  A    between atoms: C_5  and  N_6
REMARK    3  A    between atoms: N_13  and  C_14
REMARK    4  A    between atoms: N_13  and  C_15
REMARK    5  A    between atoms: C_19  and  C_20
REMARK                            x       y       z     vdW  Elec       q    Type
REMARK                         _______ _______ _______ _____ _____    ______ ____
ROOT
ATOM      1  N   UNL     1       2.208   7.893  19.268  0.00  0.00    +0.000 N 
ATOM      2  C   UNL     1       1.129   8.622  18.793  0.00  0.00    +0.000 C 
ATOM      3  O   UNL     1       0.698   8.486  17.653  0.00  0.00    +0.000 OA
ATOM      4  N   UNL     1       0.587   9.529  19.691  0.00  0.00    +0.000 N 
ATOM      5  C   UNL     1      -0.515  10.287  19.319  0.00  0.00    +0.000 A 
ATOM      6  N   UNL     1      -1.282  10.006  18.314  0.00  0.00    +0.000 NA
ATOM      7  C   UNL     1      -2.292  10.858  17.939  0.00  0.00    +0.000 A 
ATOM      8  N   UNL     1      -2.983  10.569  16.783  0.00  0.00    +0.000 N 
ATOM      9  C   UNL     1      -2.666   9.418  15.952  0.00  0.00    +0.000 C 
ATOM     10  C   UNL     1      -3.935  11.506  16.206  0.00  0.00    +0.000 C 
ATOM     11  N   UNL     1      -2.595  11.919  18.633  0.00  0.00    +0.000 NA
ATOM     12  C   UNL     1      -1.845  12.199  19.716  0.00  0.00    +0.000 A 
ATOM     13  N   UNL     1      -1.926  13.208  20.536  0.00  0.00    +0.000 NA
ATOM     14  C   UNL     1      -0.827  13.064  21.348  0.00  0.00    +0.000 A 
ATOM     15  N   UNL     1      -0.091  11.948  21.124  0.00  0.00    +0.000 NA
ATOM     16  N   UNL     1      -0.779  11.421  20.074  0.00  0.00    +0.000 N 
ATOM     17  H   UNL     1       2.230   7.680  20.253  0.00  0.00    +0.000 HD
ATOM     18  H   UNL     1       1.128   9.824  20.493  0.00  0.00    +0.000 HD
ENDROOT
BRANCH   1  23
ATOM     19  C   UNL     1       5.373   4.543  15.781  0.00  0.00    +0.000 C 
ATOM     20  C   UNL     1       4.561   5.411  16.698  0.00  0.00    +0.000 A 
ATOM     21  C   UNL     1       4.758   6.789  16.720  0.00  0.00    +0.000 A 
ATOM     22  C   UNL     1       4.002   7.600  17.572  0.00  0.00    +0.000 A 
ATOM     23  C   UNL     1       3.011   7.071  18.412  0.00  0.00    +0.000 A 
ATOM     24  C   UNL     1       2.833   5.684  18.410  0.00  0.00    +0.000 A 
ATOM     25  C   UNL     1       3.597   4.863  17.555  0.00  0.00    +0.000 A 
ENDBRANCH   1  23
BRANCH  14  26
ATOM     26  C   UNL     1      -0.558  14.179  22.315  0.00  0.00    +0.000 A 
ATOM     27  C   UNL     1      -1.242  14.307  23.516  0.00  0.00    +0.000 A 
ATOM     28  C   UNL     1      -0.792  15.494  24.131  0.00  0.00    +0.000 A 
ATOM     29  C   UNL     1       0.149  16.019  23.279  0.00  0.00    +0.000 A 
ATOM     30  O   UNL     1       0.311  15.227  22.181  0.00  0.00    +0.000 OA
ENDBRANCH  14  26
TORSDOF 2
ENDMDL
MODEL 7
REMARK VINA RESULT:      -6.6      8.313     10.393
REMARK  Name = 
REMARK  5 active torsions:
REMARK  status: ('A' for Active; 'I' for Inactive)
REMARK    1  A    between atoms: C_1  and  C_2
REMARK    2  A    between atoms: C_5  and  N_6
REMARK    3  A    between atoms: N_13  and  C_14
REMARK    4  A    between atoms: N_13  and  C_15
REMARK    5  A    between atoms: C_19  and  C_20
REMARK                            x       y       z     vdW  Elec       q    Type
REMARK                         _______ _______ _______ _____ _____    ______ ____
ROOT
ATOM      1  N   UNL     1       1.503   8.353  17.793  0.00  0.00    +0.000 N 
ATOM      2  C   UNL     1       1.324   9.529  18.506  0.00  0.00    +0.000 C 
ATOM      3  O   UNL     1       2.177   9.966  19.272  0.00  0.00    +0.000 OA
ATOM      4  N   UNL     1       0.106  10.162  18.306  0.00  0.00    +0.000 N 
ATOM      5  C   UNL     1      -0.157  11.362  18.954  0.00  0.00    +0.000 A 
ATOM      6  N   UNL     1       0.753  12.110  19.492  0.00  0.00    +0.000 NA
ATOM      7  C   UNL     1       0.411  13.231  20.207  0.00  0.00    +0.000 A 
ATOM      8  N   UNL     1       1.415  13.906  20.866  0.00  0.00    +0.000 N 
ATOM      9  C   UNL     1       2.800  13.464  20.840  0.00  0.00    +0.000 C 
ATOM     10  C   UNL     1       1.127  14.986  21.799  0.00  0.00    +0.000 C 
ATOM     11  N   UNL     1      -0.820  13.651  20.287  0.00  0.00    +0.000 NA
ATOM     12  C   UNL     1      -1.776  12.918  19.686  0.00  0.00    +0.000 A 
ATOM     13  N   UNL     1      -3.065  13.109  19.656  0.00  0.00    +0.000 NA
ATOM     14  C   UNL     1      -3.553  11.982  19.041  0.00  0.00    +0.000 A 
ATOM     15  N   UNL     1      -2.609  11.113  18.604  0.00  0.00    +0.000 NA
ATOM     16  N   UNL     1      -1.486  11.752  19.033  0.00  0.00    +0.000 N 
ATOM     17  H   UNL     1       1.053   8.280  16.894  0.00  0.00    +0.000 HD
ATOM     18  H   UNL     1      -0.669   9.644  17.914  0.00  0.00    +0.000 HD
ENDROOT
BRANCH   1  23
ATOM     19  C   UNL     1       6.005   4.867  18.785  0.00  0.00    +0.000 C 
ATOM     20  C   UNL     1       4.829   5.763  18.517  0.00  0.00    +0.000 A 
ATOM     21  C   UNL     1       3.693   5.691  19.320  0.00  0.00    +0.000 A 
ATOM     22  C   UNL     1       2.598   6.525  19.073  0.00  0.00    +0.000 A 
ATOM     23  C   UNL     1       2.605   7.471  18.038  0.00  0.00    +0.000 A 
ATOM     24  C   UNL     1       3.736   7.524  17.216  0.00  0.00    +0.000 A 
ATOM     25  C   UNL     1       4.839   6.681  17.458  0.00  0.00    +0.000 A 
ENDBRANCH   1  23
BRANCH  14  26
ATOM     26  C   UNL     1      -5.045  11.835  18.997  0.00  0.00    +0.000 A 
ATOM     27  C   UNL     1      -5.747  11.703  17.806  0.00  0.00    +0.000 A 
ATOM     28  C   UNL     1      -7.120  11.664  18.130  0.00  0.00    +0.000 A 
ATOM     29  C   UNL     1      -7.180  11.763  19.499  0.00  0.00    +0.000 A 
ATOM     30  O   UNL     1      -5.931  11.855  20.038  0.00  0.00    +0.000 OA
ENDBRANCH  14  26
TORSDOF 2
ENDMDL
MODEL 8
REMARK VINA RESULT:      -6.5      9.949     12.049
REMARK  Name = 
REMARK  5 active torsions:
REMARK  status: ('A' for Active; 'I' for Inactive)
REMARK    1  A    between atoms: C_1  and  C_2
REMARK    2  A    between atoms: C_5  and  N_6
REMARK    3  A    between atoms: N_13  and  C_14
REMARK    4  A    between atoms: N_13  and  C_15
REMARK    5  A    between atoms: C_19  and  C_20
REMARK                            x       y       z     vdW  Elec       q    Type
REMARK                         _______ _______ _______ _____ _____    ______ ____
ROOT
ATOM      1  N   UNL     1      -0.118  10.051  19.266  0.00  0.00    +0.000 N 
ATOM      2  C   UNL     1       0.061  11.207  20.011  0.00  0.00    +0.000 C 
ATOM      3  O   UNL     1       1.171  11.597  20.358  0.00  0.00    +0.000 OA
ATOM      4  N   UNL     1      -1.105  11.876  20.354  0.00  0.00    +0.000 N 
ATOM      5  C   UNL     1      -1.029  13.060  21.076  0.00  0.00    +0.000 A 
ATOM      6  N   UNL     1       0.049  13.766  21.198  0.00  0.00    +0.000 NA
ATOM      7  C   UNL     1       0.079  14.871  22.013  0.00  0.00    +0.000 A 
ATOM      8  N   UNL     1       1.290  15.499  22.204  0.00  0.00    +0.000 N 
ATOM      9  C   UNL     1       2.520  15.023  21.591  0.00  0.00    +0.000 C 
ATOM     10  C   UNL     1       1.459  16.553  23.193  0.00  0.00    +0.000 C 
ATOM     11  N   UNL     1      -0.990  15.318  22.610  0.00  0.00    +0.000 NA
ATOM     12  C   UNL     1      -2.136  14.629  22.451  0.00  0.00    +0.000 A 
ATOM     13  N   UNL     1      -3.311  14.853  22.968  0.00  0.00    +0.000 NA
ATOM     14  C   UNL     1      -4.052  13.759  22.592  0.00  0.00    +0.000 A 
ATOM     15  N   UNL     1      -3.410  12.883  21.782  0.00  0.00    +0.000 NA
ATOM     16  N   UNL     1      -2.188  13.479  21.713  0.00  0.00    +0.000 N 
ATOM     17  H   UNL     1      -0.905  10.020  18.637  0.00  0.00    +0.000 HD
ATOM     18  H   UNL     1      -1.992  11.391  20.312  0.00  0.00    +0.000 HD
ENDROOT
BRANCH   1  23
ATOM     19  C   UNL     1       4.145   6.286  18.242  0.00  0.00    +0.000 C 
ATOM     20  C   UNL     1       3.047   7.274  18.515  0.00  0.00    +0.000 A 
ATOM     21  C   UNL     1       2.705   8.227  17.559  0.00  0.00    +0.000 A 
ATOM     22  C   UNL     1       1.682   9.147  17.810  0.00  0.00    +0.000 A 
ATOM     23  C   UNL     1       0.953   9.135  19.008  0.00  0.00    +0.000 A 
ATOM     24  C   UNL     1       1.315   8.195  19.978  0.00  0.00    +0.000 A 
ATOM     25  C   UNL     1       2.349   7.269  19.730  0.00  0.00    +0.000 A 
ENDBRANCH   1  23
BRANCH  14  26
ATOM     26  C   UNL     1      -5.430  13.651  23.174  0.00  0.00    +0.000 A 
ATOM     27  C   UNL     1      -6.203  14.765  23.475  0.00  0.00    +0.000 A 
ATOM     28  C   UNL     1      -7.395  14.300  24.069  0.00  0.00    +0.000 A 
ATOM     29  C   UNL     1      -7.291  12.930  24.087  0.00  0.00    +0.000 A 
ATOM     30  O   UNL     1      -6.112  12.523  23.537  0.00  0.00    +0.000 OA
ENDBRANCH  14  26
TORSDOF 2
ENDMDL
MODEL 9
REMARK VINA RESULT:      -6.5      8.096     10.145
REMARK  Name = 
REMARK  5 active torsions:
REMARK  status: ('A' for Active; 'I' for Inactive)
REMARK    1  A    between atoms: C_1  and  C_2
REMARK    2  A    between atoms: C_5  and  N_6
REMARK    3  A    between atoms: N_13  and  C_14
REMARK    4  A    between atoms: N_13  and  C_15
REMARK    5  A    between atoms: C_19  and  C_20
REMARK                            x       y       z     vdW  Elec       q    Type
REMARK                         _______ _______ _______ _____ _____    ______ ____
ROOT
ATOM      1  N   UNL     1       1.517   8.415  17.952  0.00  0.00    +0.000 N 
ATOM      2  C   UNL     1       1.596   9.762  18.271  0.00  0.00    +0.000 C 
ATOM      3  O   UNL     1       2.669  10.333  18.434  0.00  0.00    +0.000 OA
ATOM      4  N   UNL     1       0.378  10.409  18.413  0.00  0.00    +0.000 N 
ATOM      5  C   UNL     1       0.353  11.766  18.705  0.00  0.00    +0.000 A 
ATOM      6  N   UNL     1       1.365  12.559  18.553  0.00  0.00    +0.000 NA
ATOM      7  C   UNL     1       1.301  13.869  18.961  0.00  0.00    +0.000 A 
ATOM      8  N   UNL     1       2.453  14.621  18.896  0.00  0.00    +0.000 N 
ATOM      9  C   UNL     1       3.718  14.072  18.432  0.00  0.00    +0.000 C 
ATOM     10  C   UNL     1       2.533  15.952  19.478  0.00  0.00    +0.000 C 
ATOM     11  N   UNL     1       0.200  14.399  19.413  0.00  0.00    +0.000 NA
ATOM     12  C   UNL     1      -0.882  13.605  19.525  0.00  0.00    +0.000 A 
ATOM     13  N   UNL     1      -2.070  13.890  19.978  0.00  0.00    +0.000 NA
ATOM     14  C   UNL     1      -2.714  12.677  20.006  0.00  0.00    +0.000 A 
ATOM     15  N   UNL     1      -2.001  11.638  19.507  0.00  0.00    +0.000 NA
ATOM     16  N   UNL     1      -0.836  12.276  19.207  0.00  0.00    +0.000 N 
ATOM     17  H   UNL     1       0.733   8.114  17.393  0.00  0.00    +0.000 HD
ATOM     18  H   UNL     1      -0.463   9.867  18.562  0.00  0.00    +0.000 HD
ENDROOT
BRANCH   1  23
ATOM     19  C   UNL     1       6.085   4.875  18.045  0.00  0.00    +0.000 C 
ATOM     20  C   UNL     1       4.905   5.806  18.029  0.00  0.00    +0.000 A 
ATOM     21  C   UNL     1       4.732   6.704  16.979  0.00  0.00    +0.000 A 
ATOM     22  C   UNL     1       3.634   7.569  16.961  0.00  0.00    +0.000 A 
ATOM     23  C   UNL     1       2.663   7.555  17.973  0.00  0.00    +0.000 A 
ATOM     24  C   UNL     1       2.852   6.672  19.041  0.00  0.00    +0.000 A 
ATOM     25  C   UNL     1       3.961   5.801  19.064  0.00  0.00    +0.000 A 
ENDBRANCH   1  23
BRANCH  14  26
ATOM     26  C   UNL     1      -4.075  12.655  20.636  0.00  0.00    +0.000 A 
ATOM     27  C   UNL     1      -4.324  13.187  21.895  0.00  0.00    +0.000 A 
ATOM     28  C   UNL     1      -5.677  12.928  22.199  0.00  0.00    +0.000 A 
ATOM     29  C   UNL     1      -6.182  12.264  21.108  0.00  0.00    +0.000 A 
ATOM     30  O   UNL     1      -5.227  12.102  20.148  0.00  0.00    +0.000 OA
ENDBRANCH  14  26
TORSDOF 2
ENDMDL
