MODEL 1
REMARK VINA RESULT:      -6.1      0.000      0.000
REMARK  Name = 
REMARK  14 active torsions:
REMARK  status: ('A' for Active; 'I' for Inactive)
REMARK    1  A    between atoms: C_1  and  C_2
REMARK    2  A    between atoms: C_2  and  C_3
REMARK    3  A    between atoms: C_3  and  N_4
REMARK    4  A    between atoms: N_4  and  C_5
REMARK    5  A    between atoms: N_4  and  C_8
REMARK    6  A    between atoms: C_5  and  C_6
REMARK    7  A    between atoms: C_6  and  C_7
REMARK    8  A    between atoms: C_8  and  S_10
REMARK    9  A    between atoms: S_10  and  C_11
REMARK   10  A    between atoms: C_11  and  C_12
REMARK   11  A    between atoms: C_14  and  O_15
REMARK   12  A    between atoms: O_15  and  C_16
REMARK   13  A    between atoms: C_23  and  O_24
REMARK   14  A    between atoms: O_24  and  C_25
REMARK                            x       y       z     vdW  Elec       q    Type
REMARK                         _______ _______ _______ _____ _____    ______ ____
ROOT
ATOM      1  C   UNL     1       0.728   9.694  19.758  0.00  0.00    +0.000 A 
ATOM      2  C   UNL     1      -0.071   9.884  18.611  0.00  0.00    +0.000 A 
ATOM      3  C   UNL     1      -1.136  10.790  18.586  0.00  0.00    +0.000 A 
ATOM      4  C   UNL     1      -1.427  11.569  19.725  0.00  0.00    +0.000 A 
ATOM      5  C   UNL     1      -2.497  12.498  19.738  0.00  0.00    +0.000 A 
ATOM      6  C   UNL     1      -2.791  13.268  20.861  0.00  0.00    +0.000 A 
ATOM      7  C   UNL     1      -2.018  13.129  22.002  0.00  0.00    +0.000 A 
ATOM      8  C   UNL     1      -0.963  12.211  22.013  0.00  0.00    +0.000 A 
ATOM      9  C   UNL     1      -0.639  11.410  20.894  0.00  0.00    +0.000 A 
ATOM     10  C   UNL     1       0.433  10.459  20.904  0.00  0.00    +0.000 A 
ENDROOT
BRANCH   3  11
ATOM     11  O   UNL     1      -1.957  10.972  17.497  0.00  0.00    +0.000 OA
ATOM     12  C   UNL     1      -2.788   9.891  17.097  0.00  0.00    +0.000 C 
ENDBRANCH   3  11
BRANCH  10  13
ATOM     13  O   UNL     1       1.001  10.240  22.141  0.00  0.00    +0.000 OA
ATOM     14  C   UNL     1       0.333   9.357  23.032  0.00  0.00    +0.000 C 
ENDBRANCH  10  13
BRANCH   1  15
ATOM     15  C   UNL     1       1.822   8.649  19.650  0.00  0.00    +0.000 C 
BRANCH  15  16
ATOM     16  S   UNL     1       2.056   8.101  17.920  0.00  0.00    +0.000 S 
BRANCH  16  17
ATOM     17  C   UNL     1       3.039   6.634  18.136  0.00  0.00    +0.000 C 
ATOM     18  S   UNL     1       4.644   6.684  17.615  0.00  0.00    +0.000 S 
BRANCH  17  19
ATOM     19  N   UNL     1       2.375   5.491  18.675  0.00  0.00    +0.000 N 
BRANCH  19  20
ATOM     20  C   UNL     1       1.734   4.497  17.776  0.00  0.00    +0.000 C 
BRANCH  20  22
ATOM     21  C   UNL     1       2.673   2.097  17.910  0.00  0.00    +0.000 C 
ATOM     22  C   UNL     1       2.625   3.413  17.156  0.00  0.00    +0.000 C 
ENDBRANCH  20  22
ENDBRANCH  19  20
BRANCH  19  23
ATOM     23  C   UNL     1       2.172   5.348  20.138  0.00  0.00    +0.000 C 
BRANCH  23  24
ATOM     24  C   UNL     1       1.266   4.236  20.681  0.00  0.00    +0.000 C 
ATOM     25  C   UNL     1       1.996   3.146  21.450  0.00  0.00    +0.000 C 
ENDBRANCH  23  24
ENDBRANCH  19  23
ENDBRANCH  17  19
ENDBRANCH  16  17
ENDBRANCH  15  16
ENDBRANCH   1  15
TORSDOF 10
ENDMDL
MODEL 2
REMARK VINA RESULT:      -6.0      1.534      2.382
REMARK  Name = 
REMARK  14 active torsions:
REMARK  status: ('A' for Active; 'I' for Inactive)
REMARK    1  A    between atoms: C_1  and  C_2
REMARK    2  A    between atoms: C_2  and  C_3
REMARK    3  A    between atoms: C_3  and  N_4
REMARK    4  A    between atoms: N_4  and  C_5
REMARK    5  A    between atoms: N_4  and  C_8
REMARK    6  A    between atoms: C_5  and  C_6
REMARK    7  A    between atoms: C_6  and  C_7
REMARK    8  A    between atoms: C_8  and  S_10
REMARK    9  A    between atoms: S_10  and  C_11
REMARK   10  A    between atoms: C_11  and  C_12
REMARK   11  A    between atoms: C_14  and  O_15
REMARK   12  A    between atoms: O_15  and  C_16
REMARK   13  A    between atoms: C_23  and  O_24
REMARK   14  A    between atoms: O_24  and  C_25
REMARK                            x       y       z     vdW  Elec       q    Type
REMARK                         _______ _______ _______ _____ _____    ______ ____
ROOT
ATOM      1  C   UNL     1      -0.183  10.361  18.816  0.00  0.00    +0.000 A 
ATOM      2  C   UNL     1      -0.952   9.905  17.726  0.00  0.00    +0.000 A 
ATOM      3  C   UNL     1      -2.285  10.285  17.542  0.00  0.00    +0.000 A 
ATOM      4  C   UNL     1      -2.896  11.175  18.450  0.00  0.00    +0.000 A 
ATOM      5  C   UNL     1      -4.244  11.584  18.297  0.00  0.00    +0.000 A 
ATOM      6  C   UNL     1      -4.855  12.460  19.192  0.00  0.00    +0.000 A 
ATOM      7  C   UNL     1      -4.129  12.950  20.266  0.00  0.00    +0.000 A 
ATOM      8  C   UNL     1      -2.800  12.550  20.440  0.00  0.00    +0.000 A 
ATOM      9  C   UNL     1      -2.150  11.660  19.554  0.00  0.00    +0.000 A 
ATOM     10  C   UNL     1      -0.793  11.238  19.735  0.00  0.00    +0.000 A 
ENDROOT
BRANCH   3  11
ATOM     11  O   UNL     1      -3.073   9.830  16.510  0.00  0.00    +0.000 OA
ATOM     12  C   UNL     1      -2.820  10.329  15.204  0.00  0.00    +0.000 C 
ENDBRANCH   3  11
BRANCH  10  13
ATOM     13  O   UNL     1      -0.227  11.605  20.938  0.00  0.00    +0.000 OA
ATOM     14  C   UNL     1      -0.477  10.780  22.068  0.00  0.00    +0.000 C 
ENDBRANCH  10  13
BRANCH   1  15
ATOM     15  C   UNL     1       1.236   9.832  18.908  0.00  0.00    +0.000 C 
BRANCH  15  16
ATOM     16  S   UNL     1       1.340   8.389  20.029  0.00  0.00    +0.000 S 
BRANCH  16  17
ATOM     17  C   UNL     1       2.445   7.318  19.135  0.00  0.00    +0.000 C 
ATOM     18  S   UNL     1       2.991   7.840  17.625  0.00  0.00    +0.000 S 
BRANCH  17  19
ATOM     19  N   UNL     1       2.736   6.055  19.733  0.00  0.00    +0.000 N 
BRANCH  19  20
ATOM     20  C   UNL     1       1.814   5.463  20.736  0.00  0.00    +0.000 C 
BRANCH  20  22
ATOM     21  C   UNL     1       1.343   2.966  21.192  0.00  0.00    +0.000 C 
ATOM     22  C   UNL     1       1.050   4.191  20.344  0.00  0.00    +0.000 C 
ENDBRANCH  20  22
ENDBRANCH  19  20
BRANCH  19  23
ATOM     23  C   UNL     1       4.034   5.379  19.488  0.00  0.00    +0.000 C 
BRANCH  23  24
ATOM     24  C   UNL     1       4.184   4.413  18.306  0.00  0.00    +0.000 C 
ATOM     25  C   UNL     1       4.047   2.943  18.670  0.00  0.00    +0.000 C 
ENDBRANCH  23  24
ENDBRANCH  19  23
ENDBRANCH  17  19
ENDBRANCH  16  17
ENDBRANCH  15  16
ENDBRANCH   1  15
TORSDOF 10
ENDMDL
MODEL 3
REMARK VINA RESULT:      -6.0      1.475      1.778
REMARK  Name = 
REMARK  14 active torsions:
REMARK  status: ('A' for Active; 'I' for Inactive)
REMARK    1  A    between atoms: C_1  and  C_2
REMARK    2  A    between atoms: C_2  and  C_3
REMARK    3  A    between atoms: C_3  and  N_4
REMARK    4  A    between atoms: N_4  and  C_5
REMARK    5  A    between atoms: N_4  and  C_8
REMARK    6  A    between atoms: C_5  and  C_6
REMARK    7  A    between atoms: C_6  and  C_7
REMARK    8  A    between atoms: C_8  and  S_10
REMARK    9  A    between atoms: S_10  and  C_11
REMARK   10  A    between atoms: C_11  and  C_12
REMARK   11  A    between atoms: C_14  and  O_15
REMARK   12  A    between atoms: O_15  and  C_16
REMARK   13  A    between atoms: C_23  and  O_24
REMARK   14  A    between atoms: O_24  and  C_25
REMARK                            x       y       z     vdW  Elec       q    Type
REMARK                         _______ _______ _______ _____ _____    ______ ____
ROOT
ATOM      1  C   UNL     1       0.043  10.116  18.600  0.00  0.00    +0.000 A 
ATOM      2  C   UNL     1      -0.865   9.730  17.592  0.00  0.00    +0.000 A 
ATOM      3  C   UNL     1      -2.180  10.205  17.550  0.00  0.00    +0.000 A 
ATOM      4  C   UNL     1      -2.629  11.122  18.523  0.00  0.00    +0.000 A 
ATOM      5  C   UNL     1      -3.954  11.627  18.513  0.00  0.00    +0.000 A 
ATOM      6  C   UNL     1      -4.405  12.531  19.473  0.00  0.00    +0.000 A 
ATOM      7  C   UNL     1      -3.539  12.954  20.469  0.00  0.00    +0.000 A 
ATOM      8  C   UNL     1      -2.231  12.459  20.501  0.00  0.00    +0.000 A 
ATOM      9  C   UNL     1      -1.740  11.539  19.547  0.00  0.00    +0.000 A 
ATOM     10  C   UNL     1      -0.406  11.021  19.583  0.00  0.00    +0.000 A 
ENDROOT
BRANCH   3  11
ATOM     11  O   UNL     1      -3.100   9.821  16.603  0.00  0.00    +0.000 OA
ATOM     12  C   UNL     1      -2.919  10.278  15.270  0.00  0.00    +0.000 C 
ENDBRANCH   3  11
BRANCH  10  13
ATOM     13  O   UNL     1       0.306  11.330  20.723  0.00  0.00    +0.000 OA
ATOM     14  C   UNL     1       1.277  12.365  20.640  0.00  0.00    +0.000 C 
ENDBRANCH  10  13
BRANCH   1  15
ATOM     15  C   UNL     1       1.422   9.488  18.540  0.00  0.00    +0.000 C 
BRANCH  15  16
ATOM     16  S   UNL     1       1.611   8.169  19.794  0.00  0.00    +0.000 S 
BRANCH  16  17
ATOM     17  C   UNL     1       2.522   6.938  18.887  0.00  0.00    +0.000 C 
ATOM     18  S   UNL     1       3.571   7.474  17.677  0.00  0.00    +0.000 S 
BRANCH  17  19
ATOM     19  N   UNL     1       2.246   5.574  19.203  0.00  0.00    +0.000 N 
BRANCH  19  20
ATOM     20  C   UNL     1       2.335   4.523  18.157  0.00  0.00    +0.000 C 
BRANCH  20  22
ATOM     21  C   UNL     1       4.379   3.889  16.714  0.00  0.00    +0.000 C 
ATOM     22  C   UNL     1       3.651   3.742  18.037  0.00  0.00    +0.000 C 
ENDBRANCH  20  22
ENDBRANCH  19  20
BRANCH  19  23
ATOM     23  C   UNL     1       1.714   5.195  20.535  0.00  0.00    +0.000 C 
BRANCH  23  24
ATOM     24  C   UNL     1       1.261   3.753  20.798  0.00  0.00    +0.000 C 
ATOM     25  C   UNL     1       2.271   2.902  21.552  0.00  0.00    +0.000 C 
ENDBRANCH  23  24
ENDBRANCH  19  23
ENDBRANCH  17  19
ENDBRANCH  16  17
ENDBRANCH  15  16
ENDBRANCH   1  15
TORSDOF 10
ENDMDL
MODEL 4
REMARK VINA RESULT:      -5.8      2.469      4.253
REMARK  Name = 
REMARK  14 active torsions:
REMARK  status: ('A' for Active; 'I' for Inactive)
REMARK    1  A    between atoms: C_1  and  C_2
REMARK    2  A    between atoms: C_2  and  C_3
REMARK    3  A    between atoms: C_3  and  N_4
REMARK    4  A    between atoms: N_4  and  C_5
REMARK    5  A    between atoms: N_4  and  C_8
REMARK    6  A    between atoms: C_5  and  C_6
REMARK    7  A    between atoms: C_6  and  C_7
REMARK    8  A    between atoms: C_8  and  S_10
REMARK    9  A    between atoms: S_10  and  C_11
REMARK   10  A    between atoms: C_11  and  C_12
REMARK   11  A    between atoms: C_14  and  O_15
REMARK   12  A    between atoms: O_15  and  C_16
REMARK   13  A    between atoms: C_23  and  O_24
REMARK   14  A    between atoms: O_24  and  C_25
REMARK                            x       y       z     vdW  Elec       q    Type
REMARK                         _______ _______ _______ _____ _____    ______ ____
ROOT
ATOM      1  C   UNL     1       2.452   7.402  18.735  0.00  0.00    +0.000 A 
ATOM      2  C   UNL     1       2.220   8.623  18.069  0.00  0.00    +0.000 A 
ATOM      3  C   UNL     1       1.541   9.686  18.675  0.00  0.00    +0.000 A 
ATOM      4  C   UNL     1       1.085   9.565  20.004  0.00  0.00    +0.000 A 
ATOM      5  C   UNL     1       0.395  10.620  20.651  0.00  0.00    +0.000 A 
ATOM      6  C   UNL     1      -0.061  10.506  21.963  0.00  0.00    +0.000 A 
ATOM      7  C   UNL     1       0.165   9.331  22.662  0.00  0.00    +0.000 A 
ATOM      8  C   UNL     1       0.836   8.275  22.037  0.00  0.00    +0.000 A 
ATOM      9  C   UNL     1       1.308   8.354  20.707  0.00  0.00    +0.000 A 
ATOM     10  C   UNL     1       1.985   7.271  20.058  0.00  0.00    +0.000 A 
ENDROOT
BRANCH   3  11
ATOM     11  O   UNL     1       1.266  10.875  18.041  0.00  0.00    +0.000 OA
ATOM     12  C   UNL     1       2.293  11.857  17.988  0.00  0.00    +0.000 C 
ENDBRANCH   3  11
BRANCH  10  13
ATOM     13  O   UNL     1       1.972   6.079  20.753  0.00  0.00    +0.000 OA
ATOM     14  C   UNL     1       1.087   5.061  20.308  0.00  0.00    +0.000 C 
ENDBRANCH  10  13
BRANCH   1  15
ATOM     15  C   UNL     1       3.165   6.326  17.939  0.00  0.00    +0.000 C 
BRANCH  15  16
ATOM     16  S   UNL     1       4.662   6.984  17.117  0.00  0.00    +0.000 S 
BRANCH  16  17
ATOM     17  C   UNL     1       5.879   5.763  17.556  0.00  0.00    +0.000 C 
ATOM     18  S   UNL     1       7.385   6.314  18.086  0.00  0.00    +0.000 S 
BRANCH  17  19
ATOM     19  N   UNL     1       5.516   4.396  17.360  0.00  0.00    +0.000 N 
BRANCH  19  20
ATOM     20  C   UNL     1       4.933   3.603  18.471  0.00  0.00    +0.000 C 
BRANCH  20  22
ATOM     21  C   UNL     1       3.569   1.412  18.450  0.00  0.00    +0.000 C 
ATOM     22  C   UNL     1       3.584   2.913  18.228  0.00  0.00    +0.000 C 
ENDBRANCH  20  22
ENDBRANCH  19  20
BRANCH  19  23
ATOM     23  C   UNL     1       5.853   3.693  16.097  0.00  0.00    +0.000 C 
BRANCH  23  24
ATOM     24  C   UNL     1       6.359   4.489  14.888  0.00  0.00    +0.000 C 
ATOM     25  C   UNL     1       6.011   3.879  13.539  0.00  0.00    +0.000 C 
ENDBRANCH  23  24
ENDBRANCH  19  23
ENDBRANCH  17  19
ENDBRANCH  16  17
ENDBRANCH  15  16
ENDBRANCH   1  15
TORSDOF 10
ENDMDL
MODEL 5
REMARK VINA RESULT:      -5.8      1.803      2.871
REMARK  Name = 
REMARK  14 active torsions:
REMARK  status: ('A' for Active; 'I' for Inactive)
REMARK    1  A    between atoms: C_1  and  C_2
REMARK    2  A    between atoms: C_2  and  C_3
REMARK    3  A    between atoms: C_3  and  N_4
REMARK    4  A    between atoms: N_4  and  C_5
REMARK    5  A    between atoms: N_4  and  C_8
REMARK    6  A    between atoms: C_5  and  C_6
REMARK    7  A    between atoms: C_6  and  C_7
REMARK    8  A    between atoms: C_8  and  S_10
REMARK    9  A    between atoms: S_10  and  C_11
REMARK   10  A    between atoms: C_11  and  C_12
REMARK   11  A    between atoms: C_14  and  O_15
REMARK   12  A    between atoms: O_15  and  C_16
REMARK   13  A    between atoms: C_23  and  O_24
REMARK   14  A    between atoms: O_24  and  C_25
REMARK                            x       y       z     vdW  Elec       q    Type
REMARK                         _______ _______ _______ _____ _____    ______ ____
ROOT
ATOM      1  C   UNL     1      -0.025  10.646  18.814  0.00  0.00    +0.000 A 
ATOM      2  C   UNL     1      -0.752  10.072  17.750  0.00  0.00    +0.000 A 
ATOM      3  C   UNL     1      -2.116  10.316  17.561  0.00  0.00    +0.000 A 
ATOM      4  C   UNL     1      -2.805  11.182  18.436  0.00  0.00    +0.000 A 
ATOM      5  C   UNL     1      -4.187  11.455  18.276  0.00  0.00    +0.000 A 
ATOM      6  C   UNL     1      -4.874  12.307  19.138  0.00  0.00    +0.000 A 
ATOM      7  C   UNL     1      -4.193  12.909  20.184  0.00  0.00    +0.000 A 
ATOM      8  C   UNL     1      -2.832  12.645  20.364  0.00  0.00    +0.000 A 
ATOM      9  C   UNL     1      -2.104  11.783  19.511  0.00  0.00    +0.000 A 
ATOM     10  C   UNL     1      -0.712  11.500  19.699  0.00  0.00    +0.000 A 
ENDROOT
BRANCH   3  11
ATOM     11  O   UNL     1      -2.861   9.744  16.556  0.00  0.00    +0.000 OA
ATOM     12  C   UNL     1      -2.757  10.293  15.250  0.00  0.00    +0.000 C 
ENDBRANCH   3  11
BRANCH  10  13
ATOM     13  O   UNL     1      -0.179  11.971  20.881  0.00  0.00    +0.000 OA
ATOM     14  C   UNL     1       0.665  13.112  20.821  0.00  0.00    +0.000 C 
ENDBRANCH  10  13
BRANCH   1  15
ATOM     15  C   UNL     1       1.438  10.258  18.916  0.00  0.00    +0.000 C 
BRANCH  15  16
ATOM     16  S   UNL     1       1.857   8.915  17.746  0.00  0.00    +0.000 S 
BRANCH  16  17
ATOM     17  C   UNL     1       2.181   7.561  18.854  0.00  0.00    +0.000 C 
ATOM     18  S   UNL     1       1.773   7.764  20.479  0.00  0.00    +0.000 S 
BRANCH  17  19
ATOM     19  N   UNL     1       2.832   6.419  18.297  0.00  0.00    +0.000 N 
BRANCH  19  20
ATOM     20  C   UNL     1       2.116   5.123  18.179  0.00  0.00    +0.000 C 
BRANCH  20  22
ATOM     21  C   UNL     1       0.977   3.846  20.112  0.00  0.00    +0.000 C 
ATOM     22  C   UNL     1       2.251   4.122  19.335  0.00  0.00    +0.000 C 
ENDBRANCH  20  22
ENDBRANCH  19  20
BRANCH  19  23
ATOM     23  C   UNL     1       4.278   6.453  17.967  0.00  0.00    +0.000 C 
BRANCH  23  24
ATOM     24  C   UNL     1       4.737   6.308  16.511  0.00  0.00    +0.000 C 
ATOM     25  C   UNL     1       5.239   4.921  16.143  0.00  0.00    +0.000 C 
ENDBRANCH  23  24
ENDBRANCH  19  23
ENDBRANCH  17  19
ENDBRANCH  16  17
ENDBRANCH  15  16
ENDBRANCH   1  15
TORSDOF 10
ENDMDL
MODEL 6
REMARK VINA RESULT:      -5.8      2.892      8.024
REMARK  Name = 
REMARK  14 active torsions:
REMARK  status: ('A' for Active; 'I' for Inactive)
REMARK    1  A    between atoms: C_1  and  C_2
REMARK    2  A    between atoms: C_2  and  C_3
REMARK    3  A    between atoms: C_3  and  N_4
REMARK    4  A    between atoms: N_4  and  C_5
REMARK    5  A    between atoms: N_4  and  C_8
REMARK    6  A    between atoms: C_5  and  C_6
REMARK    7  A    between atoms: C_6  and  C_7
REMARK    8  A    between atoms: C_8  and  S_10
REMARK    9  A    between atoms: S_10  and  C_11
REMARK   10  A    between atoms: C_11  and  C_12
REMARK   11  A    between atoms: C_14  and  O_15
REMARK   12  A    between atoms: O_15  and  C_16
REMARK   13  A    between atoms: C_23  and  O_24
REMARK   14  A    between atoms: O_24  and  C_25
REMARK                            x       y       z     vdW  Elec       q    Type
REMARK                         _______ _______ _______ _____ _____    ______ ____
ROOT
ATOM      1  C   UNL     1       1.922   6.950  20.205  0.00  0.00    +0.000 A 
ATOM      2  C   UNL     1       1.354   5.799  20.790  0.00  0.00    +0.000 A 
ATOM      3  C   UNL     1       1.539   4.521  20.254  0.00  0.00    +0.000 A 
ATOM      4  C   UNL     1       2.337   4.348  19.104  0.00  0.00    +0.000 A 
ATOM      5  C   UNL     1       2.549   3.069  18.532  0.00  0.00    +0.000 A 
ATOM      6  C   UNL     1       3.334   2.891  17.395  0.00  0.00    +0.000 A 
ATOM      7  C   UNL     1       3.929   3.992  16.800  0.00  0.00    +0.000 A 
ATOM      8  C   UNL     1       3.724   5.265  17.344  0.00  0.00    +0.000 A 
ATOM      9  C   UNL     1       2.931   5.483  18.494  0.00  0.00    +0.000 A 
ATOM     10  C   UNL     1       2.708   6.785  19.048  0.00  0.00    +0.000 A 
ENDROOT
BRANCH   3  11
ATOM     11  O   UNL     1       0.970   3.384  20.778  0.00  0.00    +0.000 OA
ATOM     12  C   UNL     1       1.641   2.732  21.848  0.00  0.00    +0.000 C 
ENDBRANCH   3  11
BRANCH  10  13
ATOM     13  O   UNL     1       3.159   7.830  18.270  0.00  0.00    +0.000 OA
ATOM     14  C   UNL     1       2.190   8.684  17.678  0.00  0.00    +0.000 C 
ENDBRANCH  10  13
BRANCH   1  15
ATOM     15  C   UNL     1       1.601   8.273  20.874  0.00  0.00    +0.000 C 
BRANCH  15  16
ATOM     16  S   UNL     1      -0.147   8.345  21.411  0.00  0.00    +0.000 S 
BRANCH  16  17
ATOM     17  C   UNL     1      -0.447  10.098  21.427  0.00  0.00    +0.000 C 
ATOM     18  S   UNL     1      -0.916  10.799  22.889  0.00  0.00    +0.000 S 
BRANCH  17  19
ATOM     19  N   UNL     1      -0.337  10.778  20.176  0.00  0.00    +0.000 N 
BRANCH  19  20
ATOM     20  C   UNL     1      -1.003  10.241  18.963  0.00  0.00    +0.000 C 
BRANCH  20  22
ATOM     21  C   UNL     1      -2.924  10.756  17.316  0.00  0.00    +0.000 C 
ATOM     22  C   UNL     1      -1.661  11.242  18.003  0.00  0.00    +0.000 C 
ENDBRANCH  20  22
ENDBRANCH  19  20
BRANCH  19  23
ATOM     23  C   UNL     1       0.566  11.945  20.022  0.00  0.00    +0.000 C 
BRANCH  23  24
ATOM     24  C   UNL     1       0.076  13.349  20.395  0.00  0.00    +0.000 C 
ATOM     25  C   UNL     1       0.847  14.006  21.530  0.00  0.00    +0.000 C 
ENDBRANCH  23  24
ENDBRANCH  19  23
ENDBRANCH  17  19
ENDBRANCH  16  17
ENDBRANCH  15  16
ENDBRANCH   1  15
TORSDOF 10
ENDMDL
MODEL 7
REMARK VINA RESULT:      -5.8      2.399      3.867
REMARK  Name = 
REMARK  14 active torsions:
REMARK  status: ('A' for Active; 'I' for Inactive)
REMARK    1  A    between atoms: C_1  and  C_2
REMARK    2  A    between atoms: C_2  and  C_3
REMARK    3  A    between atoms: C_3  and  N_4
REMARK    4  A    between atoms: N_4  and  C_5
REMARK    5  A    between atoms: N_4  and  C_8
REMARK    6  A    between atoms: C_5  and  C_6
REMARK    7  A    between atoms: C_6  and  C_7
REMARK    8  A    between atoms: C_8  and  S_10
REMARK    9  A    between atoms: S_10  and  C_11
REMARK   10  A    between atoms: C_11  and  C_12
REMARK   11  A    between atoms: C_14  and  O_15
REMARK   12  A    between atoms: O_15  and  C_16
REMARK   13  A    between atoms: C_23  and  O_24
REMARK   14  A    between atoms: O_24  and  C_25
REMARK                            x       y       z     vdW  Elec       q    Type
REMARK                         _______ _______ _______ _____ _____    ______ ____
ROOT
ATOM      1  C   UNL     1       2.382   7.359  18.855  0.00  0.00    +0.000 A 
ATOM      2  C   UNL     1       2.175   8.576  18.173  0.00  0.00    +0.000 A 
ATOM      3  C   UNL     1       1.500   9.653  18.756  0.00  0.00    +0.000 A 
ATOM      4  C   UNL     1       1.022   9.553  20.079  0.00  0.00    +0.000 A 
ATOM      5  C   UNL     1       0.335  10.622  20.704  0.00  0.00    +0.000 A 
ATOM      6  C   UNL     1      -0.142  10.529  22.010  0.00  0.00    +0.000 A 
ATOM      7  C   UNL     1       0.058   9.359  22.725  0.00  0.00    +0.000 A 
ATOM      8  C   UNL     1       0.726   8.288  22.122  0.00  0.00    +0.000 A 
ATOM      9  C   UNL     1       1.220   8.346  20.798  0.00  0.00    +0.000 A 
ATOM     10  C   UNL     1       1.894   7.248  20.172  0.00  0.00    +0.000 A 
ENDROOT
BRANCH   3  11
ATOM     11  O   UNL     1       1.250  10.839  18.105  0.00  0.00    +0.000 OA
ATOM     12  C   UNL     1       2.319  11.765  17.969  0.00  0.00    +0.000 C 
ENDBRANCH   3  11
BRANCH  10  13
ATOM     13  O   UNL     1       1.855   6.065  20.880  0.00  0.00    +0.000 OA
ATOM     14  C   UNL     1       1.130   4.979  20.319  0.00  0.00    +0.000 C 
ENDBRANCH  10  13
BRANCH   1  15
ATOM     15  C   UNL     1       3.094   6.266  18.082  0.00  0.00    +0.000 C 
BRANCH  15  16
ATOM     16  S   UNL     1       4.602   6.901  17.263  0.00  0.00    +0.000 S 
BRANCH  16  17
ATOM     17  C   UNL     1       5.789   5.636  17.663  0.00  0.00    +0.000 C 
ATOM     18  S   UNL     1       7.275   6.129  18.295  0.00  0.00    +0.000 S 
BRANCH  17  19
ATOM     19  N   UNL     1       5.422   4.292  17.353  0.00  0.00    +0.000 N 
BRANCH  19  20
ATOM     20  C   UNL     1       5.855   3.665  16.079  0.00  0.00    +0.000 C 
BRANCH  20  22
ATOM     21  C   UNL     1       6.168   3.866  13.524  0.00  0.00    +0.000 C 
ATOM     22  C   UNL     1       5.446   4.352  14.768  0.00  0.00    +0.000 C 
ENDBRANCH  20  22
ENDBRANCH  19  20
BRANCH  19  23
ATOM     23  C   UNL     1       4.476   3.544  18.217  0.00  0.00    +0.000 C 
BRANCH  23  24
ATOM     24  C   UNL     1       3.662   2.381  17.636  0.00  0.00    +0.000 C 
ATOM     25  C   UNL     1       2.182   2.410  17.984  0.00  0.00    +0.000 C 
ENDBRANCH  23  24
ENDBRANCH  19  23
ENDBRANCH  17  19
ENDBRANCH  16  17
ENDBRANCH  15  16
ENDBRANCH   1  15
TORSDOF 10
ENDMDL
MODEL 8
REMARK VINA RESULT:      -5.7      1.223      1.602
REMARK  Name = 
REMARK  14 active torsions:
REMARK  status: ('A' for Active; 'I' for Inactive)
REMARK    1  A    between atoms: C_1  and  C_2
REMARK    2  A    between atoms: C_2  and  C_3
REMARK    3  A    between atoms: C_3  and  N_4
REMARK    4  A    between atoms: N_4  and  C_5
REMARK    5  A    between atoms: N_4  and  C_8
REMARK    6  A    between atoms: C_5  and  C_6
REMARK    7  A    between atoms: C_6  and  C_7
REMARK    8  A    between atoms: C_8  and  S_10
REMARK    9  A    between atoms: S_10  and  C_11
REMARK   10  A    between atoms: C_11  and  C_12
REMARK   11  A    between atoms: C_14  and  O_15
REMARK   12  A    between atoms: O_15  and  C_16
REMARK   13  A    between atoms: C_23  and  O_24
REMARK   14  A    between atoms: O_24  and  C_25
REMARK                            x       y       z     vdW  Elec       q    Type
REMARK                         _______ _______ _______ _____ _____    ______ ____
ROOT
ATOM      1  C   UNL     1      -0.126  10.841  19.970  0.00  0.00    +0.000 A 
ATOM      2  C   UNL     1      -0.820  10.704  18.749  0.00  0.00    +0.000 A 
ATOM      3  C   UNL     1      -2.117  11.194  18.570  0.00  0.00    +0.000 A 
ATOM      4  C   UNL     1      -2.766  11.874  19.622  0.00  0.00    +0.000 A 
ATOM      5  C   UNL     1      -4.080  12.386  19.478  0.00  0.00    +0.000 A 
ATOM      6  C   UNL     1      -4.727  13.056  20.514  0.00  0.00    +0.000 A 
ATOM      7  C   UNL     1      -4.073  13.232  21.724  0.00  0.00    +0.000 A 
ATOM      8  C   UNL     1      -2.780  12.725  21.888  0.00  0.00    +0.000 A 
ATOM      9  C   UNL     1      -2.094  12.037  20.861  0.00  0.00    +0.000 A 
ATOM     10  C   UNL     1      -0.775  11.506  21.029  0.00  0.00    +0.000 A 
ENDROOT
BRANCH   3  11
ATOM     11  O   UNL     1      -2.835  11.045  17.406  0.00  0.00    +0.000 OA
ATOM     12  C   UNL     1      -2.392  10.075  16.467  0.00  0.00    +0.000 C 
ENDBRANCH   3  11
BRANCH  10  13
ATOM     13  O   UNL     1      -0.296  11.541  22.322  0.00  0.00    +0.000 OA
ATOM     14  C   UNL     1      -0.613  10.451  23.176  0.00  0.00    +0.000 C 
ENDBRANCH  10  13
BRANCH   1  15
ATOM     15  C   UNL     1       1.258  10.224  20.030  0.00  0.00    +0.000 C 
BRANCH  15  16
ATOM     16  S   UNL     1       1.193   8.491  20.615  0.00  0.00    +0.000 S 
BRANCH  16  17
ATOM     17  C   UNL     1       1.974   7.627  19.270  0.00  0.00    +0.000 C 
ATOM     18  S   UNL     1       2.371   8.518  17.892  0.00  0.00    +0.000 S 
BRANCH  17  19
ATOM     19  N   UNL     1       2.145   6.218  19.427  0.00  0.00    +0.000 N 
BRANCH  19  20
ATOM     20  C   UNL     1       2.699   5.397  18.321  0.00  0.00    +0.000 C 
BRANCH  20  22
ATOM     21  C   UNL     1       2.326   2.934  17.644  0.00  0.00    +0.000 C 
ATOM     22  C   UNL     1       1.781   4.350  17.677  0.00  0.00    +0.000 C 
ENDBRANCH  20  22
ENDBRANCH  19  20
BRANCH  19  23
ATOM     23  C   UNL     1       1.634   5.519  20.632  0.00  0.00    +0.000 C 
BRANCH  23  24
ATOM     24  C   UNL     1       2.432   4.361  21.244  0.00  0.00    +0.000 C 
ATOM     25  C   UNL     1       1.629   3.089  21.465  0.00  0.00    +0.000 C 
ENDBRANCH  23  24
ENDBRANCH  19  23
ENDBRANCH  17  19
ENDBRANCH  16  17
ENDBRANCH  15  16
ENDBRANCH   1  15
TORSDOF 10
ENDMDL
MODEL 9
REMARK VINA RESULT:      -5.7      2.728      7.901
REMARK  Name = 
REMARK  14 active torsions:
REMARK  status: ('A' for Active; 'I' for Inactive)
REMARK    1  A    between atoms: C_1  and  C_2
REMARK    2  A    between atoms: C_2  and  C_3
REMARK    3  A    between atoms: C_3  and  N_4
REMARK    4  A    between atoms: N_4  and  C_5
REMARK    5  A    between atoms: N_4  and  C_8
REMARK    6  A    between atoms: C_5  and  C_6
REMARK    7  A    between atoms: C_6  and  C_7
REMARK    8  A    between atoms: C_8  and  S_10
REMARK    9  A    between atoms: S_10  and  C_11
REMARK   10  A    between atoms: C_11  and  C_12
REMARK   11  A    between atoms: C_14  and  O_15
REMARK   12  A    between atoms: O_15  and  C_16
REMARK   13  A    between atoms: C_23  and  O_24
REMARK   14  A    between atoms: O_24  and  C_25
REMARK                            x       y       z     vdW  Elec       q    Type
REMARK                         _______ _______ _______ _____ _____    ______ ____
ROOT
ATOM      1  C   UNL     1       1.850   7.195  20.308  0.00  0.00    +0.000 A 
ATOM      2  C   UNL     1       1.331   6.014  20.878  0.00  0.00    +0.000 A 
ATOM      3  C   UNL     1       1.556   4.753  20.316  0.00  0.00    +0.000 A 
ATOM      4  C   UNL     1       2.348   4.630  19.154  0.00  0.00    +0.000 A 
ATOM      5  C   UNL     1       2.600   3.370  18.557  0.00  0.00    +0.000 A 
ATOM      6  C   UNL     1       3.378   3.242  17.408  0.00  0.00    +0.000 A 
ATOM      7  C   UNL     1       3.926   4.375  16.828  0.00  0.00    +0.000 A 
ATOM      8  C   UNL     1       3.681   5.629  17.398  0.00  0.00    +0.000 A 
ATOM      9  C   UNL     1       2.893   5.797  18.560  0.00  0.00    +0.000 A 
ATOM     10  C   UNL     1       2.629   7.079  19.140  0.00  0.00    +0.000 A 
ENDROOT
BRANCH   3  11
ATOM     11  O   UNL     1       1.035   3.587  20.825  0.00  0.00    +0.000 OA
ATOM     12  C   UNL     1       1.786   2.892  21.811  0.00  0.00    +0.000 C 
ENDBRANCH   3  11
BRANCH  10  13
ATOM     13  O   UNL     1       3.033   8.155  18.377  0.00  0.00    +0.000 OA
ATOM     14  C   UNL     1       2.032   8.908  17.707  0.00  0.00    +0.000 C 
ENDBRANCH  10  13
BRANCH   1  15
ATOM     15  C   UNL     1       1.489   8.493  21.005  0.00  0.00    +0.000 C 
BRANCH  15  16
ATOM     16  S   UNL     1      -0.290   8.880  20.817  0.00  0.00    +0.000 S 
BRANCH  16  17
ATOM     17  C   UNL     1      -0.232  10.541  20.181  0.00  0.00    +0.000 C 
ATOM     18  S   UNL     1       0.995  11.553  20.747  0.00  0.00    +0.000 S 
BRANCH  17  19
ATOM     19  N   UNL     1      -1.276  10.921  19.285  0.00  0.00    +0.000 N 
BRANCH  19  20
ATOM     20  C   UNL     1      -1.562  10.114  18.072  0.00  0.00    +0.000 C 
BRANCH  20  22
ATOM     21  C   UNL     1      -2.798   9.853  15.821  0.00  0.00    +0.000 C 
ATOM     22  C   UNL     1      -2.356  10.779  16.940  0.00  0.00    +0.000 C 
ENDBRANCH  20  22
ENDBRANCH  19  20
BRANCH  19  23
ATOM     23  C   UNL     1      -1.995  12.208  19.457  0.00  0.00    +0.000 C 
BRANCH  23  24
ATOM     24  C   UNL     1      -2.665  12.539  20.796  0.00  0.00    +0.000 C 
ATOM     25  C   UNL     1      -3.075  13.995  20.954  0.00  0.00    +0.000 C 
ENDBRANCH  23  24
ENDBRANCH  19  23
ENDBRANCH  17  19
ENDBRANCH  16  17
ENDBRANCH  15  16
ENDBRANCH   1  15
TORSDOF 10
ENDMDL
