MODEL 1
REMARK VINA RESULT:      -7.8      0.000      0.000
REMARK  Name = 
REMARK  2 active torsions:
REMARK  status: ('A' for Active; 'I' for Inactive)
REMARK    1  A    between atoms: CA_4  and  CB_5
REMARK    2  A    between atoms: CB_5  and  CG_6
REMARK                            x       y       z     vdW  Elec       q    Type
REMARK                         _______ _______ _______ _____ _____    ______ ____
ROOT
ATOM      1  O   PRO A   2       5.192   2.081  20.223  0.00  0.00    +0.000 OA
ATOM      2  C   PRO A   2       4.211   2.350  19.545  0.00  0.00    +0.000 C 
ATOM      3  N   PHE A   1       4.269   2.375  18.164  0.00  0.00    +0.000 N 
ATOM      4  CA  PHE A   1       3.426   3.312  17.405  0.00  0.00    +0.000 C 
ATOM      5  C   PHE A   1       2.016   3.545  18.016  0.00  0.00    +0.000 C 
ATOM      6  O   PHE A   1       1.114   4.088  17.384  0.00  0.00    +0.000 OA
ATOM      7  N   PRO A   2       1.948   3.338  19.379  0.00  0.00    +0.000 N 
ATOM      8  CD  PRO A   2       0.823   3.724  20.209  0.00  0.00    +0.000 C 
ATOM      9  CG  PRO A   2       1.075   3.028  21.548  0.00  0.00    +0.000 C 
ATOM     10  CB  PRO A   2       2.567   2.682  21.517  0.00  0.00    +0.000 C 
ATOM     11  CA  PRO A   2       2.774   2.352  20.050  0.00  0.00    +0.000 C 
ATOM     12  H   PHE A   1       5.207   2.238  17.805  0.00  0.00    +0.000 HD
ENDROOT
BRANCH   4  13
ATOM     13  CB  PHE A   1       4.110   4.688  17.246  0.00  0.00    +0.000 C 
BRANCH  13  14
ATOM     14  CG  PHE A   1       5.219   4.685  16.216  0.00  0.00    +0.000 A 
ATOM     15  CD1 PHE A   1       6.442   5.324  16.474  0.00  0.00    +0.000 A 
ATOM     16  CE1 PHE A   1       7.441   5.357  15.498  0.00  0.00    +0.000 A 
ATOM     17  CZ  PHE A   1       7.229   4.763  14.256  0.00  0.00    +0.000 A 
ATOM     18  CE2 PHE A   1       6.022   4.122  13.989  0.00  0.00    +0.000 A 
ATOM     19  CD2 PHE A   1       5.025   4.077  14.965  0.00  0.00    +0.000 A 
ENDBRANCH  13  14
ENDBRANCH   4  13
TORSDOF 2
ENDMDL
MODEL 2
REMARK VINA RESULT:      -7.8      0.063      1.139
REMARK  Name = 
REMARK  2 active torsions:
REMARK  status: ('A' for Active; 'I' for Inactive)
REMARK    1  A    between atoms: CA_4  and  CB_5
REMARK    2  A    between atoms: CB_5  and  CG_6
REMARK                            x       y       z     vdW  Elec       q    Type
REMARK                         _______ _______ _______ _____ _____    ______ ____
ROOT
ATOM      1  O   PRO A   2       5.203   2.028  20.215  0.00  0.00    +0.000 OA
ATOM      2  C   PRO A   2       4.230   2.330  19.537  0.00  0.00    +0.000 C 
ATOM      3  N   PHE A   1       4.296   2.382  18.158  0.00  0.00    +0.000 N 
ATOM      4  CA  PHE A   1       3.474   3.349  17.413  0.00  0.00    +0.000 C 
ATOM      5  C   PHE A   1       2.066   3.596  18.023  0.00  0.00    +0.000 C 
ATOM      6  O   PHE A   1       1.177   4.169  17.397  0.00  0.00    +0.000 OA
ATOM      7  N   PRO A   2       1.986   3.362  19.380  0.00  0.00    +0.000 N 
ATOM      8  CD  PRO A   2       0.864   3.752  20.213  0.00  0.00    +0.000 C 
ATOM      9  CG  PRO A   2       1.097   3.024  21.539  0.00  0.00    +0.000 C 
ATOM     10  CB  PRO A   2       2.581   2.651  21.508  0.00  0.00    +0.000 C 
ATOM     11  CA  PRO A   2       2.791   2.348  20.036  0.00  0.00    +0.000 C 
ATOM     12  H   PHE A   1       5.233   2.235  17.801  0.00  0.00    +0.000 HD
ENDROOT
BRANCH   4  13
ATOM     13  CB  PHE A   1       4.184   4.715  17.286  0.00  0.00    +0.000 C 
BRANCH  13  14
ATOM     14  CG  PHE A   1       5.226   4.745  16.188  0.00  0.00    +0.000 A 
ATOM     15  CD1 PHE A   1       4.997   4.101  14.962  0.00  0.00    +0.000 A 
ATOM     16  CE1 PHE A   1       5.983   4.094  13.974  0.00  0.00    +0.000 A 
ATOM     17  CZ  PHE A   1       7.208   4.720  14.199  0.00  0.00    +0.000 A 
ATOM     18  CE2 PHE A   1       7.446   5.365  15.410  0.00  0.00    +0.000 A 
ATOM     19  CD2 PHE A   1       6.459   5.384  16.396  0.00  0.00    +0.000 A 
ENDBRANCH  13  14
ENDBRANCH   4  13
TORSDOF 2
ENDMDL
MODEL 3
REMARK VINA RESULT:      -7.7      2.330      6.007
REMARK  Name = 
REMARK  2 active torsions:
REMARK  status: ('A' for Active; 'I' for Inactive)
REMARK    1  A    between atoms: CA_4  and  CB_5
REMARK    2  A    between atoms: CB_5  and  CG_6
REMARK                            x       y       z     vdW  Elec       q    Type
REMARK                         _______ _______ _______ _____ _____    ______ ____
ROOT
ATOM      1  O   PRO A   2       5.426   6.833  15.142  0.00  0.00    +0.000 OA
ATOM      2  C   PRO A   2       5.508   5.982  16.018  0.00  0.00    +0.000 C 
ATOM      3  N   PHE A   1       4.709   4.855  16.010  0.00  0.00    +0.000 N 
ATOM      4  CA  PHE A   1       4.281   4.242  17.278  0.00  0.00    +0.000 C 
ATOM      5  C   PHE A   1       5.347   4.295  18.407  0.00  0.00    +0.000 C 
ATOM      6  O   PHE A   1       5.250   3.617  19.427  0.00  0.00    +0.000 OA
ATOM      7  N   PRO A   2       6.247   5.334  18.289  0.00  0.00    +0.000 N 
ATOM      8  CD  PRO A   2       7.170   5.739  19.333  0.00  0.00    +0.000 C 
ATOM      9  CG  PRO A   2       8.139   6.700  18.640  0.00  0.00    +0.000 C 
ATOM     10  CB  PRO A   2       7.401   7.124  17.366  0.00  0.00    +0.000 C 
ATOM     11  CA  PRO A   2       6.666   5.848  16.999  0.00  0.00    +0.000 C 
ATOM     12  H   PHE A   1       4.015   4.867  15.272  0.00  0.00    +0.000 HD
ENDROOT
BRANCH   4  13
ATOM     13  CB  PHE A   1       2.987   4.895  17.813  0.00  0.00    +0.000 C 
BRANCH  13  14
ATOM     14  CG  PHE A   1       2.347   4.112  18.939  0.00  0.00    +0.000 A 
ATOM     15  CD1 PHE A   1       2.178   4.685  20.209  0.00  0.00    +0.000 A 
ATOM     16  CE1 PHE A   1       1.630   3.938  21.254  0.00  0.00    +0.000 A 
ATOM     17  CZ  PHE A   1       1.254   2.612  21.047  0.00  0.00    +0.000 A 
ATOM     18  CE2 PHE A   1       1.413   2.032  19.790  0.00  0.00    +0.000 A 
ATOM     19  CD2 PHE A   1       1.949   2.779  18.741  0.00  0.00    +0.000 A 
ENDBRANCH  13  14
ENDBRANCH   4  13
TORSDOF 2
ENDMDL
MODEL 4
REMARK VINA RESULT:      -7.6      2.353      6.114
REMARK  Name = 
REMARK  2 active torsions:
REMARK  status: ('A' for Active; 'I' for Inactive)
REMARK    1  A    between atoms: CA_4  and  CB_5
REMARK    2  A    between atoms: CB_5  and  CG_6
REMARK                            x       y       z     vdW  Elec       q    Type
REMARK                         _______ _______ _______ _____ _____    ______ ____
ROOT
ATOM      1  O   PRO A   2       5.403   6.923  15.172  0.00  0.00    +0.000 OA
ATOM      2  C   PRO A   2       5.501   6.052  16.025  0.00  0.00    +0.000 C 
ATOM      3  N   PHE A   1       4.710   4.919  15.996  0.00  0.00    +0.000 N 
ATOM      4  CA  PHE A   1       4.299   4.271  17.253  0.00  0.00    +0.000 C 
ATOM      5  C   PHE A   1       5.376   4.304  18.372  0.00  0.00    +0.000 C 
ATOM      6  O   PHE A   1       5.294   3.601  19.376  0.00  0.00    +0.000 OA
ATOM      7  N   PRO A   2       6.267   5.353  18.272  0.00  0.00    +0.000 N 
ATOM      8  CD  PRO A   2       7.197   5.739  19.316  0.00  0.00    +0.000 C 
ATOM      9  CG  PRO A   2       8.151   6.724  18.638  0.00  0.00    +0.000 C 
ATOM     10  CB  PRO A   2       7.398   7.174  17.382  0.00  0.00    +0.000 C 
ATOM     11  CA  PRO A   2       6.669   5.902  16.990  0.00  0.00    +0.000 C 
ATOM     12  H   PHE A   1       4.008   4.944  15.265  0.00  0.00    +0.000 HD
ENDROOT
BRANCH   4  13
ATOM     13  CB  PHE A   1       3.006   4.901  17.817  0.00  0.00    +0.000 C 
BRANCH  13  14
ATOM     14  CG  PHE A   1       2.408   4.108  18.959  0.00  0.00    +0.000 A 
ATOM     15  CD1 PHE A   1       1.987   2.782  18.772  0.00  0.00    +0.000 A 
ATOM     16  CE1 PHE A   1       1.392   2.076  19.820  0.00  0.00    +0.000 A 
ATOM     17  CZ  PHE A   1       1.204   2.685  21.059  0.00  0.00    +0.000 A 
ATOM     18  CE2 PHE A   1       1.620   3.999  21.259  0.00  0.00    +0.000 A 
ATOM     19  CD2 PHE A   1       2.225   4.704  20.218  0.00  0.00    +0.000 A 
ENDBRANCH  13  14
ENDBRANCH   4  13
TORSDOF 2
ENDMDL
MODEL 5
REMARK VINA RESULT:      -7.6      1.261      1.864
REMARK  Name = 
REMARK  2 active torsions:
REMARK  status: ('A' for Active; 'I' for Inactive)
REMARK    1  A    between atoms: CA_4  and  CB_5
REMARK    2  A    between atoms: CB_5  and  CG_6
REMARK                            x       y       z     vdW  Elec       q    Type
REMARK                         _______ _______ _______ _____ _____    ______ ____
ROOT
ATOM      1  O   PRO A   2       5.204   2.242  20.087  0.00  0.00    +0.000 OA
ATOM      2  C   PRO A   2       4.189   2.458  19.437  0.00  0.00    +0.000 C 
ATOM      3  N   PHE A   1       4.207   2.493  18.056  0.00  0.00    +0.000 N 
ATOM      4  CA  PHE A   1       3.291   3.384  17.326  0.00  0.00    +0.000 C 
ATOM      5  C   PHE A   1       1.889   3.534  17.978  0.00  0.00    +0.000 C 
ATOM      6  O   PHE A   1       0.939   4.028  17.374  0.00  0.00    +0.000 OA
ATOM      7  N   PRO A   2       1.870   3.316  19.340  0.00  0.00    +0.000 N 
ATOM      8  CD  PRO A   2       0.749   3.634  20.204  0.00  0.00    +0.000 C 
ATOM      9  CG  PRO A   2       1.078   2.947  21.531  0.00  0.00    +0.000 C 
ATOM     10  CB  PRO A   2       2.585   2.686  21.456  0.00  0.00    +0.000 C 
ATOM     11  CA  PRO A   2       2.770   2.376  19.982  0.00  0.00    +0.000 C 
ATOM     12  H   PHE A   1       5.141   2.412  17.670  0.00  0.00    +0.000 HD
ENDROOT
BRANCH   4  13
ATOM     13  CB  PHE A   1       3.892   4.798  17.157  0.00  0.00    +0.000 C 
BRANCH  13  14
ATOM     14  CG  PHE A   1       5.316   4.903  17.658  0.00  0.00    +0.000 A 
ATOM     15  CD1 PHE A   1       5.602   5.496  18.897  0.00  0.00    +0.000 A 
ATOM     16  CE1 PHE A   1       6.923   5.631  19.327  0.00  0.00    +0.000 A 
ATOM     17  CZ  PHE A   1       7.972   5.185  18.526  0.00  0.00    +0.000 A 
ATOM     18  CE2 PHE A   1       7.703   4.591  17.295  0.00  0.00    +0.000 A 
ATOM     19  CD2 PHE A   1       6.382   4.444  16.867  0.00  0.00    +0.000 A 
ENDBRANCH  13  14
ENDBRANCH   4  13
TORSDOF 2
ENDMDL
MODEL 6
REMARK VINA RESULT:      -7.6      1.238      2.042
REMARK  Name = 
REMARK  2 active torsions:
REMARK  status: ('A' for Active; 'I' for Inactive)
REMARK    1  A    between atoms: CA_4  and  CB_5
REMARK    2  A    between atoms: CB_5  and  CG_6
REMARK                            x       y       z     vdW  Elec       q    Type
REMARK                         _______ _______ _______ _____ _____    ______ ____
ROOT
ATOM      1  O   PRO A   2       5.214   2.284  20.027  0.00  0.00    +0.000 OA
ATOM      2  C   PRO A   2       4.196   2.503  19.385  0.00  0.00    +0.000 C 
ATOM      3  N   PHE A   1       4.210   2.568  18.005  0.00  0.00    +0.000 N 
ATOM      4  CA  PHE A   1       3.282   3.464  17.296  0.00  0.00    +0.000 C 
ATOM      5  C   PHE A   1       1.879   3.583  17.955  0.00  0.00    +0.000 C 
ATOM      6  O   PHE A   1       0.922   4.079  17.364  0.00  0.00    +0.000 OA
ATOM      7  N   PRO A   2       1.867   3.335  19.312  0.00  0.00    +0.000 N 
ATOM      8  CD  PRO A   2       0.744   3.621  20.185  0.00  0.00    +0.000 C 
ATOM      9  CG  PRO A   2       1.084   2.909  21.496  0.00  0.00    +0.000 C 
ATOM     10  CB  PRO A   2       2.594   2.667  21.412  0.00  0.00    +0.000 C 
ATOM     11  CA  PRO A   2       2.779   2.392  19.931  0.00  0.00    +0.000 C 
ATOM     12  H   PHE A   1       5.144   2.506  17.615  0.00  0.00    +0.000 HD
ENDROOT
BRANCH   4  13
ATOM     13  CB  PHE A   1       3.865   4.888  17.157  0.00  0.00    +0.000 C 
BRANCH  13  14
ATOM     14  CG  PHE A   1       5.305   4.988  17.613  0.00  0.00    +0.000 A 
ATOM     15  CD1 PHE A   1       6.348   4.495  16.814  0.00  0.00    +0.000 A 
ATOM     16  CE1 PHE A   1       7.669   4.549  17.264  0.00  0.00    +0.000 A 
ATOM     17  CZ  PHE A   1       7.962   5.086  18.516  0.00  0.00    +0.000 A 
ATOM     18  CE2 PHE A   1       6.937   5.582  19.317  0.00  0.00    +0.000 A 
ATOM     19  CD2 PHE A   1       5.617   5.540  18.866  0.00  0.00    +0.000 A 
ENDBRANCH  13  14
ENDBRANCH   4  13
TORSDOF 2
ENDMDL
MODEL 7
REMARK VINA RESULT:      -7.2      2.152      5.843
REMARK  Name = 
REMARK  2 active torsions:
REMARK  status: ('A' for Active; 'I' for Inactive)
REMARK    1  A    between atoms: CA_4  and  CB_5
REMARK    2  A    between atoms: CB_5  and  CG_6
REMARK                            x       y       z     vdW  Elec       q    Type
REMARK                         _______ _______ _______ _____ _____    ______ ____
ROOT
ATOM      1  O   PRO A   2       8.578   4.113  17.919  0.00  0.00    +0.000 OA
ATOM      2  C   PRO A   2       7.462   4.604  17.815  0.00  0.00    +0.000 C 
ATOM      3  N   PHE A   1       6.726   4.973  18.925  0.00  0.00    +0.000 N 
ATOM      4  CA  PHE A   1       5.257   4.881  18.903  0.00  0.00    +0.000 C 
ATOM      5  C   PHE A   1       4.614   5.228  17.532  0.00  0.00    +0.000 C 
ATOM      6  O   PHE A   1       3.410   5.444  17.414  0.00  0.00    +0.000 OA
ATOM      7  N   PRO A   2       5.441   5.016  16.448  0.00  0.00    +0.000 N 
ATOM      8  CD  PRO A   2       4.997   5.028  15.067  0.00  0.00    +0.000 C 
ATOM      9  CG  PRO A   2       6.289   5.052  14.247  0.00  0.00    +0.000 C 
ATOM     10  CB  PRO A   2       7.365   4.578  15.228  0.00  0.00    +0.000 C 
ATOM     11  CA  PRO A   2       6.879   5.183  16.532  0.00  0.00    +0.000 C 
ATOM     12  H   PHE A   1       7.170   4.713  19.798  0.00  0.00    +0.000 HD
ENDROOT
BRANCH   4  13
ATOM     13  CB  PHE A   1       4.773   3.473  19.315  0.00  0.00    +0.000 C 
BRANCH  13  14
ATOM     14  CG  PHE A   1       3.279   3.402  19.549  0.00  0.00    +0.000 A 
ATOM     15  CD1 PHE A   1       2.660   4.225  20.503  0.00  0.00    +0.000 A 
ATOM     16  CE1 PHE A   1       1.289   4.118  20.744  0.00  0.00    +0.000 A 
ATOM     17  CZ  PHE A   1       0.524   3.187  20.046  0.00  0.00    +0.000 A 
ATOM     18  CE2 PHE A   1       1.124   2.367  19.093  0.00  0.00    +0.000 A 
ATOM     19  CD2 PHE A   1       2.493   2.479  18.841  0.00  0.00    +0.000 A 
ENDBRANCH  13  14
ENDBRANCH   4  13
TORSDOF 2
ENDMDL
MODEL 8
REMARK VINA RESULT:      -7.0      1.742      2.160
REMARK  Name = 
REMARK  2 active torsions:
REMARK  status: ('A' for Active; 'I' for Inactive)
REMARK    1  A    between atoms: CA_4  and  CB_5
REMARK    2  A    between atoms: CB_5  and  CG_6
REMARK                            x       y       z     vdW  Elec       q    Type
REMARK                         _______ _______ _______ _____ _____    ______ ____
ROOT
ATOM      1  O   PRO A   2       6.130   5.245  19.731  0.00  0.00    +0.000 OA
ATOM      2  C   PRO A   2       5.360   4.592  19.040  0.00  0.00    +0.000 C 
ATOM      3  N   PHE A   1       5.797   3.890  17.933  0.00  0.00    +0.000 N 
ATOM      4  CA  PHE A   1       4.915   3.720  16.768  0.00  0.00    +0.000 C 
ATOM      5  C   PHE A   1       3.413   3.537  17.123  0.00  0.00    +0.000 C 
ATOM      6  O   PHE A   1       2.593   3.136  16.300  0.00  0.00    +0.000 OA
ATOM      7  N   PRO A   2       3.042   4.099  18.327  0.00  0.00    +0.000 N 
ATOM      8  CD  PRO A   2       1.669   4.275  18.758  0.00  0.00    +0.000 C 
ATOM      9  CG  PRO A   2       1.774   4.641  20.241  0.00  0.00    +0.000 C 
ATOM     10  CB  PRO A   2       3.224   5.101  20.413  0.00  0.00    +0.000 C 
ATOM     11  CA  PRO A   2       3.954   4.178  19.453  0.00  0.00    +0.000 C 
ATOM     12  H   PHE A   1       6.776   4.051  17.723  0.00  0.00    +0.000 HD
ENDROOT
BRANCH   4  13
ATOM     13  CB  PHE A   1       5.031   4.913  15.792  0.00  0.00    +0.000 C 
BRANCH  13  14
ATOM     14  CG  PHE A   1       5.778   4.570  14.521  0.00  0.00    +0.000 A 
ATOM     15  CD1 PHE A   1       7.018   5.160  14.234  0.00  0.00    +0.000 A 
ATOM     16  CE1 PHE A   1       7.676   4.874  13.036  0.00  0.00    +0.000 A 
ATOM     17  CZ  PHE A   1       7.102   4.006  12.110  0.00  0.00    +0.000 A 
ATOM     18  CE2 PHE A   1       5.873   3.410  12.384  0.00  0.00    +0.000 A 
ATOM     19  CD2 PHE A   1       5.218   3.685  13.585  0.00  0.00    +0.000 A 
ENDBRANCH  13  14
ENDBRANCH   4  13
TORSDOF 2
ENDMDL
MODEL 9
REMARK VINA RESULT:      -7.0      1.143      2.484
REMARK  Name = 
REMARK  2 active torsions:
REMARK  status: ('A' for Active; 'I' for Inactive)
REMARK    1  A    between atoms: CA_4  and  CB_5
REMARK    2  A    between atoms: CB_5  and  CG_6
REMARK                            x       y       z     vdW  Elec       q    Type
REMARK                         _______ _______ _______ _____ _____    ______ ____
ROOT
ATOM      1  O   PRO A   2       0.705   4.169  17.320  0.00  0.00    +0.000 OA
ATOM      2  C   PRO A   2       1.737   4.264  17.970  0.00  0.00    +0.000 C 
ATOM      3  N   PHE A   1       2.845   4.928  17.478  0.00  0.00    +0.000 N 
ATOM      4  CA  PHE A   1       4.198   4.485  17.848  0.00  0.00    +0.000 C 
ATOM      5  C   PHE A   1       4.326   3.967  19.308  0.00  0.00    +0.000 C 
ATOM      6  O   PHE A   1       5.418   3.802  19.847  0.00  0.00    +0.000 OA
ATOM      7  N   PRO A   2       3.153   3.471  19.838  0.00  0.00    +0.000 N 
ATOM      8  CD  PRO A   2       3.070   2.714  21.073  0.00  0.00    +0.000 C 
ATOM      9  CG  PRO A   2       1.574   2.656  21.389  0.00  0.00    +0.000 C 
ATOM     10  CB  PRO A   2       0.894   2.984  20.057  0.00  0.00    +0.000 C 
ATOM     11  CA  PRO A   2       1.854   4.000  19.465  0.00  0.00    +0.000 C 
ATOM     12  H   PHE A   1       2.730   5.233  16.518  0.00  0.00    +0.000 HD
ENDROOT
BRANCH   4  13
ATOM     13  CB  PHE A   1       4.709   3.375  16.903  0.00  0.00    +0.000 C 
BRANCH  13  14
ATOM     14  CG  PHE A   1       5.652   3.888  15.837  0.00  0.00    +0.000 A 
ATOM     15  CD1 PHE A   1       6.725   4.729  16.170  0.00  0.00    +0.000 A 
ATOM     16  CE1 PHE A   1       7.561   5.236  15.173  0.00  0.00    +0.000 A 
ATOM     17  CZ  PHE A   1       7.333   4.917  13.836  0.00  0.00    +0.000 A 
ATOM     18  CE2 PHE A   1       6.274   4.080  13.492  0.00  0.00    +0.000 A 
ATOM     19  CD2 PHE A   1       5.443   3.563  14.486  0.00  0.00    +0.000 A 
ENDBRANCH  13  14
ENDBRANCH   4  13
TORSDOF 2
ENDMDL
