MODEL 1
REMARK VINA RESULT:     -10.2      0.000      0.000
REMARK  Name = 
REMARK  6 active torsions:
REMARK  status: ('A' for Active; 'I' for Inactive)
REMARK    1  A    between atoms: C_1  and  N_2
REMARK    2  A    between atoms: C_6  and  C_7
REMARK    3  A    between atoms: C_10  and  C_11
REMARK    4  A    between atoms: C_13  and  N_14
REMARK    5  A    between atoms: N_14  and  S_15
REMARK    6  A    between atoms: S_15  and  C_18
REMARK                            x       y       z     vdW  Elec       q    Type
REMARK                         _______ _______ _______ _____ _____    ______ ____
ROOT
ATOM      1  C   UNL     1       3.001   5.859  18.241  0.00  0.00    +0.000 A 
ATOM      2  C   UNL     1       4.354   5.553  18.500  0.00  0.00    +0.000 A 
ATOM      3  C   UNL     1       4.844   4.256  18.304  0.00  0.00    +0.000 A 
ATOM      4  C   UNL     1       3.993   3.248  17.838  0.00  0.00    +0.000 A 
ATOM      5  C   UNL     1       2.661   3.536  17.560  0.00  0.00    +0.000 A 
ATOM      6  C   UNL     1       2.179   4.827  17.757  0.00  0.00    +0.000 A 
ATOM      7  F   UNL     1       0.887   5.054  17.458  0.00  0.00    +0.000 F 
ENDROOT
BRANCH   1  11
ATOM      8  C   UNL     1       1.385   9.224  19.483  0.00  0.00    +0.000 A 
ATOM      9  C   UNL     1       1.728   9.390  18.156  0.00  0.00    +0.000 A 
ATOM     10  C   UNL     1       2.294   8.224  17.589  0.00  0.00    +0.000 A 
ATOM     11  C   UNL     1       2.404   7.177  18.487  0.00  0.00    +0.000 A 
ATOM     12  S   UNL     1       1.773   7.637  20.014  0.00  0.00    +0.000 S 
BRANCH   8  18
ATOM     13  C   UNL     1      -1.516  15.497  22.284  0.00  0.00    +0.000 C 
ATOM     14  N   UNL     1      -0.944  14.213  22.002  0.00  0.00    +0.000 N 
ATOM     15  C   UNL     1      -0.189  13.923  20.797  0.00  0.00    +0.000 C 
ATOM     16  C   UNL     1       0.047  12.450  20.906  0.00  0.00    +0.000 A 
ATOM     17  C   UNL     1       0.710  11.588  20.047  0.00  0.00    +0.000 A 
ATOM     18  C   UNL     1       0.758  10.218  20.368  0.00  0.00    +0.000 A 
ATOM     19  C   UNL     1       0.137   9.762  21.561  0.00  0.00    +0.000 A 
ATOM     20  C   UNL     1      -0.527  10.632  22.423  0.00  0.00    +0.000 A 
ATOM     21  C   UNL     1      -0.557  11.964  22.068  0.00  0.00    +0.000 A 
ATOM     22  C   UNL     1      -1.202  13.078  22.763  0.00  0.00    +0.000 C 
ATOM     23  O   UNL     1      -1.849  12.984  23.784  0.00  0.00    +0.000 OA
ENDBRANCH   8  18
ENDBRANCH   1  11
BRANCH   3  24
ATOM     24  N   UNL     1       6.211   3.939  18.519  0.00  0.00    +0.000 N 
ATOM     25  H   UNL     1       6.477   2.988  18.775  0.00  0.00    +0.000 HD
BRANCH  24  26
ATOM     26  S   UNL     1       7.427   4.753  17.672  0.00  0.00    +0.000 S 
ATOM     27  O   UNL     1       7.313   6.156  18.018  0.00  0.00    +0.000 OA
ATOM     28  O   UNL     1       8.677   4.050  17.900  0.00  0.00    +0.000 OA
BRANCH  26  29
ATOM     29  C   UNL     1       6.991   4.573  15.945  0.00  0.00    +0.000 A 
ATOM     30  C   UNL     1       6.051   3.620  15.577  0.00  0.00    +0.000 A 
ATOM     31  C   UNL     1       5.761   3.492  14.225  0.00  0.00    +0.000 A 
ATOM     32  C   UNL     1       6.427   4.300  13.307  0.00  0.00    +0.000 A 
ATOM     33  C   UNL     1       7.351   5.224  13.775  0.00  0.00    +0.000 A 
ATOM     34  N   UNL     1       7.642   5.400  15.083  0.00  0.00    +0.000 NA
ENDBRANCH  26  29
ENDBRANCH  24  26
ENDBRANCH   3  24
TORSDOF 5
ENDMDL
MODEL 2
REMARK VINA RESULT:     -10.0      1.031      1.139
REMARK  Name = 
REMARK  6 active torsions:
REMARK  status: ('A' for Active; 'I' for Inactive)
REMARK    1  A    between atoms: C_1  and  N_2
REMARK    2  A    between atoms: C_6  and  C_7
REMARK    3  A    between atoms: C_10  and  C_11
REMARK    4  A    between atoms: C_13  and  N_14
REMARK    5  A    between atoms: N_14  and  S_15
REMARK    6  A    between atoms: S_15  and  C_18
REMARK                            x       y       z     vdW  Elec       q    Type
REMARK                         _______ _______ _______ _____ _____    ______ ____
ROOT
ATOM      1  C   UNL     1       3.030   6.049  18.761  0.00  0.00    +0.000 A 
ATOM      2  C   UNL     1       4.399   5.922  19.076  0.00  0.00    +0.000 A 
ATOM      3  C   UNL     1       5.045   4.684  18.969  0.00  0.00    +0.000 A 
ATOM      4  C   UNL     1       4.336   3.558  18.537  0.00  0.00    +0.000 A 
ATOM      5  C   UNL     1       2.990   3.670  18.204  0.00  0.00    +0.000 A 
ATOM      6  C   UNL     1       2.353   4.902  18.313  0.00  0.00    +0.000 A 
ATOM      7  F   UNL     1       1.055   4.956  17.964  0.00  0.00    +0.000 F 
ENDROOT
BRANCH   1  11
ATOM      8  C   UNL     1       0.987   9.259  19.761  0.00  0.00    +0.000 A 
ATOM      9  C   UNL     1       1.352   9.392  18.436  0.00  0.00    +0.000 A 
ATOM     10  C   UNL     1       2.071   8.273  17.953  0.00  0.00    +0.000 A 
ATOM     11  C   UNL     1       2.273   7.298  18.913  0.00  0.00    +0.000 A 
ATOM     12  S   UNL     1       1.542   7.762  20.393  0.00  0.00    +0.000 S 
BRANCH   8  18
ATOM     13  C   UNL     1      -3.221  15.005  21.973  0.00  0.00    +0.000 C 
ATOM     14  N   UNL     1      -2.342  13.884  21.807  0.00  0.00    +0.000 N 
ATOM     15  C   UNL     1      -1.697  13.556  20.549  0.00  0.00    +0.000 C 
ATOM     16  C   UNL     1      -1.033  12.251  20.854  0.00  0.00    +0.000 A 
ATOM     17  C   UNL     1      -0.265  11.431  20.042  0.00  0.00    +0.000 A 
ATOM     18  C   UNL     1       0.219  10.219  20.570  0.00  0.00    +0.000 A 
ATOM     19  C   UNL     1      -0.086   9.875  21.914  0.00  0.00    +0.000 A 
ATOM     20  C   UNL     1      -0.857  10.703  22.727  0.00  0.00    +0.000 A 
ATOM     21  C   UNL     1      -1.317  11.877  22.170  0.00  0.00    +0.000 A 
ATOM     22  C   UNL     1      -2.161  12.905  22.778  0.00  0.00    +0.000 C 
ATOM     23  O   UNL     1      -2.617  12.861  23.900  0.00  0.00    +0.000 OA
ENDBRANCH   8  18
ENDBRANCH   1  11
BRANCH   3  24
ATOM     24  N   UNL     1       6.432   4.544  19.241  0.00  0.00    +0.000 N 
ATOM     25  H   UNL     1       6.760   3.768  19.816  0.00  0.00    +0.000 HD
BRANCH  24  26
ATOM     26  S   UNL     1       7.586   5.061  18.119  0.00  0.00    +0.000 S 
ATOM     27  O   UNL     1       7.888   6.443  18.434  0.00  0.00    +0.000 OA
ATOM     28  O   UNL     1       8.651   4.076  18.088  0.00  0.00    +0.000 OA
BRANCH  26  29
ATOM     29  C   UNL     1       6.745   5.027  16.539  0.00  0.00    +0.000 A 
ATOM     30  C   UNL     1       5.977   6.117  16.154  0.00  0.00    +0.000 A 
ATOM     31  C   UNL     1       5.319   6.038  14.934  0.00  0.00    +0.000 A 
ATOM     32  C   UNL     1       5.440   4.883  14.167  0.00  0.00    +0.000 A 
ATOM     33  C   UNL     1       6.233   3.846  14.640  0.00  0.00    +0.000 A 
ATOM     34  N   UNL     1       6.912   3.892  15.808  0.00  0.00    +0.000 NA
ENDBRANCH  26  29
ENDBRANCH  24  26
ENDBRANCH   3  24
TORSDOF 5
ENDMDL
MODEL 3
REMARK VINA RESULT:      -9.9      1.432      1.827
REMARK  Name = 
REMARK  6 active torsions:
REMARK  status: ('A' for Active; 'I' for Inactive)
REMARK    1  A    between atoms: C_1  and  N_2
REMARK    2  A    between atoms: C_6  and  C_7
REMARK    3  A    between atoms: C_10  and  C_11
REMARK    4  A    between atoms: C_13  and  N_14
REMARK    5  A    between atoms: N_14  and  S_15
REMARK    6  A    between atoms: S_15  and  C_18
REMARK                            x       y       z     vdW  Elec       q    Type
REMARK                         _______ _______ _______ _____ _____    ______ ____
ROOT
ATOM      1  C   UNL     1       3.089   6.148  18.817  0.00  0.00    +0.000 A 
ATOM      2  C   UNL     1       4.006   5.680  17.852  0.00  0.00    +0.000 A 
ATOM      3  C   UNL     1       4.679   4.466  18.036  0.00  0.00    +0.000 A 
ATOM      4  C   UNL     1       4.440   3.698  19.180  0.00  0.00    +0.000 A 
ATOM      5  C   UNL     1       3.525   4.136  20.133  0.00  0.00    +0.000 A 
ATOM      6  C   UNL     1       2.860   5.343  19.945  0.00  0.00    +0.000 A 
ATOM      7  F   UNL     1       1.975   5.711  20.890  0.00  0.00    +0.000 F 
ENDROOT
BRANCH   1  11
ATOM      8  C   UNL     1       1.129   9.543  19.158  0.00  0.00    +0.000 A 
ATOM      9  C   UNL     1       1.690   9.509  17.897  0.00  0.00    +0.000 A 
ATOM     10  C   UNL     1       2.400   8.311  17.646  0.00  0.00    +0.000 A 
ATOM     11  C   UNL     1       2.399   7.441  18.722  0.00  0.00    +0.000 A 
ATOM     12  S   UNL     1       1.490   8.101  20.018  0.00  0.00    +0.000 S 
BRANCH   8  18
ATOM     13  C   UNL     1      -2.381  14.114  23.891  0.00  0.00    +0.000 C 
ATOM     14  N   UNL     1      -1.876  13.334  22.798  0.00  0.00    +0.000 N 
ATOM     15  C   UNL     1      -1.181  12.072  22.972  0.00  0.00    +0.000 C 
ATOM     16  C   UNL     1      -0.735  11.751  21.581  0.00  0.00    +0.000 A 
ATOM     17  C   UNL     1      -0.014  10.668  21.105  0.00  0.00    +0.000 A 
ATOM     18  C   UNL     1       0.313  10.621  19.737  0.00  0.00    +0.000 A 
ATOM     19  C   UNL     1      -0.111  11.677  18.885  0.00  0.00    +0.000 A 
ATOM     20  C   UNL     1      -0.838  12.763  19.367  0.00  0.00    +0.000 A 
ATOM     21  C   UNL     1      -1.130  12.772  20.715  0.00  0.00    +0.000 A 
ATOM     22  C   UNL     1      -1.845  13.791  21.485  0.00  0.00    +0.000 C 
ATOM     23  O   UNL     1      -2.282  14.828  21.035  0.00  0.00    +0.000 OA
ENDBRANCH   8  18
ENDBRANCH   1  11
BRANCH   3  24
ATOM     24  N   UNL     1       5.574   3.958  17.057  0.00  0.00    +0.000 N 
ATOM     25  H   UNL     1       5.224   3.348  16.318  0.00  0.00    +0.000 HD
BRANCH  24  26
ATOM     26  S   UNL     1       6.927   4.853  16.581  0.00  0.00    +0.000 S 
ATOM     27  O   UNL     1       6.645   6.240  16.895  0.00  0.00    +0.000 OA
ATOM     28  O   UNL     1       8.104   4.210  17.135  0.00  0.00    +0.000 OA
BRANCH  26  29
ATOM     29  C   UNL     1       6.987   4.691  14.799  0.00  0.00    +0.000 A 
ATOM     30  C   UNL     1       6.143   3.787  14.170  0.00  0.00    +0.000 A 
ATOM     31  C   UNL     1       6.241   3.671  12.790  0.00  0.00    +0.000 A 
ATOM     32  C   UNL     1       7.178   4.442  12.106  0.00  0.00    +0.000 A 
ATOM     33  C   UNL     1       7.977   5.319  12.827  0.00  0.00    +0.000 A 
ATOM     34  N   UNL     1       7.895   5.482  14.166  0.00  0.00    +0.000 NA
ENDBRANCH  26  29
ENDBRANCH  24  26
ENDBRANCH   3  24
TORSDOF 5
ENDMDL
MODEL 4
REMARK VINA RESULT:      -9.6      1.854      2.160
REMARK  Name = 
REMARK  6 active torsions:
REMARK  status: ('A' for Active; 'I' for Inactive)
REMARK    1  A    between atoms: C_1  and  N_2
REMARK    2  A    between atoms: C_6  and  C_7
REMARK    3  A    between atoms: C_10  and  C_11
REMARK    4  A    between atoms: C_13  and  N_14
REMARK    5  A    between atoms: N_14  and  S_15
REMARK    6  A    between atoms: S_15  and  C_18
REMARK                            x       y       z     vdW  Elec       q    Type
REMARK                         _______ _______ _______ _____ _____    ______ ____
ROOT
ATOM      1  C   UNL     1       2.763   7.220  18.724  0.00  0.00    +0.000 A 
ATOM      2  C   UNL     1       3.700   7.155  17.671  0.00  0.00    +0.000 A 
ATOM      3  C   UNL     1       4.614   6.098  17.593  0.00  0.00    +0.000 A 
ATOM      4  C   UNL     1       4.602   5.086  18.559  0.00  0.00    +0.000 A 
ATOM      5  C   UNL     1       3.673   5.125  19.594  0.00  0.00    +0.000 A 
ATOM      6  C   UNL     1       2.767   6.178  19.667  0.00  0.00    +0.000 A 
ATOM      7  F   UNL     1       1.881   6.157  20.680  0.00  0.00    +0.000 F 
ENDROOT
BRANCH   1  11
ATOM      8  C   UNL     1       0.286  10.079  19.808  0.00  0.00    +0.000 A 
ATOM      9  C   UNL     1       0.530  10.226  18.456  0.00  0.00    +0.000 A 
ATOM     10  C   UNL     1       1.390   9.227  17.944  0.00  0.00    +0.000 A 
ATOM     11  C   UNL     1       1.820   8.331  18.907  0.00  0.00    +0.000 A 
ATOM     12  S   UNL     1       1.127   8.715  20.427  0.00  0.00    +0.000 S 
BRANCH   8  18
ATOM     13  C   UNL     1      -5.058  14.671  22.248  0.00  0.00    +0.000 C 
ATOM     14  N   UNL     1      -3.907  13.851  22.009  0.00  0.00    +0.000 N 
ATOM     15  C   UNL     1      -3.470  13.457  20.682  0.00  0.00    +0.000 C 
ATOM     16  C   UNL     1      -2.353  12.507  20.976  0.00  0.00    +0.000 A 
ATOM     17  C   UNL     1      -1.541  11.791  20.110  0.00  0.00    +0.000 A 
ATOM     18  C   UNL     1      -0.574  10.924  20.651  0.00  0.00    +0.000 A 
ATOM     19  C   UNL     1      -0.452  10.812  22.062  0.00  0.00    +0.000 A 
ATOM     20  C   UNL     1      -1.268  11.535  22.929  0.00  0.00    +0.000 A 
ATOM     21  C   UNL     1      -2.207  12.368  22.358  0.00  0.00    +0.000 A 
ATOM     22  C   UNL     1      -3.202  13.209  23.022  0.00  0.00    +0.000 C 
ATOM     23  O   UNL     1      -3.368  13.283  24.221  0.00  0.00    +0.000 OA
ENDBRANCH   8  18
ENDBRANCH   1  11
BRANCH   3  24
ATOM     24  N   UNL     1       5.537   5.993  16.518  0.00  0.00    +0.000 N 
ATOM     25  H   UNL     1       6.072   6.812  16.227  0.00  0.00    +0.000 HD
BRANCH  24  26
ATOM     26  S   UNL     1       6.347   4.540  16.218  0.00  0.00    +0.000 S 
ATOM     27  O   UNL     1       7.604   4.604  16.937  0.00  0.00    +0.000 OA
ATOM     28  O   UNL     1       5.421   3.452  16.475  0.00  0.00    +0.000 OA
BRANCH  26  29
ATOM     29  C   UNL     1       6.711   4.564  14.466  0.00  0.00    +0.000 A 
ATOM     30  C   UNL     1       6.027   3.705  13.617  0.00  0.00    +0.000 A 
ATOM     31  C   UNL     1       6.360   3.734  12.270  0.00  0.00    +0.000 A 
ATOM     32  C   UNL     1       7.360   4.598  11.834  0.00  0.00    +0.000 A 
ATOM     33  C   UNL     1       7.986   5.420  12.761  0.00  0.00    +0.000 A 
ATOM     34  N   UNL     1       7.675   5.442  14.076  0.00  0.00    +0.000 NA
ENDBRANCH  26  29
ENDBRANCH  24  26
ENDBRANCH   3  24
TORSDOF 5
ENDMDL
MODEL 5
REMARK VINA RESULT:      -9.6      2.312      3.080
REMARK  Name = 
REMARK  6 active torsions:
REMARK  status: ('A' for Active; 'I' for Inactive)
REMARK    1  A    between atoms: C_1  and  N_2
REMARK    2  A    between atoms: C_6  and  C_7
REMARK    3  A    between atoms: C_10  and  C_11
REMARK    4  A    between atoms: C_13  and  N_14
REMARK    5  A    between atoms: N_14  and  S_15
REMARK    6  A    between atoms: S_15  and  C_18
REMARK                            x       y       z     vdW  Elec       q    Type
REMARK                         _______ _______ _______ _____ _____    ______ ____
ROOT
ATOM      1  C   UNL     1       2.722   5.177  18.464  0.00  0.00    +0.000 A 
ATOM      2  C   UNL     1       3.926   5.023  17.745  0.00  0.00    +0.000 A 
ATOM      3  C   UNL     1       4.313   3.767  17.262  0.00  0.00    +0.000 A 
ATOM      4  C   UNL     1       3.500   2.650  17.480  0.00  0.00    +0.000 A 
ATOM      5  C   UNL     1       2.300   2.788  18.170  0.00  0.00    +0.000 A 
ATOM      6  C   UNL     1       1.920   4.038  18.649  0.00  0.00    +0.000 A 
ATOM      7  F   UNL     1       0.744   4.117  19.297  0.00  0.00    +0.000 F 
ENDROOT
BRANCH   1  11
ATOM      8  C   UNL     1       1.496   8.776  19.479  0.00  0.00    +0.000 A 
ATOM      9  C   UNL     1       1.533   8.008  20.626  0.00  0.00    +0.000 A 
ATOM     10  C   UNL     1       1.993   6.692  20.387  0.00  0.00    +0.000 A 
ATOM     11  C   UNL     1       2.286   6.448  19.057  0.00  0.00    +0.000 A 
ATOM     12  S   UNL     1       2.022   7.862  18.123  0.00  0.00    +0.000 S 
BRANCH   8  18
ATOM     13  C   UNL     1      -1.779  15.390  20.549  0.00  0.00    +0.000 C 
ATOM     14  N   UNL     1      -1.085  14.217  20.102  0.00  0.00    +0.000 N 
ATOM     15  C   UNL     1      -1.338  12.890  20.632  0.00  0.00    +0.000 C 
ATOM     16  C   UNL     1      -0.279  12.067  19.969  0.00  0.00    +0.000 A 
ATOM     17  C   UNL     1      -0.002  10.714  20.082  0.00  0.00    +0.000 A 
ATOM     18  C   UNL     1       1.092  10.186  19.369  0.00  0.00    +0.000 A 
ATOM     19  C   UNL     1       1.871  11.049  18.553  0.00  0.00    +0.000 A 
ATOM     20  C   UNL     1       1.588  12.408  18.441  0.00  0.00    +0.000 A 
ATOM     21  C   UNL     1       0.513  12.886  19.161  0.00  0.00    +0.000 A 
ATOM     22  C   UNL     1       0.015  14.258  19.252  0.00  0.00    +0.000 C 
ATOM     23  O   UNL     1       0.509  15.219  18.702  0.00  0.00    +0.000 OA
ENDBRANCH   8  18
ENDBRANCH   1  11
BRANCH   3  24
ATOM     24  N   UNL     1       5.500   3.599  16.501  0.00  0.00    +0.000 N 
ATOM     25  H   UNL     1       5.691   2.705  16.048  0.00  0.00    +0.000 HD
BRANCH  24  26
ATOM     26  S   UNL     1       6.189   4.907  15.680  0.00  0.00    +0.000 S 
ATOM     27  O   UNL     1       7.183   4.360  14.778  0.00  0.00    +0.000 OA
ATOM     28  O   UNL     1       5.109   5.724  15.157  0.00  0.00    +0.000 OA
BRANCH  26  29
ATOM     29  C   UNL     1       7.044   5.848  16.939  0.00  0.00    +0.000 A 
ATOM     30  C   UNL     1       7.503   5.200  18.078  0.00  0.00    +0.000 A 
ATOM     31  C   UNL     1       8.136   5.971  19.044  0.00  0.00    +0.000 A 
ATOM     32  C   UNL     1       8.266   7.343  18.843  0.00  0.00    +0.000 A 
ATOM     33  C   UNL     1       7.774   7.898  17.669  0.00  0.00    +0.000 A 
ATOM     34  N   UNL     1       7.176   7.179  16.692  0.00  0.00    +0.000 NA
ENDBRANCH  26  29
ENDBRANCH  24  26
ENDBRANCH   3  24
TORSDOF 5
ENDMDL
MODEL 6
REMARK VINA RESULT:      -9.6      1.650      2.014
REMARK  Name = 
REMARK  6 active torsions:
REMARK  status: ('A' for Active; 'I' for Inactive)
REMARK    1  A    between atoms: C_1  and  N_2
REMARK    2  A    between atoms: C_6  and  C_7
REMARK    3  A    between atoms: C_10  and  C_11
REMARK    4  A    between atoms: C_13  and  N_14
REMARK    5  A    between atoms: N_14  and  S_15
REMARK    6  A    between atoms: S_15  and  C_18
REMARK                            x       y       z     vdW  Elec       q    Type
REMARK                         _______ _______ _______ _____ _____    ______ ____
ROOT
ATOM      1  C   UNL     1       2.843   5.528  18.828  0.00  0.00    +0.000 A 
ATOM      2  C   UNL     1       4.141   5.563  18.275  0.00  0.00    +0.000 A 
ATOM      3  C   UNL     1       4.693   4.424  17.677  0.00  0.00    +0.000 A 
ATOM      4  C   UNL     1       3.956   3.237  17.615  0.00  0.00    +0.000 A 
ATOM      5  C   UNL     1       2.668   3.190  18.139  0.00  0.00    +0.000 A 
ATOM      6  C   UNL     1       2.124   4.324  18.733  0.00  0.00    +0.000 A 
ATOM      7  F   UNL     1       0.870   4.228  19.210  0.00  0.00    +0.000 F 
ENDROOT
BRANCH   1  11
ATOM      8  C   UNL     1       1.189   8.840  20.161  0.00  0.00    +0.000 A 
ATOM      9  C   UNL     1       1.151   7.913  21.184  0.00  0.00    +0.000 A 
ATOM     10  C   UNL     1       1.751   6.682  20.828  0.00  0.00    +0.000 A 
ATOM     11  C   UNL     1       2.227   6.662  19.529  0.00  0.00    +0.000 A 
ATOM     12  S   UNL     1       1.957   8.179  18.775  0.00  0.00    +0.000 S 
BRANCH   8  18
ATOM     13  C   UNL     1      -0.198  16.002  18.614  0.00  0.00    +0.000 C 
ATOM     14  N   UNL     1      -0.028  14.685  19.155  0.00  0.00    +0.000 N 
ATOM     15  C   UNL     1       0.935  13.729  18.640  0.00  0.00    +0.000 C 
ATOM     16  C   UNL     1       0.618  12.494  19.420  0.00  0.00    +0.000 A 
ATOM     17  C   UNL     1       1.196  11.235  19.370  0.00  0.00    +0.000 A 
ATOM     18  C   UNL     1       0.678  10.219  20.196  0.00  0.00    +0.000 A 
ATOM     19  C   UNL     1      -0.412  10.513  21.058  0.00  0.00    +0.000 A 
ATOM     20  C   UNL     1      -0.990  11.780  21.107  0.00  0.00    +0.000 A 
ATOM     21  C   UNL     1      -0.457  12.743  20.277  0.00  0.00    +0.000 A 
ATOM     22  C   UNL     1      -0.882  14.132  20.103  0.00  0.00    +0.000 C 
ATOM     23  O   UNL     1      -1.818  14.653  20.672  0.00  0.00    +0.000 OA
ENDBRANCH   8  18
ENDBRANCH   1  11
BRANCH   3  24
ATOM     24  N   UNL     1       5.980   4.451  17.078  0.00  0.00    +0.000 N 
ATOM     25  H   UNL     1       6.443   3.576  16.829  0.00  0.00    +0.000 HD
BRANCH  24  26
ATOM     26  S   UNL     1       6.439   5.739  16.083  0.00  0.00    +0.000 S 
ATOM     27  O   UNL     1       5.311   6.648  16.025  0.00  0.00    +0.000 OA
ATOM     28  O   UNL     1       7.731   6.218  16.542  0.00  0.00    +0.000 OA
BRANCH  26  29
ATOM     29  C   UNL     1       6.653   5.019  14.459  0.00  0.00    +0.000 A 
ATOM     30  C   UNL     1       5.796   4.009  14.045  0.00  0.00    +0.000 A 
ATOM     31  C   UNL     1       6.014   3.457  12.790  0.00  0.00    +0.000 A 
ATOM     32  C   UNL     1       7.075   3.919  12.017  0.00  0.00    +0.000 A 
ATOM     33  C   UNL     1       7.877   4.935  12.520  0.00  0.00    +0.000 A 
ATOM     34  N   UNL     1       7.684   5.518  13.724  0.00  0.00    +0.000 NA
ENDBRANCH  26  29
ENDBRANCH  24  26
ENDBRANCH   3  24
TORSDOF 5
ENDMDL
MODEL 7
REMARK VINA RESULT:      -9.6      2.147      2.641
REMARK  Name = 
REMARK  6 active torsions:
REMARK  status: ('A' for Active; 'I' for Inactive)
REMARK    1  A    between atoms: C_1  and  N_2
REMARK    2  A    between atoms: C_6  and  C_7
REMARK    3  A    between atoms: C_10  and  C_11
REMARK    4  A    between atoms: C_13  and  N_14
REMARK    5  A    between atoms: N_14  and  S_15
REMARK    6  A    between atoms: S_15  and  C_18
REMARK                            x       y       z     vdW  Elec       q    Type
REMARK                         _______ _______ _______ _____ _____    ______ ____
ROOT
ATOM      1  C   UNL     1       2.972   5.753  19.487  0.00  0.00    +0.000 A 
ATOM      2  C   UNL     1       4.314   5.620  19.073  0.00  0.00    +0.000 A 
ATOM      3  C   UNL     1       4.956   4.376  19.117  0.00  0.00    +0.000 A 
ATOM      4  C   UNL     1       4.265   3.246  19.567  0.00  0.00    +0.000 A 
ATOM      5  C   UNL     1       2.935   3.356  19.962  0.00  0.00    +0.000 A 
ATOM      6  C   UNL     1       2.303   4.594  19.916  0.00  0.00    +0.000 A 
ATOM      7  F   UNL     1       1.012   4.640  20.294  0.00  0.00    +0.000 F 
ENDROOT
BRANCH   1  11
ATOM      8  C   UNL     1       0.988   9.076  20.195  0.00  0.00    +0.000 A 
ATOM      9  C   UNL     1       1.466   9.142  18.901  0.00  0.00    +0.000 A 
ATOM     10  C   UNL     1       2.175   7.978  18.521  0.00  0.00    +0.000 A 
ATOM     11  C   UNL     1       2.258   7.035  19.530  0.00  0.00    +0.000 A 
ATOM     12  S   UNL     1       1.426   7.584  20.925  0.00  0.00    +0.000 S 
BRANCH   8  18
ATOM     13  C   UNL     1      -3.270  14.979  21.816  0.00  0.00    +0.000 C 
ATOM     14  N   UNL     1      -2.391  13.847  21.766  0.00  0.00    +0.000 N 
ATOM     15  C   UNL     1      -1.704  13.424  20.560  0.00  0.00    +0.000 C 
ATOM     16  C   UNL     1      -1.057  12.145  20.986  0.00  0.00    +0.000 A 
ATOM     17  C   UNL     1      -0.264  11.265  20.267  0.00  0.00    +0.000 A 
ATOM     18  C   UNL     1       0.195  10.095  20.901  0.00  0.00    +0.000 A 
ATOM     19  C   UNL     1      -0.158   9.854  22.256  0.00  0.00    +0.000 A 
ATOM     20  C   UNL     1      -0.953  10.742  22.976  0.00  0.00    +0.000 A 
ATOM     21  C   UNL     1      -1.388  11.872  22.316  0.00  0.00    +0.000 A 
ATOM     22  C   UNL     1      -2.249  12.944  22.814  0.00  0.00    +0.000 C 
ATOM     23  O   UNL     1      -2.744  12.986  23.920  0.00  0.00    +0.000 OA
ENDBRANCH   8  18
ENDBRANCH   1  11
BRANCH   3  24
ATOM     24  N   UNL     1       6.292   4.214  18.665  0.00  0.00    +0.000 N 
ATOM     25  H   UNL     1       6.807   3.364  18.898  0.00  0.00    +0.000 HD
BRANCH  24  26
ATOM     26  S   UNL     1       6.799   4.908  17.209  0.00  0.00    +0.000 S 
ATOM     27  O   UNL     1       7.914   4.115  16.732  0.00  0.00    +0.000 OA
ATOM     28  O   UNL     1       5.628   5.090  16.371  0.00  0.00    +0.000 OA
BRANCH  26  29
ATOM     29  C   UNL     1       7.422   6.525  17.658  0.00  0.00    +0.000 A 
ATOM     30  C   UNL     1       8.222   6.657  18.784  0.00  0.00    +0.000 A 
ATOM     31  C   UNL     1       8.662   7.932  19.114  0.00  0.00    +0.000 A 
ATOM     32  C   UNL     1       8.276   9.011  18.323  0.00  0.00    +0.000 A 
ATOM     33  C   UNL     1       7.473   8.776  17.215  0.00  0.00    +0.000 A 
ATOM     34  N   UNL     1       7.046   7.548  16.844  0.00  0.00    +0.000 NA
ENDBRANCH  26  29
ENDBRANCH  24  26
ENDBRANCH   3  24
TORSDOF 5
ENDMDL
MODEL 8
REMARK VINA RESULT:      -9.6      1.770      2.261
REMARK  Name = 
REMARK  6 active torsions:
REMARK  status: ('A' for Active; 'I' for Inactive)
REMARK    1  A    between atoms: C_1  and  N_2
REMARK    2  A    between atoms: C_6  and  C_7
REMARK    3  A    between atoms: C_10  and  C_11
REMARK    4  A    between atoms: C_13  and  N_14
REMARK    5  A    between atoms: N_14  and  S_15
REMARK    6  A    between atoms: S_15  and  C_18
REMARK                            x       y       z     vdW  Elec       q    Type
REMARK                         _______ _______ _______ _____ _____    ______ ____
ROOT
ATOM      1  C   UNL     1       2.736   5.245  18.719  0.00  0.00    +0.000 A 
ATOM      2  C   UNL     1       3.969   5.116  18.045  0.00  0.00    +0.000 A 
ATOM      3  C   UNL     1       4.404   3.866  17.586  0.00  0.00    +0.000 A 
ATOM      4  C   UNL     1       3.613   2.730  17.786  0.00  0.00    +0.000 A 
ATOM      5  C   UNL     1       2.386   2.843  18.433  0.00  0.00    +0.000 A 
ATOM      6  C   UNL     1       1.958   4.087  18.887  0.00  0.00    +0.000 A 
ATOM      7  F   UNL     1       0.758   4.141  19.492  0.00  0.00    +0.000 F 
ENDROOT
BRANCH   1  11
ATOM      8  C   UNL     1       1.396   8.823  19.659  0.00  0.00    +0.000 A 
ATOM      9  C   UNL     1       1.386   8.057  20.808  0.00  0.00    +0.000 A 
ATOM     10  C   UNL     1       1.881   6.749  20.597  0.00  0.00    +0.000 A 
ATOM     11  C   UNL     1       2.248   6.509  19.285  0.00  0.00    +0.000 A 
ATOM     12  S   UNL     1       2.009   7.916  18.335  0.00  0.00    +0.000 S 
BRANCH   8  18
ATOM     13  C   UNL     1      -1.877  15.445  20.684  0.00  0.00    +0.000 C 
ATOM     14  N   UNL     1      -1.197  14.263  20.240  0.00  0.00    +0.000 N 
ATOM     15  C   UNL     1      -1.409  12.952  20.826  0.00  0.00    +0.000 C 
ATOM     16  C   UNL     1      -0.380  12.116  20.135  0.00  0.00    +0.000 A 
ATOM     17  C   UNL     1      -0.085  10.769  20.277  0.00  0.00    +0.000 A 
ATOM     18  C   UNL     1       0.973  10.226  19.524  0.00  0.00    +0.000 A 
ATOM     19  C   UNL     1       1.700  11.066  18.639  0.00  0.00    +0.000 A 
ATOM     20  C   UNL     1       1.399  12.419  18.497  0.00  0.00    +0.000 A 
ATOM     21  C   UNL     1       0.360  12.912  19.258  0.00  0.00    +0.000 A 
ATOM     22  C   UNL     1      -0.145  14.283  19.330  0.00  0.00    +0.000 C 
ATOM     23  O   UNL     1       0.310  15.229  18.722  0.00  0.00    +0.000 OA
ENDBRANCH   8  18
ENDBRANCH   1  11
BRANCH   3  24
ATOM     24  N   UNL     1       5.621   3.723  16.868  0.00  0.00    +0.000 N 
ATOM     25  H   UNL     1       5.775   2.896  16.291  0.00  0.00    +0.000 HD
BRANCH  24  26
ATOM     26  S   UNL     1       6.451   5.082  16.299  0.00  0.00    +0.000 S 
ATOM     27  O   UNL     1       5.541   6.205  16.410  0.00  0.00    +0.000 OA
ATOM     28  O   UNL     1       7.741   5.127  16.963  0.00  0.00    +0.000 OA
BRANCH  26  29
ATOM     29  C   UNL     1       6.726   4.763  14.560  0.00  0.00    +0.000 A 
ATOM     30  C   UNL     1       5.957   3.806  13.914  0.00  0.00    +0.000 A 
ATOM     31  C   UNL     1       6.222   3.568  12.572  0.00  0.00    +0.000 A 
ATOM     32  C   UNL     1       7.242   4.276  11.943  0.00  0.00    +0.000 A 
ATOM     33  C   UNL     1       7.956   5.214  12.676  0.00  0.00    +0.000 A 
ATOM     34  N   UNL     1       7.713   5.495  13.976  0.00  0.00    +0.000 NA
ENDBRANCH  26  29
ENDBRANCH  24  26
ENDBRANCH   3  24
TORSDOF 5
ENDMDL
MODEL 9
REMARK VINA RESULT:      -9.6      1.929      2.459
REMARK  Name = 
REMARK  6 active torsions:
REMARK  status: ('A' for Active; 'I' for Inactive)
REMARK    1  A    between atoms: C_1  and  N_2
REMARK    2  A    between atoms: C_6  and  C_7
REMARK    3  A    between atoms: C_10  and  C_11
REMARK    4  A    between atoms: C_13  and  N_14
REMARK    5  A    between atoms: N_14  and  S_15
REMARK    6  A    between atoms: S_15  and  C_18
REMARK                            x       y       z     vdW  Elec       q    Type
REMARK                         _______ _______ _______ _____ _____    ______ ____
ROOT
ATOM      1  C   UNL     1       2.873   6.108  18.727  0.00  0.00    +0.000 A 
ATOM      2  C   UNL     1       3.561   5.732  17.554  0.00  0.00    +0.000 A 
ATOM      3  C   UNL     1       4.200   4.489  17.470  0.00  0.00    +0.000 A 
ATOM      4  C   UNL     1       4.156   3.601  18.551  0.00  0.00    +0.000 A 
ATOM      5  C   UNL     1       3.466   3.950  19.708  0.00  0.00    +0.000 A 
ATOM      6  C   UNL     1       2.832   5.186  19.786  0.00  0.00    +0.000 A 
ATOM      7  F   UNL     1       2.167   5.465  20.922  0.00  0.00    +0.000 F 
ENDROOT
BRANCH   1  11
ATOM      8  C   UNL     1       1.185   9.493  19.814  0.00  0.00    +0.000 A 
ATOM      9  C   UNL     1       1.461   9.577  18.463  0.00  0.00    +0.000 A 
ATOM     10  C   UNL     1       2.045   8.396  17.950  0.00  0.00    +0.000 A 
ATOM     11  C   UNL     1       2.236   7.419  18.911  0.00  0.00    +0.000 A 
ATOM     12  S   UNL     1       1.658   7.961  20.432  0.00  0.00    +0.000 S 
BRANCH   8  18
ATOM     13  C   UNL     1      -1.637  15.900  22.383  0.00  0.00    +0.000 C 
ATOM     14  N   UNL     1      -1.087  14.596  22.148  0.00  0.00    +0.000 N 
ATOM     15  C   UNL     1      -0.312  14.258  20.968  0.00  0.00    +0.000 C 
ATOM     16  C   UNL     1      -0.112  12.784  21.121  0.00  0.00    +0.000 A 
ATOM     17  C   UNL     1       0.551  11.885  20.300  0.00  0.00    +0.000 A 
ATOM     18  C   UNL     1       0.562  10.524  20.658  0.00  0.00    +0.000 A 
ATOM     19  C   UNL     1      -0.096  10.112  21.848  0.00  0.00    +0.000 A 
ATOM     20  C   UNL     1      -0.759  11.020  22.672  0.00  0.00    +0.000 A 
ATOM     21  C   UNL     1      -0.752  12.342  22.281  0.00  0.00    +0.000 A 
ATOM     22  C   UNL     1      -1.387  13.488  22.932  0.00  0.00    +0.000 C 
ATOM     23  O   UNL     1      -2.058  13.435  23.941  0.00  0.00    +0.000 OA
ENDBRANCH   8  18
ENDBRANCH   1  11
BRANCH   3  24
ATOM     24  N   UNL     1       4.862   4.075  16.284  0.00  0.00    +0.000 N 
ATOM     25  H   UNL     1       4.386   3.456  15.627  0.00  0.00    +0.000 HD
BRANCH  24  26
ATOM     26  S   UNL     1       5.993   5.082  15.532  0.00  0.00    +0.000 S 
ATOM     27  O   UNL     1       6.894   4.222  14.791  0.00  0.00    +0.000 OA
ATOM     28  O   UNL     1       5.265   6.133  14.843  0.00  0.00    +0.000 OA
BRANCH  26  29
ATOM     29  C   UNL     1       6.916   5.826  16.872  0.00  0.00    +0.000 A 
ATOM     30  C   UNL     1       7.368   5.026  17.912  0.00  0.00    +0.000 A 
ATOM     31  C   UNL     1       8.055   5.647  18.947  0.00  0.00    +0.000 A 
ATOM     32  C   UNL     1       8.245   7.025  18.909  0.00  0.00    +0.000 A 
ATOM     33  C   UNL     1       7.754   7.739  17.824  0.00  0.00    +0.000 A 
ATOM     34  N   UNL     1       7.104   7.171  16.783  0.00  0.00    +0.000 NA
ENDBRANCH  26  29
ENDBRANCH  24  26
ENDBRANCH   3  24
TORSDOF 5
ENDMDL
