MODEL 1
REMARK VINA RESULT:      -8.4      0.000      0.000
REMARK  Name = 
REMARK  5 active torsions:
REMARK  status: ('A' for Active; 'I' for Inactive)
REMARK    1  A    between atoms: C_1  and  O_2
REMARK    2  A    between atoms: O_2  and  C_3
REMARK    3  A    between atoms: N_12  and  C_13
REMARK    4  A    between atoms: C_13  and  N_15
REMARK    5  A    between atoms: C_16  and  C_17
REMARK                            x       y       z     vdW  Elec       q    Type
REMARK                         _______ _______ _______ _____ _____    ______ ____
ROOT
ATOM      1  C   UNL     1       3.232   3.379  18.890  0.00  0.00    +0.000 A 
ATOM      2  C   UNL     1       2.609   3.203  20.123  0.00  0.00    +0.000 A 
ATOM      3  C   UNL     1       2.049   4.292  20.802  0.00  0.00    +0.000 A 
ATOM      4  C   UNL     1       2.106   5.578  20.236  0.00  0.00    +0.000 A 
ATOM      5  N   UNL     1       1.617   6.736  20.811  0.00  0.00    +0.000 NA
ATOM      6  C   UNL     1       1.803   7.733  19.992  0.00  0.00    +0.000 A 
ATOM      7  N   UNL     1       1.482   9.047  20.138  0.00  0.00    +0.000 N 
ATOM      8  C   UNL     1       0.983   9.590  21.295  0.00  0.00    +0.000 C 
ATOM      9  O   UNL     1       0.762   9.015  22.355  0.00  0.00    +0.000 OA
ATOM     10  N   UNL     1       0.809  10.971  21.224  0.00  0.00    +0.000 N 
ATOM     11  S   UNL     1       2.573   7.383  18.509  0.00  0.00    +0.000 S 
ATOM     12  C   UNL     1       2.705   5.732  18.983  0.00  0.00    +0.000 A 
ATOM     13  C   UNL     1       3.284   4.649  18.300  0.00  0.00    +0.000 A 
ATOM     14  H   UNL     1       1.623   9.638  19.334  0.00  0.00    +0.000 HD
ATOM     15  H   UNL     1       0.589  11.348  22.151  0.00  0.00    +0.000 HD
ENDROOT
BRANCH   1  17
ATOM     16  C   UNL     1       3.760   1.069  18.683  0.00  0.00    +0.000 C 
ATOM     17  O   UNL     1       3.825   2.388  18.152  0.00  0.00    +0.000 OA
ENDBRANCH   1  17
BRANCH  10  18
ATOM     18  C   UNL     1       0.458  11.830  20.166  0.00  0.00    +0.000 C 
ATOM     19  S   UNL     1       1.519  12.978  19.527  0.00  0.00    +0.000 S 
BRANCH  18  20
ATOM     20  N   UNL     1      -0.862  11.642  19.701  0.00  0.00    +0.000 N 
ATOM     21  C   UNL     1      -1.995  12.211  20.283  0.00  0.00    +0.000 A 
ATOM     22  C   UNL     1      -1.947  12.816  21.673  0.00  0.00    +0.000 C 
ATOM     23  N   UNL     1      -3.172  12.208  19.742  0.00  0.00    +0.000 NA
ATOM     24  C   UNL     1      -3.330  11.662  18.474  0.00  0.00    +0.000 A 
ATOM     25  C   UNL     1      -4.554  11.819  17.821  0.00  0.00    +0.000 A 
ATOM     26  C   UNL     1      -4.731  11.329  16.527  0.00  0.00    +0.000 A 
ATOM     27  C   UNL     1      -3.689  10.658  15.886  0.00  0.00    +0.000 A 
ATOM     28  C   UNL     1      -2.472  10.471  16.543  0.00  0.00    +0.000 A 
ATOM     29  C   UNL     1      -2.303  10.982  17.835  0.00  0.00    +0.000 A 
ATOM     30  C   UNL     1      -1.024  10.866  18.555  0.00  0.00    +0.000 A 
ATOM     31  O   UNL     1      -0.177  10.076  18.131  0.00  0.00    +0.000 OA
ENDBRANCH  18  20
ENDBRANCH  10  18
TORSDOF 3
ENDMDL
MODEL 2
REMARK VINA RESULT:      -8.0      1.118      1.256
REMARK  Name = 
REMARK  5 active torsions:
REMARK  status: ('A' for Active; 'I' for Inactive)
REMARK    1  A    between atoms: C_1  and  O_2
REMARK    2  A    between atoms: O_2  and  C_3
REMARK    3  A    between atoms: N_12  and  C_13
REMARK    4  A    between atoms: C_13  and  N_15
REMARK    5  A    between atoms: C_16  and  C_17
REMARK                            x       y       z     vdW  Elec       q    Type
REMARK                         _______ _______ _______ _____ _____    ______ ____
ROOT
ATOM      1  C   UNL     1       3.282   4.362  18.474  0.00  0.00    +0.000 A 
ATOM      2  C   UNL     1       2.773   4.058  19.734  0.00  0.00    +0.000 A 
ATOM      3  C   UNL     1       2.171   5.049  20.519  0.00  0.00    +0.000 A 
ATOM      4  C   UNL     1       2.067   6.364  20.032  0.00  0.00    +0.000 A 
ATOM      5  N   UNL     1       1.521   7.436  20.713  0.00  0.00    +0.000 NA
ATOM      6  C   UNL     1       1.552   8.491  19.947  0.00  0.00    +0.000 A 
ATOM      7  N   UNL     1       1.124   9.758  20.198  0.00  0.00    +0.000 N 
ATOM      8  C   UNL     1       0.669  10.185  21.420  0.00  0.00    +0.000 C 
ATOM      9  O   UNL     1       0.583   9.533  22.454  0.00  0.00    +0.000 OA
ATOM     10  N   UNL     1       0.365  11.545  21.449  0.00  0.00    +0.000 N 
ATOM     11  S   UNL     1       2.234   8.300  18.395  0.00  0.00    +0.000 S 
ATOM     12  C   UNL     1       2.552   6.644  18.753  0.00  0.00    +0.000 A 
ATOM     13  C   UNL     1       3.172   5.662  17.963  0.00  0.00    +0.000 A 
ATOM     14  H   UNL     1       1.149  10.404  19.426  0.00  0.00    +0.000 HD
ATOM     15  H   UNL     1       0.183  11.846  22.411  0.00  0.00    +0.000 HD
ENDROOT
BRANCH   1  17
ATOM     16  C   UNL     1       4.713   4.030  16.604  0.00  0.00    +0.000 C 
ATOM     17  O   UNL     1       3.904   3.474  17.634  0.00  0.00    +0.000 OA
ENDBRANCH   1  17
BRANCH  10  18
ATOM     18  C   UNL     1      -0.143  12.424  20.475  0.00  0.00    +0.000 C 
ATOM     19  S   UNL     1       0.799  13.618  19.738  0.00  0.00    +0.000 S 
BRANCH  18  20
ATOM     20  N   UNL     1      -1.509  12.217  20.183  0.00  0.00    +0.000 N 
ATOM     21  C   UNL     1      -2.566  12.706  20.951  0.00  0.00    +0.000 A 
ATOM     22  C   UNL     1      -2.343  13.227  22.358  0.00  0.00    +0.000 C 
ATOM     23  N   UNL     1      -3.806  12.692  20.576  0.00  0.00    +0.000 NA
ATOM     24  C   UNL     1      -4.123  12.219  19.309  0.00  0.00    +0.000 A 
ATOM     25  C   UNL     1      -5.429  12.370  18.841  0.00  0.00    +0.000 A 
ATOM     26  C   UNL     1      -5.770  11.953  17.553  0.00  0.00    +0.000 A 
ATOM     27  C   UNL     1      -4.808  11.362  16.734  0.00  0.00    +0.000 A 
ATOM     28  C   UNL     1      -3.507  11.181  17.204  0.00  0.00    +0.000 A 
ATOM     29  C   UNL     1      -3.174  11.618  18.492  0.00  0.00    +0.000 A 
ATOM     30  C   UNL     1      -1.806  11.506  19.022  0.00  0.00    +0.000 A 
ATOM     31  O   UNL     1      -1.003  10.776  18.435  0.00  0.00    +0.000 OA
ENDBRANCH  18  20
ENDBRANCH  10  18
TORSDOF 3
ENDMDL
MODEL 3
REMARK VINA RESULT:      -8.0      1.381      1.667
REMARK  Name = 
REMARK  5 active torsions:
REMARK  status: ('A' for Active; 'I' for Inactive)
REMARK    1  A    between atoms: C_1  and  O_2
REMARK    2  A    between atoms: O_2  and  C_3
REMARK    3  A    between atoms: N_12  and  C_13
REMARK    4  A    between atoms: C_13  and  N_15
REMARK    5  A    between atoms: C_16  and  C_17
REMARK                            x       y       z     vdW  Elec       q    Type
REMARK                         _______ _______ _______ _____ _____    ______ ____
ROOT
ATOM      1  C   UNL     1       4.690   4.178  16.867  0.00  0.00    +0.000 A 
ATOM      2  C   UNL     1       3.950   3.531  17.853  0.00  0.00    +0.000 A 
ATOM      3  C   UNL     1       3.126   4.260  18.720  0.00  0.00    +0.000 A 
ATOM      4  C   UNL     1       3.034   5.658  18.593  0.00  0.00    +0.000 A 
ATOM      5  N   UNL     1       2.281   6.494  19.396  0.00  0.00    +0.000 NA
ATOM      6  C   UNL     1       2.398   7.719  18.968  0.00  0.00    +0.000 A 
ATOM      7  N   UNL     1       1.838   8.863  19.448  0.00  0.00    +0.000 N 
ATOM      8  C   UNL     1       1.105   8.930  20.606  0.00  0.00    +0.000 C 
ATOM      9  O   UNL     1       0.849   8.016  21.381  0.00  0.00    +0.000 OA
ATOM     10  N   UNL     1       0.706  10.225  20.930  0.00  0.00    +0.000 N 
ATOM     11  S   UNL     1       3.406   7.973  17.614  0.00  0.00    +0.000 S 
ATOM     12  C   UNL     1       3.757   6.286  17.577  0.00  0.00    +0.000 A 
ATOM     13  C   UNL     1       4.599   5.567  16.712  0.00  0.00    +0.000 A 
ATOM     14  H   UNL     1       1.980   9.698  18.902  0.00  0.00    +0.000 HD
ATOM     15  H   UNL     1       0.304  10.247  21.872  0.00  0.00    +0.000 HD
ENDROOT
BRANCH   1  17
ATOM     16  C   UNL     1       6.773   4.220  15.719  0.00  0.00    +0.000 C 
ATOM     17  O   UNL     1       5.537   3.564  15.980  0.00  0.00    +0.000 OA
ENDBRANCH   1  17
BRANCH  10  18
ATOM     18  C   UNL     1       0.354  11.335  20.139  0.00  0.00    +0.000 C 
ATOM     19  S   UNL     1       1.453  12.549  19.724  0.00  0.00    +0.000 S 
BRANCH  18  20
ATOM     20  N   UNL     1      -0.999  11.337  19.738  0.00  0.00    +0.000 N 
ATOM     21  C   UNL     1      -2.029  11.979  20.426  0.00  0.00    +0.000 A 
ATOM     22  C   UNL     1      -1.844  12.457  21.854  0.00  0.00    +0.000 C 
ATOM     23  N   UNL     1      -3.223  12.152  19.954  0.00  0.00    +0.000 NA
ATOM     24  C   UNL     1      -3.505  11.735  18.659  0.00  0.00    +0.000 A 
ATOM     25  C   UNL     1      -4.732  12.083  18.092  0.00  0.00    +0.000 A 
ATOM     26  C   UNL     1      -5.027  11.725  16.776  0.00  0.00    +0.000 A 
ATOM     27  C   UNL     1      -4.102  10.997  16.026  0.00  0.00    +0.000 A 
ATOM     28  C   UNL     1      -2.885  10.620  16.596  0.00  0.00    +0.000 A 
ATOM     29  C   UNL     1      -2.595  11.000  17.912  0.00  0.00    +0.000 A 
ATOM     30  C   UNL     1      -1.306  10.682  18.547  0.00  0.00    +0.000 A 
ATOM     31  O   UNL     1      -0.577   9.840  18.014  0.00  0.00    +0.000 OA
ENDBRANCH  18  20
ENDBRANCH  10  18
TORSDOF 3
ENDMDL
MODEL 4
REMARK VINA RESULT:      -7.9      2.061      2.822
REMARK  Name = 
REMARK  5 active torsions:
REMARK  status: ('A' for Active; 'I' for Inactive)
REMARK    1  A    between atoms: C_1  and  O_2
REMARK    2  A    between atoms: O_2  and  C_3
REMARK    3  A    between atoms: N_12  and  C_13
REMARK    4  A    between atoms: C_13  and  N_15
REMARK    5  A    between atoms: C_16  and  C_17
REMARK                            x       y       z     vdW  Elec       q    Type
REMARK                         _______ _______ _______ _____ _____    ______ ____
ROOT
ATOM      1  C   UNL     1       2.953   6.221  18.489  0.00  0.00    +0.000 A 
ATOM      2  C   UNL     1       2.649   5.734  19.757  0.00  0.00    +0.000 A 
ATOM      3  C   UNL     1       1.961   6.530  20.682  0.00  0.00    +0.000 A 
ATOM      4  C   UNL     1       1.563   7.832  20.330  0.00  0.00    +0.000 A 
ATOM      5  N   UNL     1       0.904   8.725  21.153  0.00  0.00    +0.000 NA
ATOM      6  C   UNL     1       0.656   9.819  20.488  0.00  0.00    +0.000 A 
ATOM      7  N   UNL     1       0.030  10.957  20.893  0.00  0.00    +0.000 N 
ATOM      8  C   UNL     1      -0.362  11.197  22.185  0.00  0.00    +0.000 C 
ATOM      9  O   UNL     1      -0.213  10.467  23.159  0.00  0.00    +0.000 OA
ATOM     10  N   UNL     1      -0.908  12.467  22.368  0.00  0.00    +0.000 N 
ATOM     11  S   UNL     1       1.191   9.877  18.868  0.00  0.00    +0.000 S 
ATOM     12  C   UNL     1       1.847   8.293  19.042  0.00  0.00    +0.000 A 
ATOM     13  C   UNL     1       2.550   7.509  18.112  0.00  0.00    +0.000 A 
ATOM     14  H   UNL     1      -0.149  11.650  20.184  0.00  0.00    +0.000 HD
ATOM     15  H   UNL     1      -1.038  12.657  23.365  0.00  0.00    +0.000 HD
ENDROOT
BRANCH   1  17
ATOM     16  C   UNL     1       3.401   4.133  17.441  0.00  0.00    +0.000 C 
ATOM     17  O   UNL     1       3.635   5.535  17.517  0.00  0.00    +0.000 OA
ENDBRANCH   1  17
BRANCH  10  18
ATOM     18  C   UNL     1      -1.672  13.300  21.529  0.00  0.00    +0.000 C 
ATOM     19  S   UNL     1      -1.114  14.790  20.963  0.00  0.00    +0.000 S 
BRANCH  18  20
ATOM     20  N   UNL     1      -2.945  12.772  21.217  0.00  0.00    +0.000 N 
ATOM     21  C   UNL     1      -4.032  12.760  22.091  0.00  0.00    +0.000 A 
ATOM     22  C   UNL     1      -3.853  13.011  23.576  0.00  0.00    +0.000 C 
ATOM     23  N   UNL     1      -5.245  12.467  21.741  0.00  0.00    +0.000 NA
ATOM     24  C   UNL     1      -5.516  12.204  20.404  0.00  0.00    +0.000 A 
ATOM     25  C   UNL     1      -6.846  12.067  20.001  0.00  0.00    +0.000 A 
ATOM     26  C   UNL     1      -7.158  11.854  18.658  0.00  0.00    +0.000 A 
ATOM     27  C   UNL     1      -6.137  11.755  17.712  0.00  0.00    +0.000 A 
ATOM     28  C   UNL     1      -4.804  11.862  18.110  0.00  0.00    +0.000 A 
ATOM     29  C   UNL     1      -4.506  12.092  19.459  0.00  0.00    +0.000 A 
ATOM     30  C   UNL     1      -3.123  12.271  19.930  0.00  0.00    +0.000 A 
ATOM     31  O   UNL     1      -2.198  11.947  19.181  0.00  0.00    +0.000 OA
ENDBRANCH  18  20
ENDBRANCH  10  18
TORSDOF 3
ENDMDL
MODEL 5
REMARK VINA RESULT:      -7.8      2.226      3.107
REMARK  Name = 
REMARK  5 active torsions:
REMARK  status: ('A' for Active; 'I' for Inactive)
REMARK    1  A    between atoms: C_1  and  O_2
REMARK    2  A    between atoms: O_2  and  C_3
REMARK    3  A    between atoms: N_12  and  C_13
REMARK    4  A    between atoms: C_13  and  N_15
REMARK    5  A    between atoms: C_16  and  C_17
REMARK                            x       y       z     vdW  Elec       q    Type
REMARK                         _______ _______ _______ _____ _____    ______ ____
ROOT
ATOM      1  C   UNL     1       4.256   5.341  18.241  0.00  0.00    +0.000 A 
ATOM      2  C   UNL     1       3.620   4.911  19.403  0.00  0.00    +0.000 A 
ATOM      3  C   UNL     1       2.668   5.719  20.037  0.00  0.00    +0.000 A 
ATOM      4  C   UNL     1       2.340   6.975  19.496  0.00  0.00    +0.000 A 
ATOM      5  N   UNL     1       1.441   7.877  20.034  0.00  0.00    +0.000 NA
ATOM      6  C   UNL     1       1.354   8.915  19.251  0.00  0.00    +0.000 A 
ATOM      7  N   UNL     1       0.598  10.038  19.381  0.00  0.00    +0.000 N 
ATOM      8  C   UNL     1      -0.156  10.330  20.489  0.00  0.00    +0.000 C 
ATOM      9  O   UNL     1      -0.265   9.667  21.514  0.00  0.00    +0.000 OA
ATOM     10  N   UNL     1      -0.778  11.576  20.420  0.00  0.00    +0.000 N 
ATOM     11  S   UNL     1       2.326   8.909  17.848  0.00  0.00    +0.000 S 
ATOM     12  C   UNL     1       2.962   7.376  18.311  0.00  0.00    +0.000 A 
ATOM     13  C   UNL     1       3.930   6.581  17.676  0.00  0.00    +0.000 A 
ATOM     14  H   UNL     1       0.603  10.678  18.603  0.00  0.00    +0.000 HD
ATOM     15  H   UNL     1      -1.193  11.816  21.324  0.00  0.00    +0.000 HD
ENDROOT
BRANCH   1  17
ATOM     16  C   UNL     1       4.922   4.331  16.193  0.00  0.00    +0.000 C 
ATOM     17  O   UNL     1       5.211   4.638  17.553  0.00  0.00    +0.000 OA
ENDBRANCH   1  17
BRANCH  10  18
ATOM     18  C   UNL     1      -1.300  12.316  19.342  0.00  0.00    +0.000 C 
ATOM     19  S   UNL     1      -0.367  13.384  18.425  0.00  0.00    +0.000 S 
BRANCH  18  20
ATOM     20  N   UNL     1      -2.674  12.084  19.113  0.00  0.00    +0.000 N 
ATOM     21  C   UNL     1      -3.181  11.257  18.111  0.00  0.00    +0.000 A 
ATOM     22  C   UNL     1      -2.312  10.790  16.959  0.00  0.00    +0.000 C 
ATOM     23  N   UNL     1      -4.420  10.886  18.030  0.00  0.00    +0.000 NA
ATOM     24  C   UNL     1      -5.307  11.273  19.027  0.00  0.00    +0.000 A 
ATOM     25  C   UNL     1      -6.592  10.726  19.034  0.00  0.00    +0.000 A 
ATOM     26  C   UNL     1      -7.491  11.054  20.050  0.00  0.00    +0.000 A 
ATOM     27  C   UNL     1      -7.116  11.948  21.053  0.00  0.00    +0.000 A 
ATOM     28  C   UNL     1      -5.844  12.521  21.037  0.00  0.00    +0.000 A 
ATOM     29  C   UNL     1      -4.946  12.172  20.021  0.00  0.00    +0.000 A 
ATOM     30  C   UNL     1      -3.572  12.699  19.983  0.00  0.00    +0.000 A 
ATOM     31  O   UNL     1      -3.291  13.667  20.695  0.00  0.00    +0.000 OA
ENDBRANCH  18  20
ENDBRANCH  10  18
TORSDOF 3
ENDMDL
MODEL 6
REMARK VINA RESULT:      -7.6      1.567      1.990
REMARK  Name = 
REMARK  5 active torsions:
REMARK  status: ('A' for Active; 'I' for Inactive)
REMARK    1  A    between atoms: C_1  and  O_2
REMARK    2  A    between atoms: O_2  and  C_3
REMARK    3  A    between atoms: N_12  and  C_13
REMARK    4  A    between atoms: C_13  and  N_15
REMARK    5  A    between atoms: C_16  and  C_17
REMARK                            x       y       z     vdW  Elec       q    Type
REMARK                         _______ _______ _______ _____ _____    ______ ____
ROOT
ATOM      1  C   UNL     1       3.265   5.106  18.472  0.00  0.00    +0.000 A 
ATOM      2  C   UNL     1       2.945   4.917  19.814  0.00  0.00    +0.000 A 
ATOM      3  C   UNL     1       2.346   5.943  20.556  0.00  0.00    +0.000 A 
ATOM      4  C   UNL     1       2.054   7.175  19.944  0.00  0.00    +0.000 A 
ATOM      5  N   UNL     1       1.490   8.273  20.567  0.00  0.00    +0.000 NA
ATOM      6  C   UNL     1       1.325   9.225  19.692  0.00  0.00    +0.000 A 
ATOM      7  N   UNL     1       0.807  10.472  19.855  0.00  0.00    +0.000 N 
ATOM      8  C   UNL     1       0.462  11.005  21.071  0.00  0.00    +0.000 C 
ATOM      9  O   UNL     1       0.566  10.480  22.174  0.00  0.00    +0.000 OA
ATOM     10  N   UNL     1       0.030  12.329  20.989  0.00  0.00    +0.000 N 
ATOM     11  S   UNL     1       1.831   8.903  18.094  0.00  0.00    +0.000 S 
ATOM     12  C   UNL     1       2.352   7.336  18.589  0.00  0.00    +0.000 A 
ATOM     13  C   UNL     1       2.967   6.321  17.839  0.00  0.00    +0.000 A 
ATOM     14  H   UNL     1       0.675  11.018  19.019  0.00  0.00    +0.000 HD
ATOM     15  H   UNL     1      -0.063  12.729  21.927  0.00  0.00    +0.000 HD
ENDROOT
BRANCH   1  17
ATOM     16  C   UNL     1       3.276   2.884  17.624  0.00  0.00    +0.000 C 
ATOM     17  O   UNL     1       3.867   4.179  17.661  0.00  0.00    +0.000 OA
ENDBRANCH   1  17
BRANCH  10  18
ATOM     18  C   UNL     1      -0.675  13.036  19.998  0.00  0.00    +0.000 C 
ATOM     19  S   UNL     1       0.088  14.017  18.854  0.00  0.00    +0.000 S 
BRANCH  18  20
ATOM     20  N   UNL     1      -2.074  12.853  20.061  0.00  0.00    +0.000 N 
ATOM     21  C   UNL     1      -2.935  13.599  20.865  0.00  0.00    +0.000 A 
ATOM     22  C   UNL     1      -2.408  14.457  22.000  0.00  0.00    +0.000 C 
ATOM     23  N   UNL     1      -4.227  13.571  20.772  0.00  0.00    +0.000 NA
ATOM     24  C   UNL     1      -4.815  12.802  19.775  0.00  0.00    +0.000 A 
ATOM     25  C   UNL     1      -6.190  12.913  19.562  0.00  0.00    +0.000 A 
ATOM     26  C   UNL     1      -6.805  12.194  18.535  0.00  0.00    +0.000 A 
ATOM     27  C   UNL     1      -6.049  11.343  17.729  0.00  0.00    +0.000 A 
ATOM     28  C   UNL     1      -4.678  11.204  17.954  0.00  0.00    +0.000 A 
ATOM     29  C   UNL     1      -4.071  11.943  18.977  0.00  0.00    +0.000 A 
ATOM     30  C   UNL     1      -2.622  11.882  19.225  0.00  0.00    +0.000 A 
ATOM     31  O   UNL     1      -1.972  10.969  18.708  0.00  0.00    +0.000 OA
ENDBRANCH  18  20
ENDBRANCH  10  18
TORSDOF 3
ENDMDL
MODEL 7
REMARK VINA RESULT:      -7.5      3.027      4.456
REMARK  Name = 
REMARK  5 active torsions:
REMARK  status: ('A' for Active; 'I' for Inactive)
REMARK    1  A    between atoms: C_1  and  O_2
REMARK    2  A    between atoms: O_2  and  C_3
REMARK    3  A    between atoms: N_12  and  C_13
REMARK    4  A    between atoms: C_13  and  N_15
REMARK    5  A    between atoms: C_16  and  C_17
REMARK                            x       y       z     vdW  Elec       q    Type
REMARK                         _______ _______ _______ _____ _____    ______ ____
ROOT
ATOM      1  C   UNL     1       3.324   4.340  18.602  0.00  0.00    +0.000 A 
ATOM      2  C   UNL     1       2.908   4.200  19.924  0.00  0.00    +0.000 A 
ATOM      3  C   UNL     1       2.339   5.280  20.611  0.00  0.00    +0.000 A 
ATOM      4  C   UNL     1       2.176   6.518  19.964  0.00  0.00    +0.000 A 
ATOM      5  N   UNL     1       1.654   7.664  20.534  0.00  0.00    +0.000 NA
ATOM      6  C   UNL     1       1.612   8.608  19.636  0.00  0.00    +0.000 A 
ATOM      7  N   UNL     1       1.177   9.892  19.747  0.00  0.00    +0.000 N 
ATOM      8  C   UNL     1       0.795  10.472  20.930  0.00  0.00    +0.000 C 
ATOM      9  O   UNL     1       0.792   9.962  22.045  0.00  0.00    +0.000 OA
ATOM     10  N   UNL     1       0.466  11.820  20.802  0.00  0.00    +0.000 N 
ATOM     11  S   UNL     1       2.193   8.221  18.078  0.00  0.00    +0.000 S 
ATOM     12  C   UNL     1       2.568   6.631  18.628  0.00  0.00    +0.000 A 
ATOM     13  C   UNL     1       3.154   5.560  17.934  0.00  0.00    +0.000 A 
ATOM     14  H   UNL     1       1.136  10.430  18.896  0.00  0.00    +0.000 HD
ATOM     15  H   UNL     1       0.343  12.245  21.725  0.00  0.00    +0.000 HD
ENDROOT
BRANCH   1  17
ATOM     16  C   UNL     1       3.389   2.040  18.000  0.00  0.00    +0.000 C 
ATOM     17  O   UNL     1       3.907   3.357  17.845  0.00  0.00    +0.000 OA
ENDBRANCH   1  17
BRANCH  10  18
ATOM     18  C   UNL     1      -0.124  12.557  19.757  0.00  0.00    +0.000 C 
ATOM     19  S   UNL     1      -1.605  12.137  19.063  0.00  0.00    +0.000 S 
BRANCH  18  20
ATOM     20  N   UNL     1       0.646  13.667  19.345  0.00  0.00    +0.000 N 
ATOM     21  C   UNL     1       0.317  14.998  19.602  0.00  0.00    +0.000 A 
ATOM     22  C   UNL     1      -1.074  15.391  20.061  0.00  0.00    +0.000 C 
ATOM     23  N   UNL     1       1.118  15.997  19.407  0.00  0.00    +0.000 NA
ATOM     24  C   UNL     1       2.413  15.748  18.970  0.00  0.00    +0.000 A 
ATOM     25  C   UNL     1       3.326  16.804  18.933  0.00  0.00    +0.000 A 
ATOM     26  C   UNL     1       4.649  16.580  18.549  0.00  0.00    +0.000 A 
ATOM     27  C   UNL     1       5.061  15.299  18.180  0.00  0.00    +0.000 A 
ATOM     28  C   UNL     1       4.148  14.244  18.187  0.00  0.00    +0.000 A 
ATOM     29  C   UNL     1       2.828  14.479  18.589  0.00  0.00    +0.000 A 
ATOM     30  C   UNL     1       1.835  13.396  18.671  0.00  0.00    +0.000 A 
ATOM     31  O   UNL     1       2.089  12.320  18.124  0.00  0.00    +0.000 OA
ENDBRANCH  18  20
ENDBRANCH  10  18
TORSDOF 3
ENDMDL
MODEL 8
REMARK VINA RESULT:      -7.5      1.656      2.466
REMARK  Name = 
REMARK  5 active torsions:
REMARK  status: ('A' for Active; 'I' for Inactive)
REMARK    1  A    between atoms: C_1  and  O_2
REMARK    2  A    between atoms: O_2  and  C_3
REMARK    3  A    between atoms: N_12  and  C_13
REMARK    4  A    between atoms: C_13  and  N_15
REMARK    5  A    between atoms: C_16  and  C_17
REMARK                            x       y       z     vdW  Elec       q    Type
REMARK                         _______ _______ _______ _____ _____    ______ ____
ROOT
ATOM      1  C   UNL     1       3.351   3.882  19.240  0.00  0.00    +0.000 A 
ATOM      2  C   UNL     1       2.639   3.727  20.427  0.00  0.00    +0.000 A 
ATOM      3  C   UNL     1       1.936   4.804  20.983  0.00  0.00    +0.000 A 
ATOM      4  C   UNL     1       1.938   6.053  20.337  0.00  0.00    +0.000 A 
ATOM      5  N   UNL     1       1.309   7.198  20.791  0.00  0.00    +0.000 NA
ATOM      6  C   UNL     1       1.484   8.155  19.924  0.00  0.00    +0.000 A 
ATOM      7  N   UNL     1       1.046   9.443  19.953  0.00  0.00    +0.000 N 
ATOM      8  C   UNL     1       0.407  10.010  21.026  0.00  0.00    +0.000 C 
ATOM      9  O   UNL     1       0.142   9.483  22.101  0.00  0.00    +0.000 OA
ATOM     10  N   UNL     1       0.128  11.364  20.849  0.00  0.00    +0.000 N 
ATOM     11  S   UNL     1       2.406   7.784  18.536  0.00  0.00    +0.000 S 
ATOM     12  C   UNL     1       2.630   6.181  19.130  0.00  0.00    +0.000 A 
ATOM     13  C   UNL     1       3.351   5.113  18.572  0.00  0.00    +0.000 A 
ATOM     14  H   UNL     1       1.209   9.994  19.126  0.00  0.00    +0.000 HD
ATOM     15  H   UNL     1      -0.201  11.776  21.726  0.00  0.00    +0.000 HD
ENDROOT
BRANCH   1  17
ATOM     16  C   UNL     1       3.375   1.740  18.205  0.00  0.00    +0.000 C 
ATOM     17  O   UNL     1       4.084   2.902  18.621  0.00  0.00    +0.000 OA
ENDBRANCH   1  17
BRANCH  10  18
ATOM     18  C   UNL     1      -0.198  12.123  19.709  0.00  0.00    +0.000 C 
ATOM     19  S   UNL     1       0.957  12.966  18.808  0.00  0.00    +0.000 S 
BRANCH  18  20
ATOM     20  N   UNL     1      -1.576  12.118  19.402  0.00  0.00    +0.000 N 
ATOM     21  C   UNL     1      -2.176  11.274  18.467  0.00  0.00    +0.000 A 
ATOM     22  C   UNL     1      -1.349  10.511  17.450  0.00  0.00    +0.000 C 
ATOM     23  N   UNL     1      -3.456  11.127  18.335  0.00  0.00    +0.000 NA
ATOM     24  C   UNL     1      -4.306  11.795  19.208  0.00  0.00    +0.000 A 
ATOM     25  C   UNL     1      -5.670  11.497  19.179  0.00  0.00    +0.000 A 
ATOM     26  C   UNL     1      -6.544  12.111  20.077  0.00  0.00    +0.000 A 
ATOM     27  C   UNL     1      -6.062  13.044  20.994  0.00  0.00    +0.000 A 
ATOM     28  C   UNL     1      -4.704  13.369  21.009  0.00  0.00    +0.000 A 
ATOM     29  C   UNL     1      -3.835  12.734  20.115  0.00  0.00    +0.000 A 
ATOM     30  C   UNL     1      -2.386  12.993  20.122  0.00  0.00    +0.000 A 
ATOM     31  O   UNL     1      -1.966  13.978  20.735  0.00  0.00    +0.000 OA
ENDBRANCH  18  20
ENDBRANCH  10  18
TORSDOF 3
ENDMDL
MODEL 9
REMARK VINA RESULT:      -7.2      2.765      4.359
REMARK  Name = 
REMARK  5 active torsions:
REMARK  status: ('A' for Active; 'I' for Inactive)
REMARK    1  A    between atoms: C_1  and  O_2
REMARK    2  A    between atoms: O_2  and  C_3
REMARK    3  A    between atoms: N_12  and  C_13
REMARK    4  A    between atoms: C_13  and  N_15
REMARK    5  A    between atoms: C_16  and  C_17
REMARK                            x       y       z     vdW  Elec       q    Type
REMARK                         _______ _______ _______ _____ _____    ______ ____
ROOT
ATOM      1  C   UNL     1       3.444   3.063  19.769  0.00  0.00    +0.000 A 
ATOM      2  C   UNL     1       2.724   2.987  20.958  0.00  0.00    +0.000 A 
ATOM      3  C   UNL     1       2.046   4.107  21.456  0.00  0.00    +0.000 A 
ATOM      4  C   UNL     1       2.081   5.322  20.747  0.00  0.00    +0.000 A 
ATOM      5  N   UNL     1       1.479   6.503  21.139  0.00  0.00    +0.000 NA
ATOM      6  C   UNL     1       1.681   7.411  20.225  0.00  0.00    +0.000 A 
ATOM      7  N   UNL     1       1.274   8.708  20.187  0.00  0.00    +0.000 N 
ATOM      8  C   UNL     1       0.645   9.344  21.227  0.00  0.00    +0.000 C 
ATOM      9  O   UNL     1       0.362   8.880  22.326  0.00  0.00    +0.000 OA
ATOM     10  N   UNL     1       0.400  10.694  20.979  0.00  0.00    +0.000 N 
ATOM     11  S   UNL     1       2.598   6.947  18.863  0.00  0.00    +0.000 S 
ATOM     12  C   UNL     1       2.780   5.372  19.539  0.00  0.00    +0.000 A 
ATOM     13  C   UNL     1       3.477   4.259  19.039  0.00  0.00    +0.000 A 
ATOM     14  H   UNL     1       1.453   9.212  19.334  0.00  0.00    +0.000 HD
ATOM     15  H   UNL     1       0.078  11.158  21.833  0.00  0.00    +0.000 HD
ENDROOT
BRANCH   1  17
ATOM     16  C   UNL     1       3.579   1.411  18.063  0.00  0.00    +0.000 C 
ATOM     17  O   UNL     1       4.155   2.036  19.204  0.00  0.00    +0.000 OA
ENDBRANCH   1  17
BRANCH  10  18
ATOM     18  C   UNL     1       0.097  11.402  19.801  0.00  0.00    +0.000 C 
ATOM     19  S   UNL     1      -1.331  11.166  18.931  0.00  0.00    +0.000 S 
BRANCH  18  20
ATOM     20  N   UNL     1       1.104  12.315  19.417  0.00  0.00    +0.000 N 
ATOM     21  C   UNL     1       2.053  12.076  18.424  0.00  0.00    +0.000 A 
ATOM     22  C   UNL     1       2.302  10.677  17.892  0.00  0.00    +0.000 C 
ATOM     23  N   UNL     1       2.839  12.982  17.933  0.00  0.00    +0.000 NA
ATOM     24  C   UNL     1       2.706  14.296  18.365  0.00  0.00    +0.000 A 
ATOM     25  C   UNL     1       3.426  15.296  17.709  0.00  0.00    +0.000 A 
ATOM     26  C   UNL     1       3.277  16.633  18.082  0.00  0.00    +0.000 A 
ATOM     27  C   UNL     1       2.421  16.974  19.130  0.00  0.00    +0.000 A 
ATOM     28  C   UNL     1       1.720  15.977  19.810  0.00  0.00    +0.000 A 
ATOM     29  C   UNL     1       1.866  14.642  19.415  0.00  0.00    +0.000 A 
ATOM     30  C   UNL     1       1.110  13.554  20.056  0.00  0.00    +0.000 A 
ATOM     31  O   UNL     1       0.546  13.780  21.130  0.00  0.00    +0.000 OA
ENDBRANCH  18  20
ENDBRANCH  10  18
TORSDOF 3
ENDMDL
