MODEL 1
REMARK VINA RESULT:      -8.3      0.000      0.000
REMARK  Name = 
REMARK  1 active torsions:
REMARK  status: ('A' for Active; 'I' for Inactive)
REMARK    1  A    between atoms: C_9  and  C_10
REMARK                            x       y       z     vdW  Elec       q    Type
REMARK                         _______ _______ _______ _____ _____    ______ ____
ROOT
ATOM      1  O   UNL     1       5.001   1.799  20.509  0.00  0.00    +0.000 OA
ATOM      2  C   UNL     1       4.037   2.545  20.354  0.00  0.00    +0.000 C 
ATOM      3  N   UNL     1       2.983   2.453  21.229  0.00  0.00    +0.000 N 
ATOM      4  C   UNL     1       1.900   3.405  21.349  0.00  0.00    +0.000 C 
ATOM      5  C   UNL     1       0.909   3.287  20.199  0.00  0.00    +0.000 C 
ATOM      6  C   UNL     1       1.389   3.742  18.816  0.00  0.00    +0.000 C 
ATOM      7  C   UNL     1       2.828   4.092  18.705  0.00  0.00    +0.000 A 
ATOM      8  N   UNL     1       3.300   5.075  17.862  0.00  0.00    +0.000 N 
ATOM      9  C   UNL     1       4.664   5.137  18.007  0.00  0.00    +0.000 A 
ATOM     10  N   UNL     1       5.077   4.187  18.812  0.00  0.00    +0.000 NA
ATOM     11  C   UNL     1       3.958   3.565  19.310  0.00  0.00    +0.000 A 
ATOM     12  H   UNL     1       3.158   1.802  21.982  0.00  0.00    +0.000 HD
ATOM     13  H   UNL     1       2.742   5.683  17.279  0.00  0.00    +0.000 HD
ENDROOT
BRANCH   9  14
ATOM     14  C   UNL     1       5.530   6.193  17.376  0.00  0.00    +0.000 C 
ATOM     15  C   UNL     1       7.019   5.841  17.506  0.00  0.00    +0.000 C 
ATOM     16  C   UNL     1       7.418   4.629  16.662  0.00  0.00    +0.000 C 
ATOM     17  C   UNL     1       7.011   4.779  15.198  0.00  0.00    +0.000 C 
ATOM     18  C   UNL     1       5.555   5.199  15.012  0.00  0.00    +0.000 C 
ATOM     19  C   UNL     1       5.175   6.396  15.889  0.00  0.00    +0.000 C 
ENDBRANCH   9  14
TORSDOF 1
ENDMDL
MODEL 2
REMARK VINA RESULT:      -8.2      2.044      5.632
REMARK  Name = 
REMARK  1 active torsions:
REMARK  status: ('A' for Active; 'I' for Inactive)
REMARK    1  A    between atoms: C_9  and  C_10
REMARK                            x       y       z     vdW  Elec       q    Type
REMARK                         _______ _______ _______ _____ _____    ______ ____
ROOT
ATOM      1  O   UNL     1       6.037   3.658  15.546  0.00  0.00    +0.000 OA
ATOM      2  C   UNL     1       6.179   4.496  16.433  0.00  0.00    +0.000 C 
ATOM      3  N   UNL     1       7.220   5.386  16.340  0.00  0.00    +0.000 N 
ATOM      4  C   UNL     1       7.386   6.578  17.145  0.00  0.00    +0.000 C 
ATOM      5  C   UNL     1       7.841   6.248  18.560  0.00  0.00    +0.000 C 
ATOM      6  C   UNL     1       6.824   5.559  19.476  0.00  0.00    +0.000 C 
ATOM      7  C   UNL     1       5.554   5.128  18.838  0.00  0.00    +0.000 A 
ATOM      8  N   UNL     1       4.344   5.121  19.499  0.00  0.00    +0.000 N 
ATOM      9  C   UNL     1       3.387   4.671  18.623  0.00  0.00    +0.000 A 
ATOM     10  N   UNL     1       3.945   4.301  17.494  0.00  0.00    +0.000 NA
ATOM     11  C   UNL     1       5.276   4.632  17.573  0.00  0.00    +0.000 A 
ATOM     12  H   UNL     1       7.733   5.296  15.474  0.00  0.00    +0.000 HD
ATOM     13  H   UNL     1       4.174   5.443  20.441  0.00  0.00    +0.000 HD
ENDROOT
BRANCH   9  14
ATOM     14  C   UNL     1       1.912   4.671  18.916  0.00  0.00    +0.000 C 
ATOM     15  C   UNL     1       1.274   3.319  18.561  0.00  0.00    +0.000 C 
ATOM     16  C   UNL     1       1.729   2.189  19.485  0.00  0.00    +0.000 C 
ATOM     17  C   UNL     1       1.527   2.525  20.961  0.00  0.00    +0.000 C 
ATOM     18  C   UNL     1       2.080   3.893  21.354  0.00  0.00    +0.000 C 
ATOM     19  C   UNL     1       1.632   5.001  20.396  0.00  0.00    +0.000 C 
ENDBRANCH   9  14
TORSDOF 1
ENDMDL
MODEL 3
REMARK VINA RESULT:      -8.1      2.127      5.580
REMARK  Name = 
REMARK  1 active torsions:
REMARK  status: ('A' for Active; 'I' for Inactive)
REMARK    1  A    between atoms: C_9  and  C_10
REMARK                            x       y       z     vdW  Elec       q    Type
REMARK                         _______ _______ _______ _____ _____    ______ ____
ROOT
ATOM      1  O   UNL     1       5.224   4.436  14.759  0.00  0.00    +0.000 OA
ATOM      2  C   UNL     1       5.512   4.943  15.841  0.00  0.00    +0.000 C 
ATOM      3  N   UNL     1       6.017   6.218  15.860  0.00  0.00    +0.000 N 
ATOM      4  C   UNL     1       6.170   7.049  17.035  0.00  0.00    +0.000 C 
ATOM      5  C   UNL     1       7.349   6.609  17.892  0.00  0.00    +0.000 C 
ATOM      6  C   UNL     1       7.210   5.276  18.637  0.00  0.00    +0.000 C 
ATOM      7  C   UNL     1       6.007   4.467  18.311  0.00  0.00    +0.000 A 
ATOM      8  N   UNL     1       5.366   3.669  19.234  0.00  0.00    +0.000 N 
ATOM      9  C   UNL     1       4.303   3.067  18.606  0.00  0.00    +0.000 A 
ATOM     10  N   UNL     1       4.307   3.363  17.328  0.00  0.00    +0.000 NA
ATOM     11  C   UNL     1       5.311   4.279  17.128  0.00  0.00    +0.000 A 
ATOM     12  H   UNL     1       6.027   6.647  14.944  0.00  0.00    +0.000 HD
ATOM     13  H   UNL     1       5.597   3.580  20.214  0.00  0.00    +0.000 HD
ENDROOT
BRANCH   9  14
ATOM     14  C   UNL     1       3.262   2.245  19.315  0.00  0.00    +0.000 C 
ATOM     15  C   UNL     1       3.039   2.746  20.750  0.00  0.00    +0.000 C 
ATOM     16  C   UNL     1       2.371   4.121  20.800  0.00  0.00    +0.000 C 
ATOM     17  C   UNL     1       1.078   4.171  19.990  0.00  0.00    +0.000 C 
ATOM     18  C   UNL     1       1.226   3.617  18.575  0.00  0.00    +0.000 C 
ATOM     19  C   UNL     1       1.922   2.252  18.551  0.00  0.00    +0.000 C 
ENDBRANCH   9  14
TORSDOF 1
ENDMDL
MODEL 4
REMARK VINA RESULT:      -8.0      1.678      5.464
REMARK  Name = 
REMARK  1 active torsions:
REMARK  status: ('A' for Active; 'I' for Inactive)
REMARK    1  A    between atoms: C_9  and  C_10
REMARK                            x       y       z     vdW  Elec       q    Type
REMARK                         _______ _______ _______ _____ _____    ______ ____
ROOT
ATOM      1  O   UNL     1       7.849   5.099  19.168  0.00  0.00    +0.000 OA
ATOM      2  C   UNL     1       7.170   4.853  18.174  0.00  0.00    +0.000 C 
ATOM      3  N   UNL     1       7.744   4.980  16.934  0.00  0.00    +0.000 N 
ATOM      4  C   UNL     1       7.183   4.497  15.691  0.00  0.00    +0.000 C 
ATOM      5  C   UNL     1       6.034   5.373  15.208  0.00  0.00    +0.000 C 
ATOM      6  C   UNL     1       4.733   5.323  16.018  0.00  0.00    +0.000 C 
ATOM      7  C   UNL     1       4.782   4.556  17.289  0.00  0.00    +0.000 A 
ATOM      8  N   UNL     1       3.704   3.856  17.787  0.00  0.00    +0.000 N 
ATOM      9  C   UNL     1       4.090   3.269  18.966  0.00  0.00    +0.000 A 
ATOM     10  N   UNL     1       5.308   3.644  19.282  0.00  0.00    +0.000 NA
ATOM     11  C   UNL     1       5.785   4.389  18.231  0.00  0.00    +0.000 A 
ATOM     12  H   UNL     1       8.730   5.200  16.982  0.00  0.00    +0.000 HD
ATOM     13  H   UNL     1       2.804   3.744  17.341  0.00  0.00    +0.000 HD
ENDROOT
BRANCH   9  14
ATOM     14  C   UNL     1       3.246   2.290  19.735  0.00  0.00    +0.000 C 
ATOM     15  C   UNL     1       2.968   2.792  21.160  0.00  0.00    +0.000 C 
ATOM     16  C   UNL     1       2.050   4.015  21.188  0.00  0.00    +0.000 C 
ATOM     17  C   UNL     1       0.750   3.787  20.419  0.00  0.00    +0.000 C 
ATOM     18  C   UNL     1       0.965   3.218  19.019  0.00  0.00    +0.000 C 
ATOM     19  C   UNL     1       1.910   2.012  19.016  0.00  0.00    +0.000 C 
ENDBRANCH   9  14
TORSDOF 1
ENDMDL
MODEL 5
REMARK VINA RESULT:      -8.0      0.796      1.682
REMARK  Name = 
REMARK  1 active torsions:
REMARK  status: ('A' for Active; 'I' for Inactive)
REMARK    1  A    between atoms: C_9  and  C_10
REMARK                            x       y       z     vdW  Elec       q    Type
REMARK                         _______ _______ _______ _____ _____    ______ ____
ROOT
ATOM      1  O   UNL     1       4.980   1.754  20.452  0.00  0.00    +0.000 OA
ATOM      2  C   UNL     1       4.025   2.467  20.152  0.00  0.00    +0.000 C 
ATOM      3  N   UNL     1       3.093   2.761  21.115  0.00  0.00    +0.000 N 
ATOM      4  C   UNL     1       2.061   3.771  21.011  0.00  0.00    +0.000 C 
ATOM      5  C   UNL     1       0.925   3.330  20.097  0.00  0.00    +0.000 C 
ATOM      6  C   UNL     1       1.233   3.238  18.598  0.00  0.00    +0.000 C 
ATOM      7  C   UNL     1       2.654   3.423  18.208  0.00  0.00    +0.000 A 
ATOM      8  N   UNL     1       3.037   4.013  17.023  0.00  0.00    +0.000 N 
ATOM      9  C   UNL     1       4.410   4.025  16.982  0.00  0.00    +0.000 A 
ATOM     10  N   UNL     1       4.899   3.387  18.020  0.00  0.00    +0.000 NA
ATOM     11  C   UNL     1       3.839   3.060  18.830  0.00  0.00    +0.000 A 
ATOM     12  H   UNL     1       3.347   2.403  22.026  0.00  0.00    +0.000 HD
ATOM     13  H   UNL     1       2.425   4.418  16.329  0.00  0.00    +0.000 HD
ENDROOT
BRANCH   9  14
ATOM     14  C   UNL     1       5.215   4.728  15.924  0.00  0.00    +0.000 C 
ATOM     15  C   UNL     1       5.107   6.254  16.064  0.00  0.00    +0.000 C 
ATOM     16  C   UNL     1       5.800   6.783  17.321  0.00  0.00    +0.000 C 
ATOM     17  C   UNL     1       7.251   6.320  17.426  0.00  0.00    +0.000 C 
ATOM     18  C   UNL     1       7.425   4.817  17.222  0.00  0.00    +0.000 C 
ATOM     19  C   UNL     1       6.698   4.308  15.973  0.00  0.00    +0.000 C 
ENDBRANCH   9  14
TORSDOF 1
ENDMDL
MODEL 6
REMARK VINA RESULT:      -7.9      2.399      5.561
REMARK  Name = 
REMARK  1 active torsions:
REMARK  status: ('A' for Active; 'I' for Inactive)
REMARK    1  A    between atoms: C_9  and  C_10
REMARK                            x       y       z     vdW  Elec       q    Type
REMARK                         _______ _______ _______ _____ _____    ______ ____
ROOT
ATOM      1  O   UNL     1       6.981   5.106  14.813  0.00  0.00    +0.000 OA
ATOM      2  C   UNL     1       6.927   5.477  15.984  0.00  0.00    +0.000 C 
ATOM      3  N   UNL     1       7.472   6.692  16.318  0.00  0.00    +0.000 N 
ATOM      4  C   UNL     1       7.277   7.388  17.571  0.00  0.00    +0.000 C 
ATOM      5  C   UNL     1       8.080   6.757  18.701  0.00  0.00    +0.000 C 
ATOM      6  C   UNL     1       7.625   5.379  19.194  0.00  0.00    +0.000 C 
ATOM      7  C   UNL     1       6.551   4.723  18.405  0.00  0.00    +0.000 A 
ATOM      8  N   UNL     1       5.597   3.905  18.969  0.00  0.00    +0.000 N 
ATOM      9  C   UNL     1       4.767   3.470  17.965  0.00  0.00    +0.000 A 
ATOM     10  N   UNL     1       5.208   3.885  16.801  0.00  0.00    +0.000 NA
ATOM     11  C   UNL     1       6.274   4.716  17.047  0.00  0.00    +0.000 A 
ATOM     12  H   UNL     1       7.807   7.203  15.513  0.00  0.00    +0.000 HD
ATOM     13  H   UNL     1       5.486   3.701  19.952  0.00  0.00    +0.000 HD
ENDROOT
BRANCH   9  14
ATOM     14  C   UNL     1       3.504   2.686  18.197  0.00  0.00    +0.000 C 
ATOM     15  C   UNL     1       3.161   2.613  19.692  0.00  0.00    +0.000 C 
ATOM     16  C   UNL     1       2.745   3.966  20.272  0.00  0.00    +0.000 C 
ATOM     17  C   UNL     1       1.616   4.618  19.478  0.00  0.00    +0.000 C 
ATOM     18  C   UNL     1       1.873   4.652  17.973  0.00  0.00    +0.000 C 
ATOM     19  C   UNL     1       2.315   3.292  17.424  0.00  0.00    +0.000 C 
ENDBRANCH   9  14
TORSDOF 1
ENDMDL
MODEL 7
REMARK VINA RESULT:      -7.9      1.761      5.297
REMARK  Name = 
REMARK  1 active torsions:
REMARK  status: ('A' for Active; 'I' for Inactive)
REMARK    1  A    between atoms: C_9  and  C_10
REMARK                            x       y       z     vdW  Elec       q    Type
REMARK                         _______ _______ _______ _____ _____    ______ ____
ROOT
ATOM      1  O   UNL     1       8.186   4.739  18.757  0.00  0.00    +0.000 OA
ATOM      2  C   UNL     1       7.343   4.751  17.863  0.00  0.00    +0.000 C 
ATOM      3  N   UNL     1       7.738   4.482  16.577  0.00  0.00    +0.000 N 
ATOM      4  C   UNL     1       6.857   4.209  15.462  0.00  0.00    +0.000 C 
ATOM      5  C   UNL     1       6.179   5.473  14.951  0.00  0.00    +0.000 C 
ATOM      6  C   UNL     1       5.120   6.110  15.859  0.00  0.00    +0.000 C 
ATOM      7  C   UNL     1       4.986   5.528  17.218  0.00  0.00    +0.000 A 
ATOM      8  N   UNL     1       3.786   5.462  17.893  0.00  0.00    +0.000 N 
ATOM      9  C   UNL     1       4.018   4.871  19.111  0.00  0.00    +0.000 A 
ATOM     10  N   UNL     1       5.303   4.659  19.273  0.00  0.00    +0.000 NA
ATOM     11  C   UNL     1       5.920   4.996  18.093  0.00  0.00    +0.000 A 
ATOM     12  H   UNL     1       8.713   4.219  16.516  0.00  0.00    +0.000 HD
ATOM     13  H   UNL     1       2.883   5.744  17.540  0.00  0.00    +0.000 HD
ENDROOT
BRANCH   9  14
ATOM     14  C   UNL     1       2.933   4.474  20.074  0.00  0.00    +0.000 C 
ATOM     15  C   UNL     1       1.540   4.704  19.469  0.00  0.00    +0.000 C 
ATOM     16  C   UNL     1       1.232   3.751  18.313  0.00  0.00    +0.000 C 
ATOM     17  C   UNL     1       1.432   2.287  18.695  0.00  0.00    +0.000 C 
ATOM     18  C   UNL     1       2.776   2.013  19.368  0.00  0.00    +0.000 C 
ATOM     19  C   UNL     1       3.073   2.999  20.503  0.00  0.00    +0.000 C 
ENDBRANCH   9  14
TORSDOF 1
ENDMDL
MODEL 8
REMARK VINA RESULT:      -7.8      1.768      5.278
REMARK  Name = 
REMARK  1 active torsions:
REMARK  status: ('A' for Active; 'I' for Inactive)
REMARK    1  A    between atoms: C_9  and  C_10
REMARK                            x       y       z     vdW  Elec       q    Type
REMARK                         _______ _______ _______ _____ _____    ______ ____
ROOT
ATOM      1  O   UNL     1       7.260   5.455  20.158  0.00  0.00    +0.000 OA
ATOM      2  C   UNL     1       6.823   5.269  19.025  0.00  0.00    +0.000 C 
ATOM      3  N   UNL     1       7.684   4.836  18.048  0.00  0.00    +0.000 N 
ATOM      4  C   UNL     1       7.299   4.332  16.747  0.00  0.00    +0.000 C 
ATOM      5  C   UNL     1       6.859   5.451  15.812  0.00  0.00    +0.000 C 
ATOM      6  C   UNL     1       5.529   6.143  16.131  0.00  0.00    +0.000 C 
ATOM      7  C   UNL     1       4.888   5.768  17.418  0.00  0.00    +0.000 A 
ATOM      8  N   UNL     1       3.522   5.721  17.592  0.00  0.00    +0.000 N 
ATOM      9  C   UNL     1       3.274   5.341  18.888  0.00  0.00    +0.000 A 
ATOM     10  N   UNL     1       4.400   5.250  19.556  0.00  0.00    +0.000 NA
ATOM     11  C   UNL     1       5.420   5.445  18.657  0.00  0.00    +0.000 A 
ATOM     12  H   UNL     1       8.609   4.637  18.403  0.00  0.00    +0.000 HD
ATOM     13  H   UNL     1       2.821   5.880  16.882  0.00  0.00    +0.000 HD
ENDROOT
BRANCH   9  14
ATOM     14  C   UNL     1       1.906   5.021  19.424  0.00  0.00    +0.000 C 
ATOM     15  C   UNL     1       1.183   4.001  18.531  0.00  0.00    +0.000 C 
ATOM     16  C   UNL     1       1.821   2.612  18.583  0.00  0.00    +0.000 C 
ATOM     17  C   UNL     1       1.969   2.090  20.010  0.00  0.00    +0.000 C 
ATOM     18  C   UNL     1       2.617   3.094  20.960  0.00  0.00    +0.000 C 
ATOM     19  C   UNL     1       1.978   4.483  20.868  0.00  0.00    +0.000 C 
ENDBRANCH   9  14
TORSDOF 1
ENDMDL
MODEL 9
REMARK VINA RESULT:      -7.7      1.758      2.280
REMARK  Name = 
REMARK  1 active torsions:
REMARK  status: ('A' for Active; 'I' for Inactive)
REMARK    1  A    between atoms: C_9  and  C_10
REMARK                            x       y       z     vdW  Elec       q    Type
REMARK                         _______ _______ _______ _____ _____    ______ ____
ROOT
ATOM      1  O   UNL     1       1.846   5.840  20.832  0.00  0.00    +0.000 OA
ATOM      2  C   UNL     1       2.094   4.852  20.145  0.00  0.00    +0.000 C 
ATOM      3  N   UNL     1       1.067   4.005  19.811  0.00  0.00    +0.000 N 
ATOM      4  C   UNL     1       1.129   2.954  18.818  0.00  0.00    +0.000 C 
ATOM      5  C   UNL     1       1.914   1.748  19.315  0.00  0.00    +0.000 C 
ATOM      6  C   UNL     1       3.428   1.922  19.479  0.00  0.00    +0.000 C 
ATOM      7  C   UNL     1       3.952   3.301  19.300  0.00  0.00    +0.000 A 
ATOM      8  N   UNL     1       5.195   3.570  18.767  0.00  0.00    +0.000 N 
ATOM      9  C   UNL     1       5.358   4.933  18.745  0.00  0.00    +0.000 A 
ATOM     10  N   UNL     1       4.338   5.521  19.324  0.00  0.00    +0.000 NA
ATOM     11  C   UNL     1       3.422   4.541  19.620  0.00  0.00    +0.000 A 
ATOM     12  H   UNL     1       0.166   4.344  20.120  0.00  0.00    +0.000 HD
ATOM     13  H   UNL     1       5.850   2.893  18.403  0.00  0.00    +0.000 HD
ENDROOT
BRANCH   9  14
ATOM     14  C   UNL     1       6.518   5.631  18.088  0.00  0.00    +0.000 C 
ATOM     15  C   UNL     1       7.317   4.666  17.199  0.00  0.00    +0.000 C 
ATOM     16  C   UNL     1       6.538   4.220  15.960  0.00  0.00    +0.000 C 
ATOM     17  C   UNL     1       6.001   5.399  15.153  0.00  0.00    +0.000 C 
ATOM     18  C   UNL     1       5.258   6.428  16.001  0.00  0.00    +0.000 C 
ATOM     19  C   UNL     1       6.047   6.836  17.249  0.00  0.00    +0.000 C 
ENDBRANCH   9  14
TORSDOF 1
ENDMDL
