MODEL 1
REMARK VINA RESULT:      -8.6      0.000      0.000
REMARK  Name = 
REMARK  7 active torsions:
REMARK  status: ('A' for Active; 'I' for Inactive)
REMARK    1  A    between atoms: C_2  and  C_3
REMARK    2  A    between atoms: C_3  and  C_4
REMARK    3  A    between atoms: C_7  and  O_8
REMARK    4  A    between atoms: O_8  and  C_9
REMARK    5  A    between atoms: N_21  and  C_22
REMARK    6  A    between atoms: C_22  and  C_23
REMARK    7  A    between atoms: C_23  and  C_24
REMARK                            x       y       z     vdW  Elec       q    Type
REMARK                         _______ _______ _______ _____ _____    ______ ____
ROOT
ATOM      1  C   UNL     1       2.113   7.184  19.752  0.00  0.00    +0.000 A 
ATOM      2  C   UNL     1       1.357   7.812  20.752  0.00  0.00    +0.000 A 
ATOM      3  C   UNL     1       0.834   9.094  20.542  0.00  0.00    +0.000 A 
ATOM      4  C   UNL     1       1.058   9.752  19.330  0.00  0.00    +0.000 A 
ATOM      5  C   UNL     1       1.841   9.149  18.346  0.00  0.00    +0.000 A 
ATOM      6  C   UNL     1       2.354   7.877  18.564  0.00  0.00    +0.000 A 
ATOM      7  F   UNL     1       3.101   7.305  17.605  0.00  0.00    +0.000 F 
ENDROOT
BRANCH   1   8
ATOM      8  C   UNL     1       2.674   5.800  19.944  0.00  0.00    +0.000 C 
BRANCH   8  10
ATOM      9  O   UNL     1       1.539   4.725  18.110  0.00  0.00    +0.000 OA
ATOM     10  C   UNL     1       2.599   4.946  18.692  0.00  0.00    +0.000 C 
ATOM     11  N   UNL     1       3.815   4.453  18.269  0.00  0.00    +0.000 N 
ATOM     12  H   UNL     1       4.610   4.533  18.895  0.00  0.00    +0.000 HD
BRANCH  11  13
ATOM     13  C   UNL     1       3.926   3.628  17.079  0.00  0.00    +0.000 C 
BRANCH  13  14
ATOM     14  C   UNL     1       5.150   3.998  16.241  0.00  0.00    +0.000 C 
BRANCH  14  15
ATOM     15  C   UNL     1       6.040   4.993  16.937  0.00  0.00    +0.000 A 
ATOM     16  C   UNL     1       6.950   4.582  17.919  0.00  0.00    +0.000 A 
ATOM     17  C   UNL     1       7.787   5.512  18.542  0.00  0.00    +0.000 A 
ATOM     18  C   UNL     1       7.724   6.861  18.190  0.00  0.00    +0.000 A 
ATOM     19  C   UNL     1       6.822   7.281  17.214  0.00  0.00    +0.000 A 
ATOM     20  C   UNL     1       5.992   6.349  16.596  0.00  0.00    +0.000 A 
ATOM     21  F   UNL     1       5.134   6.770  15.656  0.00  0.00    +0.000 F 
ENDBRANCH  14  15
ENDBRANCH  13  14
ENDBRANCH  11  13
ENDBRANCH   8  10
ENDBRANCH   1   8
BRANCH   4  22
ATOM     22  O   UNL     1       0.554  11.027  19.204  0.00  0.00    +0.000 OA
BRANCH  22  23
ATOM     23  C   UNL     1      -0.740  11.241  18.948  0.00  0.00    +0.000 A 
ATOM     24  N   UNL     1      -1.340  10.839  17.849  0.00  0.00    +0.000 NA
ATOM     25  C   UNL     1      -2.679  11.186  17.890  0.00  0.00    +0.000 A 
ATOM     26  C   UNL     1      -3.632  10.913  16.887  0.00  0.00    +0.000 A 
ATOM     27  C   UNL     1      -4.961  11.308  17.065  0.00  0.00    +0.000 A 
ATOM     28  C   UNL     1      -5.348  11.977  18.221  0.00  0.00    +0.000 A 
ATOM     29  C   UNL     1      -4.420  12.272  19.226  0.00  0.00    +0.000 A 
ATOM     30  C   UNL     1      -3.088  11.861  19.042  0.00  0.00    +0.000 A 
ATOM     31  S   UNL     1      -1.733  12.047  20.087  0.00  0.00    +0.000 S 
ENDBRANCH  22  23
ENDBRANCH   4  22
TORSDOF 7
ENDMDL
MODEL 2
REMARK VINA RESULT:      -8.4      2.703      4.226
REMARK  Name = 
REMARK  7 active torsions:
REMARK  status: ('A' for Active; 'I' for Inactive)
REMARK    1  A    between atoms: C_2  and  C_3
REMARK    2  A    between atoms: C_3  and  C_4
REMARK    3  A    between atoms: C_7  and  O_8
REMARK    4  A    between atoms: O_8  and  C_9
REMARK    5  A    between atoms: N_21  and  C_22
REMARK    6  A    between atoms: C_22  and  C_23
REMARK    7  A    between atoms: C_23  and  C_24
REMARK                            x       y       z     vdW  Elec       q    Type
REMARK                         _______ _______ _______ _____ _____    ______ ____
ROOT
ATOM      1  C   UNL     1       2.858   7.443  18.416  0.00  0.00    +0.000 A 
ATOM      2  C   UNL     1       2.687   6.606  19.528  0.00  0.00    +0.000 A 
ATOM      3  C   UNL     1       1.810   6.970  20.558  0.00  0.00    +0.000 A 
ATOM      4  C   UNL     1       1.096   8.168  20.479  0.00  0.00    +0.000 A 
ATOM      5  C   UNL     1       1.291   9.023  19.394  0.00  0.00    +0.000 A 
ATOM      6  C   UNL     1       2.162   8.652  18.378  0.00  0.00    +0.000 A 
ATOM      7  F   UNL     1       2.335   9.482  17.336  0.00  0.00    +0.000 F 
ENDROOT
BRANCH   1   8
ATOM      8  C   UNL     1       3.781   7.069  17.286  0.00  0.00    +0.000 C 
BRANCH   8  10
ATOM      9  O   UNL     1       5.632   5.748  18.085  0.00  0.00    +0.000 OA
ATOM     10  C   UNL     1       4.533   5.775  17.534  0.00  0.00    +0.000 C 
ATOM     11  N   UNL     1       3.876   4.645  17.095  0.00  0.00    +0.000 N 
ATOM     12  H   UNL     1       3.064   4.763  16.498  0.00  0.00    +0.000 HD
BRANCH  11  13
ATOM     13  C   UNL     1       4.449   3.322  17.264  0.00  0.00    +0.000 C 
BRANCH  13  14
ATOM     14  C   UNL     1       3.391   2.289  17.657  0.00  0.00    +0.000 C 
BRANCH  14  15
ATOM     15  C   UNL     1       2.697   2.645  18.945  0.00  0.00    +0.000 A 
ATOM     16  C   UNL     1       1.368   3.087  18.948  0.00  0.00    +0.000 A 
ATOM     17  C   UNL     1       0.726   3.392  20.151  0.00  0.00    +0.000 A 
ATOM     18  C   UNL     1       1.404   3.258  21.363  0.00  0.00    +0.000 A 
ATOM     19  C   UNL     1       2.726   2.818  21.372  0.00  0.00    +0.000 A 
ATOM     20  C   UNL     1       3.360   2.514  20.170  0.00  0.00    +0.000 A 
ATOM     21  F   UNL     1       4.630   2.087  20.198  0.00  0.00    +0.000 F 
ENDBRANCH  14  15
ENDBRANCH  13  14
ENDBRANCH  11  13
ENDBRANCH   8  10
ENDBRANCH   1   8
BRANCH   4  22
ATOM     22  O   UNL     1       0.285   8.489  21.544  0.00  0.00    +0.000 OA
BRANCH  22  23
ATOM     23  C   UNL     1      -0.294   9.690  21.640  0.00  0.00    +0.000 A 
ATOM     24  N   UNL     1      -0.577  10.445  20.602  0.00  0.00    +0.000 NA
ATOM     25  C   UNL     1      -1.193  11.611  21.021  0.00  0.00    +0.000 A 
ATOM     26  C   UNL     1      -1.642  12.654  20.185  0.00  0.00    +0.000 A 
ATOM     27  C   UNL     1      -2.265  13.774  20.742  0.00  0.00    +0.000 A 
ATOM     28  C   UNL     1      -2.438  13.871  22.119  0.00  0.00    +0.000 A 
ATOM     29  C   UNL     1      -1.990  12.856  22.973  0.00  0.00    +0.000 A 
ATOM     30  C   UNL     1      -1.374  11.729  22.401  0.00  0.00    +0.000 A 
ATOM     31  S   UNL     1      -0.747  10.321  23.166  0.00  0.00    +0.000 S 
ENDBRANCH  22  23
ENDBRANCH   4  22
TORSDOF 7
ENDMDL
MODEL 3
REMARK VINA RESULT:      -8.3      1.703      2.678
REMARK  Name = 
REMARK  7 active torsions:
REMARK  status: ('A' for Active; 'I' for Inactive)
REMARK    1  A    between atoms: C_2  and  C_3
REMARK    2  A    between atoms: C_3  and  C_4
REMARK    3  A    between atoms: C_7  and  O_8
REMARK    4  A    between atoms: O_8  and  C_9
REMARK    5  A    between atoms: N_21  and  C_22
REMARK    6  A    between atoms: C_22  and  C_23
REMARK    7  A    between atoms: C_23  and  C_24
REMARK                            x       y       z     vdW  Elec       q    Type
REMARK                         _______ _______ _______ _____ _____    ______ ____
ROOT
ATOM      1  C   UNL     1       2.464   6.062  18.981  0.00  0.00    +0.000 A 
ATOM      2  C   UNL     1       2.603   6.785  17.787  0.00  0.00    +0.000 A 
ATOM      3  C   UNL     1       2.305   8.153  17.752  0.00  0.00    +0.000 A 
ATOM      4  C   UNL     1       1.872   8.807  18.908  0.00  0.00    +0.000 A 
ATOM      5  C   UNL     1       1.694   8.084  20.089  0.00  0.00    +0.000 A 
ATOM      6  C   UNL     1       1.994   6.729  20.114  0.00  0.00    +0.000 A 
ATOM      7  F   UNL     1       1.825   6.047  21.259  0.00  0.00    +0.000 F 
ENDROOT
BRANCH   1   8
ATOM      8  C   UNL     1       2.792   4.594  19.052  0.00  0.00    +0.000 C 
BRANCH   8  10
ATOM      9  O   UNL     1       4.745   3.186  19.153  0.00  0.00    +0.000 OA
ATOM     10  C   UNL     1       4.277   4.321  19.201  0.00  0.00    +0.000 C 
ATOM     11  N   UNL     1       5.045   5.452  19.386  0.00  0.00    +0.000 N 
ATOM     12  H   UNL     1       4.572   6.326  19.589  0.00  0.00    +0.000 HD
BRANCH  11  13
ATOM     13  C   UNL     1       6.487   5.372  19.534  0.00  0.00    +0.000 C 
BRANCH  13  14
ATOM     14  C   UNL     1       7.217   6.021  18.356  0.00  0.00    +0.000 C 
BRANCH  14  15
ATOM     15  C   UNL     1       6.695   5.543  17.027  0.00  0.00    +0.000 A 
ATOM     16  C   UNL     1       7.047   4.283  16.526  0.00  0.00    +0.000 A 
ATOM     17  C   UNL     1       6.537   3.841  15.302  0.00  0.00    +0.000 A 
ATOM     18  C   UNL     1       5.671   4.652  14.568  0.00  0.00    +0.000 A 
ATOM     19  C   UNL     1       5.315   5.907  15.056  0.00  0.00    +0.000 A 
ATOM     20  C   UNL     1       5.825   6.341  16.277  0.00  0.00    +0.000 A 
ATOM     21  F   UNL     1       5.467   7.549  16.735  0.00  0.00    +0.000 F 
ENDBRANCH  14  15
ENDBRANCH  13  14
ENDBRANCH  11  13
ENDBRANCH   8  10
ENDBRANCH   1   8
BRANCH   4  22
ATOM     22  O   UNL     1       1.553  10.140  18.796  0.00  0.00    +0.000 OA
BRANCH  22  23
ATOM     23  C   UNL     1       0.290  10.565  18.902  0.00  0.00    +0.000 A 
ATOM     24  N   UNL     1      -0.133  11.352  19.866  0.00  0.00    +0.000 NA
ATOM     25  C   UNL     1      -1.476  11.634  19.688  0.00  0.00    +0.000 A 
ATOM     26  C   UNL     1      -2.265  12.450  20.524  0.00  0.00    +0.000 A 
ATOM     27  C   UNL     1      -3.612  12.665  20.217  0.00  0.00    +0.000 A 
ATOM     28  C   UNL     1      -4.182  12.071  19.096  0.00  0.00    +0.000 A 
ATOM     29  C   UNL     1      -3.424  11.246  18.256  0.00  0.00    +0.000 A 
ATOM     30  C   UNL     1      -2.068  11.046  18.568  0.00  0.00    +0.000 A 
ATOM     31  S   UNL     1      -0.880  10.122  17.733  0.00  0.00    +0.000 S 
ENDBRANCH  22  23
ENDBRANCH   4  22
TORSDOF 7
ENDMDL
MODEL 4
REMARK VINA RESULT:      -8.3      3.372      4.541
REMARK  Name = 
REMARK  7 active torsions:
REMARK  status: ('A' for Active; 'I' for Inactive)
REMARK    1  A    between atoms: C_2  and  C_3
REMARK    2  A    between atoms: C_3  and  C_4
REMARK    3  A    between atoms: C_7  and  O_8
REMARK    4  A    between atoms: O_8  and  C_9
REMARK    5  A    between atoms: N_21  and  C_22
REMARK    6  A    between atoms: C_22  and  C_23
REMARK    7  A    between atoms: C_23  and  C_24
REMARK                            x       y       z     vdW  Elec       q    Type
REMARK                         _______ _______ _______ _____ _____    ______ ____
ROOT
ATOM      1  C   UNL     1       2.566   7.484  18.519  0.00  0.00    +0.000 A 
ATOM      2  C   UNL     1       2.419   6.717  19.684  0.00  0.00    +0.000 A 
ATOM      3  C   UNL     1       1.682   7.211  20.767  0.00  0.00    +0.000 A 
ATOM      4  C   UNL     1       1.082   8.471  20.690  0.00  0.00    +0.000 A 
ATOM      5  C   UNL     1       1.257   9.255  19.549  0.00  0.00    +0.000 A 
ATOM      6  C   UNL     1       1.989   8.754  18.480  0.00  0.00    +0.000 A 
ATOM      7  F   UNL     1       2.144   9.517  17.385  0.00  0.00    +0.000 F 
ENDROOT
BRANCH   1   8
ATOM      8  C   UNL     1       3.340   6.971  17.334  0.00  0.00    +0.000 C 
BRANCH   8  10
ATOM      9  O   UNL     1       5.223   5.839  18.322  0.00  0.00    +0.000 OA
ATOM     10  C   UNL     1       4.193   5.759  17.657  0.00  0.00    +0.000 C 
ATOM     11  N   UNL     1       3.708   4.572  17.147  0.00  0.00    +0.000 N 
ATOM     12  H   UNL     1       2.956   4.614  16.467  0.00  0.00    +0.000 HD
BRANCH  11  13
ATOM     13  C   UNL     1       4.395   3.314  17.373  0.00  0.00    +0.000 C 
BRANCH  13  14
ATOM     14  C   UNL     1       3.432   2.210  17.815  0.00  0.00    +0.000 C 
BRANCH  14  15
ATOM     15  C   UNL     1       2.728   2.549  19.102  0.00  0.00    +0.000 A 
ATOM     16  C   UNL     1       3.368   2.391  20.337  0.00  0.00    +0.000 A 
ATOM     17  C   UNL     1       2.712   2.730  21.523  0.00  0.00    +0.000 A 
ATOM     18  C   UNL     1       1.410   3.232  21.488  0.00  0.00    +0.000 A 
ATOM     19  C   UNL     1       0.763   3.393  20.264  0.00  0.00    +0.000 A 
ATOM     20  C   UNL     1       1.423   3.055  19.086  0.00  0.00    +0.000 A 
ATOM     21  F   UNL     1       0.788   3.222  17.917  0.00  0.00    +0.000 F 
ENDBRANCH  14  15
ENDBRANCH  13  14
ENDBRANCH  11  13
ENDBRANCH   8  10
ENDBRANCH   1   8
BRANCH   4  22
ATOM     22  O   UNL     1       0.409   8.917  21.804  0.00  0.00    +0.000 OA
BRANCH  22  23
ATOM     23  C   UNL     1       0.140  10.215  21.981  0.00  0.00    +0.000 A 
ATOM     24  N   UNL     1       0.824  11.183  21.412  0.00  0.00    +0.000 NA
ATOM     25  C   UNL     1       0.290  12.409  21.768  0.00  0.00    +0.000 A 
ATOM     26  C   UNL     1       0.762  13.668  21.342  0.00  0.00    +0.000 A 
ATOM     27  C   UNL     1       0.116  14.833  21.767  0.00  0.00    +0.000 A 
ATOM     28  C   UNL     1      -0.985  14.758  22.614  0.00  0.00    +0.000 A 
ATOM     29  C   UNL     1      -1.466  13.521  23.061  0.00  0.00    +0.000 A 
ATOM     30  C   UNL     1      -0.815  12.356  22.619  0.00  0.00    +0.000 A 
ATOM     31  S   UNL     1      -1.173  10.708  22.963  0.00  0.00    +0.000 S 
ENDBRANCH  22  23
ENDBRANCH   4  22
TORSDOF 7
ENDMDL
MODEL 5
REMARK VINA RESULT:      -8.3      3.402      9.491
REMARK  Name = 
REMARK  7 active torsions:
REMARK  status: ('A' for Active; 'I' for Inactive)
REMARK    1  A    between atoms: C_2  and  C_3
REMARK    2  A    between atoms: C_3  and  C_4
REMARK    3  A    between atoms: C_7  and  O_8
REMARK    4  A    between atoms: O_8  and  C_9
REMARK    5  A    between atoms: N_21  and  C_22
REMARK    6  A    between atoms: C_22  and  C_23
REMARK    7  A    between atoms: C_23  and  C_24
REMARK                            x       y       z     vdW  Elec       q    Type
REMARK                         _______ _______ _______ _____ _____    ______ ____
ROOT
ATOM      1  C   UNL     1       2.628   6.512  19.490  0.00  0.00    +0.000 A 
ATOM      2  C   UNL     1       3.105   7.283  18.420  0.00  0.00    +0.000 A 
ATOM      3  C   UNL     1       4.312   6.951  17.793  0.00  0.00    +0.000 A 
ATOM      4  C   UNL     1       5.046   5.844  18.227  0.00  0.00    +0.000 A 
ATOM      5  C   UNL     1       4.597   5.097  19.316  0.00  0.00    +0.000 A 
ATOM      6  C   UNL     1       3.398   5.434  19.930  0.00  0.00    +0.000 A 
ATOM      7  F   UNL     1       2.974   4.701  20.973  0.00  0.00    +0.000 F 
ENDROOT
BRANCH   1   8
ATOM      8  C   UNL     1       1.325   6.836  20.172  0.00  0.00    +0.000 C 
BRANCH   8  10
ATOM      9  O   UNL     1       1.583   8.586  21.809  0.00  0.00    +0.000 OA
ATOM     10  C   UNL     1       1.252   8.267  20.669  0.00  0.00    +0.000 C 
ATOM     11  N   UNL     1       0.790   9.169  19.733  0.00  0.00    +0.000 N 
ATOM     12  H   UNL     1       0.374   8.806  18.881  0.00  0.00    +0.000 HD
BRANCH  11  13
ATOM     13  C   UNL     1       0.669  10.583  20.038  0.00  0.00    +0.000 C 
BRANCH  13  14
ATOM     14  C   UNL     1       0.210  11.391  18.823  0.00  0.00    +0.000 C 
BRANCH  14  15
ATOM     15  C   UNL     1      -1.239  11.152  18.492  0.00  0.00    +0.000 A 
ATOM     16  C   UNL     1      -2.245  11.955  19.045  0.00  0.00    +0.000 A 
ATOM     17  C   UNL     1      -3.585  11.738  18.712  0.00  0.00    +0.000 A 
ATOM     18  C   UNL     1      -3.933  10.719  17.825  0.00  0.00    +0.000 A 
ATOM     19  C   UNL     1      -2.941   9.915  17.270  0.00  0.00    +0.000 A 
ATOM     20  C   UNL     1      -1.607  10.136  17.604  0.00  0.00    +0.000 A 
ATOM     21  F   UNL     1      -0.664   9.356  17.056  0.00  0.00    +0.000 F 
ENDBRANCH  14  15
ENDBRANCH  13  14
ENDBRANCH  11  13
ENDBRANCH   8  10
ENDBRANCH   1   8
BRANCH   4  22
ATOM     22  O   UNL     1       6.245   5.598  17.599  0.00  0.00    +0.000 OA
BRANCH  22  23
ATOM     23  C   UNL     1       6.293   5.181  16.330  0.00  0.00    +0.000 A 
ATOM     24  N   UNL     1       7.177   5.609  15.456  0.00  0.00    +0.000 NA
ATOM     25  C   UNL     1       6.985   4.975  14.242  0.00  0.00    +0.000 A 
ATOM     26  C   UNL     1       7.749   5.180  13.074  0.00  0.00    +0.000 A 
ATOM     27  C   UNL     1       7.455   4.457  11.914  0.00  0.00    +0.000 A 
ATOM     28  C   UNL     1       6.407   3.543  11.901  0.00  0.00    +0.000 A 
ATOM     29  C   UNL     1       5.624   3.330  13.042  0.00  0.00    +0.000 A 
ATOM     30  C   UNL     1       5.935   4.054  14.206  0.00  0.00    +0.000 A 
ATOM     31  S   UNL     1       5.190   4.002  15.757  0.00  0.00    +0.000 S 
ENDBRANCH  22  23
ENDBRANCH   4  22
TORSDOF 7
ENDMDL
MODEL 6
REMARK VINA RESULT:      -8.1      1.499      2.175
REMARK  Name = 
REMARK  7 active torsions:
REMARK  status: ('A' for Active; 'I' for Inactive)
REMARK    1  A    between atoms: C_2  and  C_3
REMARK    2  A    between atoms: C_3  and  C_4
REMARK    3  A    between atoms: C_7  and  O_8
REMARK    4  A    between atoms: O_8  and  C_9
REMARK    5  A    between atoms: N_21  and  C_22
REMARK    6  A    between atoms: C_22  and  C_23
REMARK    7  A    between atoms: C_23  and  C_24
REMARK                            x       y       z     vdW  Elec       q    Type
REMARK                         _______ _______ _______ _____ _____    ______ ____
ROOT
ATOM      1  C   UNL     1       2.032   7.605  19.489  0.00  0.00    +0.000 A 
ATOM      2  C   UNL     1       2.017   8.142  18.193  0.00  0.00    +0.000 A 
ATOM      3  C   UNL     1       1.439   9.395  17.954  0.00  0.00    +0.000 A 
ATOM      4  C   UNL     1       0.877  10.120  19.008  0.00  0.00    +0.000 A 
ATOM      5  C   UNL     1       0.854   9.575  20.292  0.00  0.00    +0.000 A 
ATOM      6  C   UNL     1       1.432   8.332  20.518  0.00  0.00    +0.000 A 
ATOM      7  F   UNL     1       1.408   7.822  21.761  0.00  0.00    +0.000 F 
ENDROOT
BRANCH   1   8
ATOM      8  C   UNL     1       2.661   6.268  19.778  0.00  0.00    +0.000 C 
BRANCH   8  10
ATOM      9  O   UNL     1       1.923   4.689  18.114  0.00  0.00    +0.000 OA
ATOM     10  C   UNL     1       2.826   5.406  18.541  0.00  0.00    +0.000 C 
ATOM     11  N   UNL     1       4.065   5.505  17.942  0.00  0.00    +0.000 N 
ATOM     12  H   UNL     1       4.806   5.977  18.449  0.00  0.00    +0.000 HD
BRANCH  11  13
ATOM     13  C   UNL     1       4.387   4.757  16.740  0.00  0.00    +0.000 C 
BRANCH  13  14
ATOM     14  C   UNL     1       5.600   5.340  16.014  0.00  0.00    +0.000 C 
BRANCH  14  15
ATOM     15  C   UNL     1       6.552   6.030  16.955  0.00  0.00    +0.000 A 
ATOM     16  C   UNL     1       6.809   7.402  16.841  0.00  0.00    +0.000 A 
ATOM     17  C   UNL     1       7.676   8.036  17.736  0.00  0.00    +0.000 A 
ATOM     18  C   UNL     1       8.294   7.307  18.752  0.00  0.00    +0.000 A 
ATOM     19  C   UNL     1       8.046   5.942  18.874  0.00  0.00    +0.000 A 
ATOM     20  C   UNL     1       7.180   5.316  17.981  0.00  0.00    +0.000 A 
ATOM     21  F   UNL     1       6.948   4.002  18.117  0.00  0.00    +0.000 F 
ENDBRANCH  14  15
ENDBRANCH  13  14
ENDBRANCH  11  13
ENDBRANCH   8  10
ENDBRANCH   1   8
BRANCH   4  22
ATOM     22  O   UNL     1       0.286  11.324  18.699  0.00  0.00    +0.000 OA
BRANCH  22  23
ATOM     23  C   UNL     1      -1.042  11.473  18.728  0.00  0.00    +0.000 A 
ATOM     24  N   UNL     1      -1.678  12.140  19.665  0.00  0.00    +0.000 NA
ATOM     25  C   UNL     1      -3.037  12.138  19.404  0.00  0.00    +0.000 A 
ATOM     26  C   UNL     1      -4.029  12.759  20.192  0.00  0.00    +0.000 A 
ATOM     27  C   UNL     1      -5.370  12.692  19.802  0.00  0.00    +0.000 A 
ATOM     28  C   UNL     1      -5.734  12.010  18.646  0.00  0.00    +0.000 A 
ATOM     29  C   UNL     1      -4.771  11.374  17.854  0.00  0.00    +0.000 A 
ATOM     30  C   UNL     1      -3.425  11.456  18.249  0.00  0.00    +0.000 A 
ATOM     31  S   UNL     1      -2.021  10.813  17.487  0.00  0.00    +0.000 S 
ENDBRANCH  22  23
ENDBRANCH   4  22
TORSDOF 7
ENDMDL
MODEL 7
REMARK VINA RESULT:      -8.1      3.674      5.549
REMARK  Name = 
REMARK  7 active torsions:
REMARK  status: ('A' for Active; 'I' for Inactive)
REMARK    1  A    between atoms: C_2  and  C_3
REMARK    2  A    between atoms: C_3  and  C_4
REMARK    3  A    between atoms: C_7  and  O_8
REMARK    4  A    between atoms: O_8  and  C_9
REMARK    5  A    between atoms: N_21  and  C_22
REMARK    6  A    between atoms: C_22  and  C_23
REMARK    7  A    between atoms: C_23  and  C_24
REMARK                            x       y       z     vdW  Elec       q    Type
REMARK                         _______ _______ _______ _____ _____    ______ ____
ROOT
ATOM      1  C   UNL     1      -0.539  10.672  19.332  0.00  0.00    +0.000 A 
ATOM      2  C   UNL     1      -0.186  10.173  20.594  0.00  0.00    +0.000 A 
ATOM      3  C   UNL     1      -0.580  10.849  21.756  0.00  0.00    +0.000 A 
ATOM      4  C   UNL     1      -1.332  12.022  21.663  0.00  0.00    +0.000 A 
ATOM      5  C   UNL     1      -1.653  12.544  20.410  0.00  0.00    +0.000 A 
ATOM      6  C   UNL     1      -1.259  11.865  19.264  0.00  0.00    +0.000 A 
ATOM      7  F   UNL     1      -1.581  12.376  18.063  0.00  0.00    +0.000 F 
ENDROOT
BRANCH   1   8
ATOM      8  C   UNL     1      -0.143   9.957  18.066  0.00  0.00    +0.000 C 
BRANCH   8  10
ATOM      9  O   UNL     1       2.225  10.105  17.648  0.00  0.00    +0.000 OA
ATOM     10  C   UNL     1       1.285   9.448  18.091  0.00  0.00    +0.000 C 
ATOM     11  N   UNL     1       1.431   8.197  18.653  0.00  0.00    +0.000 N 
ATOM     12  H   UNL     1       0.595   7.651  18.833  0.00  0.00    +0.000 HD
BRANCH  11  13
ATOM     13  C   UNL     1       2.733   7.565  18.768  0.00  0.00    +0.000 C 
BRANCH  13  14
ATOM     14  C   UNL     1       2.749   6.173  18.136  0.00  0.00    +0.000 C 
BRANCH  14  15
ATOM     15  C   UNL     1       2.262   5.109  19.084  0.00  0.00    +0.000 A 
ATOM     16  C   UNL     1       2.625   5.130  20.437  0.00  0.00    +0.000 A 
ATOM     17  C   UNL     1       2.147   4.151  21.312  0.00  0.00    +0.000 A 
ATOM     18  C   UNL     1       1.303   3.142  20.846  0.00  0.00    +0.000 A 
ATOM     19  C   UNL     1       0.936   3.112  19.503  0.00  0.00    +0.000 A 
ATOM     20  C   UNL     1       1.413   4.091  18.635  0.00  0.00    +0.000 A 
ATOM     21  F   UNL     1       1.045   4.050  17.347  0.00  0.00    +0.000 F 
ENDBRANCH  14  15
ENDBRANCH  13  14
ENDBRANCH  11  13
ENDBRANCH   8  10
ENDBRANCH   1   8
BRANCH   4  22
ATOM     22  O   UNL     1      -1.649  12.662  22.839  0.00  0.00    +0.000 OA
BRANCH  22  23
ATOM     23  C   UNL     1      -2.890  13.095  23.083  0.00  0.00    +0.000 A 
ATOM     24  N   UNL     1      -3.888  12.300  23.402  0.00  0.00    +0.000 NA
ATOM     25  C   UNL     1      -5.033  13.046  23.617  0.00  0.00    +0.000 A 
ATOM     26  C   UNL     1      -6.295  12.531  23.981  0.00  0.00    +0.000 A 
ATOM     27  C   UNL     1      -7.370  13.403  24.183  0.00  0.00    +0.000 A 
ATOM     28  C   UNL     1      -7.204  14.774  24.020  0.00  0.00    +0.000 A 
ATOM     29  C   UNL     1      -5.965  15.309  23.647  0.00  0.00    +0.000 A 
ATOM     30  C   UNL     1      -4.889  14.425  23.456  0.00  0.00    +0.000 A 
ATOM     31  S   UNL     1      -3.258  14.767  23.026  0.00  0.00    +0.000 S 
ENDBRANCH  22  23
ENDBRANCH   4  22
TORSDOF 7
ENDMDL
MODEL 8
REMARK VINA RESULT:      -8.1      2.743      4.634
REMARK  Name = 
REMARK  7 active torsions:
REMARK  status: ('A' for Active; 'I' for Inactive)
REMARK    1  A    between atoms: C_2  and  C_3
REMARK    2  A    between atoms: C_3  and  C_4
REMARK    3  A    between atoms: C_7  and  O_8
REMARK    4  A    between atoms: O_8  and  C_9
REMARK    5  A    between atoms: N_21  and  C_22
REMARK    6  A    between atoms: C_22  and  C_23
REMARK    7  A    between atoms: C_23  and  C_24
REMARK                            x       y       z     vdW  Elec       q    Type
REMARK                         _______ _______ _______ _____ _____    ______ ____
ROOT
ATOM      1  C   UNL     1       4.002   6.679  18.107  0.00  0.00    +0.000 A 
ATOM      2  C   UNL     1       3.366   7.692  17.374  0.00  0.00    +0.000 A 
ATOM      3  C   UNL     1       2.264   8.367  17.913  0.00  0.00    +0.000 A 
ATOM      4  C   UNL     1       1.795   8.039  19.187  0.00  0.00    +0.000 A 
ATOM      5  C   UNL     1       2.399   7.006  19.905  0.00  0.00    +0.000 A 
ATOM      6  C   UNL     1       3.493   6.344  19.362  0.00  0.00    +0.000 A 
ATOM      7  F   UNL     1       4.069   5.356  20.067  0.00  0.00    +0.000 F 
ENDROOT
BRANCH   1   8
ATOM      8  C   UNL     1       5.199   5.948  17.559  0.00  0.00    +0.000 C 
BRANCH   8  10
ATOM      9  O   UNL     1       4.768   4.546  15.648  0.00  0.00    +0.000 OA
ATOM     10  C   UNL     1       4.839   4.645  16.871  0.00  0.00    +0.000 C 
ATOM     11  N   UNL     1       4.609   3.593  17.733  0.00  0.00    +0.000 N 
ATOM     12  H   UNL     1       4.516   3.796  18.723  0.00  0.00    +0.000 HD
BRANCH  11  13
ATOM     13  C   UNL     1       4.266   2.271  17.241  0.00  0.00    +0.000 C 
BRANCH  13  14
ATOM     14  C   UNL     1       3.656   1.396  18.336  0.00  0.00    +0.000 C 
BRANCH  14  15
ATOM     15  C   UNL     1       2.789   2.185  19.281  0.00  0.00    +0.000 A 
ATOM     16  C   UNL     1       1.543   2.679  18.873  0.00  0.00    +0.000 A 
ATOM     17  C   UNL     1       0.737   3.389  19.766  0.00  0.00    +0.000 A 
ATOM     18  C   UNL     1       1.166   3.614  21.075  0.00  0.00    +0.000 A 
ATOM     19  C   UNL     1       2.403   3.127  21.491  0.00  0.00    +0.000 A 
ATOM     20  C   UNL     1       3.201   2.418  20.597  0.00  0.00    +0.000 A 
ATOM     21  F   UNL     1       4.386   1.952  21.017  0.00  0.00    +0.000 F 
ENDBRANCH  14  15
ENDBRANCH  13  14
ENDBRANCH  11  13
ENDBRANCH   8  10
ENDBRANCH   1   8
BRANCH   4  22
ATOM     22  O   UNL     1       0.681   8.708  19.640  0.00  0.00    +0.000 OA
BRANCH  22  23
ATOM     23  C   UNL     1       0.568  10.034  19.515  0.00  0.00    +0.000 A 
ATOM     24  N   UNL     1       1.350  10.892  20.132  0.00  0.00    +0.000 NA
ATOM     25  C   UNL     1       1.002  12.184  19.781  0.00  0.00    +0.000 A 
ATOM     26  C   UNL     1       1.626  13.361  20.244  0.00  0.00    +0.000 A 
ATOM     27  C   UNL     1       1.180  14.607  19.795  0.00  0.00    +0.000 A 
ATOM     28  C   UNL     1       0.120  14.695  18.899  0.00  0.00    +0.000 A 
ATOM     29  C   UNL     1      -0.525  13.543  18.434  0.00  0.00    +0.000 A 
ATOM     30  C   UNL     1      -0.063  12.294  18.885  0.00  0.00    +0.000 A 
ATOM     31  S   UNL     1      -0.619  10.715  18.485  0.00  0.00    +0.000 S 
ENDBRANCH  22  23
ENDBRANCH   4  22
TORSDOF 7
ENDMDL
MODEL 9
REMARK VINA RESULT:      -8.0      2.273      2.908
REMARK  Name = 
REMARK  7 active torsions:
REMARK  status: ('A' for Active; 'I' for Inactive)
REMARK    1  A    between atoms: C_2  and  C_3
REMARK    2  A    between atoms: C_3  and  C_4
REMARK    3  A    between atoms: C_7  and  O_8
REMARK    4  A    between atoms: O_8  and  C_9
REMARK    5  A    between atoms: N_21  and  C_22
REMARK    6  A    between atoms: C_22  and  C_23
REMARK    7  A    between atoms: C_23  and  C_24
REMARK                            x       y       z     vdW  Elec       q    Type
REMARK                         _______ _______ _______ _____ _____    ______ ____
ROOT
ATOM      1  C   UNL     1       1.907   4.981  18.742  0.00  0.00    +0.000 A 
ATOM      2  C   UNL     1       1.372   4.778  20.022  0.00  0.00    +0.000 A 
ATOM      3  C   UNL     1       1.364   5.820  20.958  0.00  0.00    +0.000 A 
ATOM      4  C   UNL     1       1.884   7.071  20.618  0.00  0.00    +0.000 A 
ATOM      5  C   UNL     1       2.453   7.268  19.360  0.00  0.00    +0.000 A 
ATOM      6  C   UNL     1       2.454   6.229  18.439  0.00  0.00    +0.000 A 
ATOM      7  F   UNL     1       2.999   6.435  17.228  0.00  0.00    +0.000 F 
ENDROOT
BRANCH   1   8
ATOM      8  C   UNL     1       1.914   3.884  17.710  0.00  0.00    +0.000 C 
BRANCH   8  10
ATOM      9  O   UNL     1       3.594   2.298  18.393  0.00  0.00    +0.000 OA
ATOM     10  C   UNL     1       3.250   3.175  17.603  0.00  0.00    +0.000 C 
ATOM     11  N   UNL     1       4.031   3.594  16.547  0.00  0.00    +0.000 N 
ATOM     12  H   UNL     1       3.756   4.435  16.050  0.00  0.00    +0.000 HD
BRANCH  11  13
ATOM     13  C   UNL     1       5.336   3.010  16.290  0.00  0.00    +0.000 C 
BRANCH  13  14
ATOM     14  C   UNL     1       6.304   4.024  15.680  0.00  0.00    +0.000 C 
BRANCH  14  15
ATOM     15  C   UNL     1       6.799   5.023  16.693  0.00  0.00    +0.000 A 
ATOM     16  C   UNL     1       7.654   4.632  17.731  0.00  0.00    +0.000 A 
ATOM     17  C   UNL     1       8.125   5.573  18.651  0.00  0.00    +0.000 A 
ATOM     18  C   UNL     1       7.747   6.912  18.544  0.00  0.00    +0.000 A 
ATOM     19  C   UNL     1       6.897   7.311  17.515  0.00  0.00    +0.000 A 
ATOM     20  C   UNL     1       6.432   6.370  16.600  0.00  0.00    +0.000 A 
ATOM     21  F   UNL     1       5.619   6.773  15.614  0.00  0.00    +0.000 F 
ENDBRANCH  14  15
ENDBRANCH  13  14
ENDBRANCH  11  13
ENDBRANCH   8  10
ENDBRANCH   1   8
BRANCH   4  22
ATOM     22  O   UNL     1       1.887   8.038  21.597  0.00  0.00    +0.000 OA
BRANCH  22  23
ATOM     23  C   UNL     1       0.976   9.017  21.610  0.00  0.00    +0.000 A 
ATOM     24  N   UNL     1       0.563   9.640  20.529  0.00  0.00    +0.000 NA
ATOM     25  C   UNL     1      -0.396  10.579  20.864  0.00  0.00    +0.000 A 
ATOM     26  C   UNL     1      -1.067  11.430  19.961  0.00  0.00    +0.000 A 
ATOM     27  C   UNL     1      -2.030  12.326  20.435  0.00  0.00    +0.000 A 
ATOM     28  C   UNL     1      -2.326  12.388  21.793  0.00  0.00    +0.000 A 
ATOM     29  C   UNL     1      -1.666  11.563  22.711  0.00  0.00    +0.000 A 
ATOM     30  C   UNL     1      -0.707  10.659  22.223  0.00  0.00    +0.000 A 
ATOM     31  S   UNL     1       0.246   9.509  23.079  0.00  0.00    +0.000 S 
ENDBRANCH  22  23
ENDBRANCH   4  22
TORSDOF 7
ENDMDL
