MODEL 1
REMARK VINA RESULT:      -8.2      0.000      0.000
REMARK  Name = 
REMARK  5 active torsions:
REMARK  status: ('A' for Active; 'I' for Inactive)
REMARK    1  A    between atoms: C_1  and  C_2
REMARK    2  A    between atoms: C_11  and  C_12
REMARK    3  A    between atoms: C_12  and  O_13
REMARK    4  A    between atoms: C_12  and  C_14
REMARK    5  A    between atoms: C_16  and  C_17
REMARK                            x       y       z     vdW  Elec       q    Type
REMARK                         _______ _______ _______ _____ _____    ______ ____
ROOT
ATOM      1  C   UNL     1       1.060  10.256  18.024  0.00  0.00    +0.000 C 
ENDROOT
BRANCH   1  12
ATOM      2  C   UNL     1       1.445  12.334  20.435  0.00  0.00    +0.000 C 
ATOM      3  C   UNL     1       0.134  12.004  19.771  0.00  0.00    +0.000 A 
ATOM      4  C   UNL     1      -0.967  12.695  20.304  0.00  0.00    +0.000 A 
ATOM      5  C   UNL     1      -2.247  12.514  19.808  0.00  0.00    +0.000 A 
ATOM      6  C   UNL     1      -2.484  11.629  18.768  0.00  0.00    +0.000 A 
ATOM      7  C   UNL     1      -3.799  11.495  18.291  0.00  0.00    +0.000 A 
ATOM      8  C   UNL     1      -4.099  10.633  17.249  0.00  0.00    +0.000 A 
ATOM      9  C   UNL     1      -3.087   9.878  16.679  0.00  0.00    +0.000 A 
ATOM     10  C   UNL     1      -1.774   9.993  17.154  0.00  0.00    +0.000 A 
ATOM     11  C   UNL     1      -1.413  10.879  18.203  0.00  0.00    +0.000 A 
ATOM     12  C   UNL     1      -0.062  11.073  18.708  0.00  0.00    +0.000 A 
ENDBRANCH   1  12
BRANCH   1  13
ATOM     13  C   UNL     1       1.588   9.030  18.704  0.00  0.00    +0.000 A 
ATOM     14  N   UNL     1       2.213   7.997  18.168  0.00  0.00    +0.000 NA
ATOM     15  C   UNL     1       2.267   7.034  19.156  0.00  0.00    +0.000 A 
ATOM     16  C   UNL     1       1.770   7.539  20.338  0.00  0.00    +0.000 A 
ATOM     17  N   UNL     1       1.421   8.829  20.055  0.00  0.00    +0.000 N 
ATOM     18  H   UNL     1       0.986   9.502  20.673  0.00  0.00    +0.000 HD
BRANCH  15  19
ATOM     19  C   UNL     1       2.678   5.664  18.894  0.00  0.00    +0.000 A 
ATOM     20  C   UNL     1       1.917   4.872  18.021  0.00  0.00    +0.000 A 
ATOM     21  C   UNL     1       2.248   3.534  17.792  0.00  0.00    +0.000 A 
ATOM     22  C   UNL     1       3.345   2.975  18.442  0.00  0.00    +0.000 A 
ATOM     23 CL   UNL     1       3.751   1.325  18.172  0.00  0.00    +0.000 Cl
ATOM     24  C   UNL     1       4.113   3.743  19.314  0.00  0.00    +0.000 A 
ATOM     25  C   UNL     1       3.781   5.083  19.538  0.00  0.00    +0.000 A 
ENDBRANCH  15  19
ENDBRANCH   1  13
BRANCH   1  26
ATOM     26  O   UNL     1       2.216  11.090  17.821  0.00  0.00    +0.000 OA
ATOM     27  H   UNL     1       2.983  10.611  18.178  0.00  0.00    +0.000 HD
ENDBRANCH   1  26
TORSDOF 4
ENDMDL
MODEL 2
REMARK VINA RESULT:      -8.1      6.673      9.315
REMARK  Name = 
REMARK  5 active torsions:
REMARK  status: ('A' for Active; 'I' for Inactive)
REMARK    1  A    between atoms: C_1  and  C_2
REMARK    2  A    between atoms: C_11  and  C_12
REMARK    3  A    between atoms: C_12  and  O_13
REMARK    4  A    between atoms: C_12  and  C_14
REMARK    5  A    between atoms: C_16  and  C_17
REMARK                            x       y       z     vdW  Elec       q    Type
REMARK                         _______ _______ _______ _____ _____    ______ ____
ROOT
ATOM      1  C   UNL     1       6.931   5.709  18.690  0.00  0.00    +0.000 C 
ENDROOT
BRANCH   1  12
ATOM      2  C   UNL     1       7.359   4.514  15.746  0.00  0.00    +0.000 C 
ATOM      3  C   UNL     1       6.065   4.488  16.516  0.00  0.00    +0.000 A 
ATOM      4  C   UNL     1       5.002   3.882  15.827  0.00  0.00    +0.000 A 
ATOM      5  C   UNL     1       3.742   3.770  16.391  0.00  0.00    +0.000 A 
ATOM      6  C   UNL     1       3.488   4.267  17.660  0.00  0.00    +0.000 A 
ATOM      7  C   UNL     1       2.196   4.112  18.192  0.00  0.00    +0.000 A 
ATOM      8  C   UNL     1       1.882   4.580  19.457  0.00  0.00    +0.000 A 
ATOM      9  C   UNL     1       2.853   5.227  20.203  0.00  0.00    +0.000 A 
ATOM     10  C   UNL     1       4.141   5.399  19.679  0.00  0.00    +0.000 A 
ATOM     11  C   UNL     1       4.519   4.916  18.398  0.00  0.00    +0.000 A 
ATOM     12  C   UNL     1       5.849   5.026  17.819  0.00  0.00    +0.000 A 
ENDBRANCH   1  12
BRANCH   1  13
ATOM     13  C   UNL     1       7.469   7.044  18.273  0.00  0.00    +0.000 A 
ATOM     14  N   UNL     1       8.455   7.737  18.811  0.00  0.00    +0.000 NA
ATOM     15  C   UNL     1       8.396   8.989  18.234  0.00  0.00    +0.000 A 
ATOM     16  C   UNL     1       7.432   9.012  17.250  0.00  0.00    +0.000 A 
ATOM     17  N   UNL     1       6.911   7.749  17.232  0.00  0.00    +0.000 N 
ATOM     18  H   UNL     1       6.154   7.401  16.660  0.00  0.00    +0.000 HD
BRANCH  15  19
ATOM     19  C   UNL     1       9.174  10.117  18.723  0.00  0.00    +0.000 A 
ATOM     20  C   UNL     1       9.229  10.367  20.103  0.00  0.00    +0.000 A 
ATOM     21  C   UNL     1       9.918  11.475  20.604  0.00  0.00    +0.000 A 
ATOM     22  C   UNL     1      10.554  12.346  19.725  0.00  0.00    +0.000 A 
ATOM     23 CL   UNL     1      11.394  13.718  20.335  0.00  0.00    +0.000 Cl
ATOM     24  C   UNL     1      10.510  12.117  18.351  0.00  0.00    +0.000 A 
ATOM     25  C   UNL     1       9.823  11.006  17.853  0.00  0.00    +0.000 A 
ENDBRANCH  15  19
ENDBRANCH   1  13
BRANCH   1  26
ATOM     26  O   UNL     1       8.090   4.859  18.782  0.00  0.00    +0.000 OA
ATOM     27  H   UNL     1       8.688   5.257  19.437  0.00  0.00    +0.000 HD
ENDBRANCH   1  26
TORSDOF 4
ENDMDL
MODEL 3
REMARK VINA RESULT:      -7.7      1.021      1.126
REMARK  Name = 
REMARK  5 active torsions:
REMARK  status: ('A' for Active; 'I' for Inactive)
REMARK    1  A    between atoms: C_1  and  C_2
REMARK    2  A    between atoms: C_11  and  C_12
REMARK    3  A    between atoms: C_12  and  O_13
REMARK    4  A    between atoms: C_12  and  C_14
REMARK    5  A    between atoms: C_16  and  C_17
REMARK                            x       y       z     vdW  Elec       q    Type
REMARK                         _______ _______ _______ _____ _____    ______ ____
ROOT
ATOM      1  C   UNL     1       0.720  10.764  18.811  0.00  0.00    +0.000 C 
ENDROOT
BRANCH   1  12
ATOM      2  C   UNL     1       0.081  12.620  21.347  0.00  0.00    +0.000 C 
ATOM      3  C   UNL     1      -0.922  12.186  20.311  0.00  0.00    +0.000 A 
ATOM      4  C   UNL     1      -2.222  12.665  20.539  0.00  0.00    +0.000 A 
ATOM      5  C   UNL     1      -3.267  12.365  19.681  0.00  0.00    +0.000 A 
ATOM      6  C   UNL     1      -3.061  11.566  18.567  0.00  0.00    +0.000 A 
ATOM      7  C   UNL     1      -4.151  11.306  17.719  0.00  0.00    +0.000 A 
ATOM      8  C   UNL     1      -4.007  10.522  16.587  0.00  0.00    +0.000 A 
ATOM      9  C   UNL     1      -2.771   9.971  16.294  0.00  0.00    +0.000 A 
ATOM     10  C   UNL     1      -1.678  10.213  17.138  0.00  0.00    +0.000 A 
ATOM     11  C   UNL     1      -1.770  11.029  18.296  0.00  0.00    +0.000 A 
ATOM     12  C   UNL     1      -0.663  11.350  19.185  0.00  0.00    +0.000 A 
ENDBRANCH   1  12
BRANCH   1  13
ATOM     13  C   UNL     1       1.195   9.520  19.497  0.00  0.00    +0.000 A 
ATOM     14  N   UNL     1       1.805   8.473  18.972  0.00  0.00    +0.000 NA
ATOM     15  C   UNL     1       1.805   7.503  19.954  0.00  0.00    +0.000 A 
ATOM     16  C   UNL     1       1.290   8.015  21.126  0.00  0.00    +0.000 A 
ATOM     17  N   UNL     1       0.986   9.316  20.842  0.00  0.00    +0.000 N 
ATOM     18  H   UNL     1       0.554   9.997  21.452  0.00  0.00    +0.000 HD
BRANCH  15  19
ATOM     19  C   UNL     1       2.184   6.124  19.695  0.00  0.00    +0.000 A 
ATOM     20  C   UNL     1       2.596   5.754  18.405  0.00  0.00    +0.000 A 
ATOM     21  C   UNL     1       2.912   4.426  18.105  0.00  0.00    +0.000 A 
ATOM     22  C   UNL     1       2.812   3.454  19.096  0.00  0.00    +0.000 A 
ATOM     23 CL   UNL     1       3.189   1.816  18.730  0.00  0.00    +0.000 Cl
ATOM     24  C   UNL     1       2.404   3.799  20.382  0.00  0.00    +0.000 A 
ATOM     25  C   UNL     1       2.092   5.129  20.680  0.00  0.00    +0.000 A 
ENDBRANCH  15  19
ENDBRANCH   1  13
BRANCH   1  26
ATOM     26  O   UNL     1       1.748  11.740  19.067  0.00  0.00    +0.000 OA
ATOM     27  H   UNL     1       2.587  11.364  18.752  0.00  0.00    +0.000 HD
ENDBRANCH   1  26
TORSDOF 4
ENDMDL
MODEL 4
REMARK VINA RESULT:      -7.5      2.265      3.405
REMARK  Name = 
REMARK  5 active torsions:
REMARK  status: ('A' for Active; 'I' for Inactive)
REMARK    1  A    between atoms: C_1  and  C_2
REMARK    2  A    between atoms: C_11  and  C_12
REMARK    3  A    between atoms: C_12  and  O_13
REMARK    4  A    between atoms: C_12  and  C_14
REMARK    5  A    between atoms: C_16  and  C_17
REMARK                            x       y       z     vdW  Elec       q    Type
REMARK                         _______ _______ _______ _____ _____    ______ ____
ROOT
ATOM      1  C   UNL     1       0.190  10.506  19.281  0.00  0.00    +0.000 C 
ENDROOT
BRANCH   1  12
ATOM      2  C   UNL     1       2.482  12.422  18.117  0.00  0.00    +0.000 C 
ATOM      3  C   UNL     1       1.627  12.720  19.320  0.00  0.00    +0.000 A 
ATOM      4  C   UNL     1       1.914  13.948  19.936  0.00  0.00    +0.000 A 
ATOM      5  C   UNL     1       1.220  14.380  21.054  0.00  0.00    +0.000 A 
ATOM      6  C   UNL     1       0.218  13.600  21.610  0.00  0.00    +0.000 A 
ATOM      7  C   UNL     1      -0.467  14.092  22.733  0.00  0.00    +0.000 A 
ATOM      8  C   UNL     1      -1.483  13.363  23.329  0.00  0.00    +0.000 A 
ATOM      9  C   UNL     1      -1.818  12.120  22.818  0.00  0.00    +0.000 A 
ATOM     10  C   UNL     1      -1.133  11.612  21.706  0.00  0.00    +0.000 A 
ATOM     11  C   UNL     1      -0.101  12.331  21.046  0.00  0.00    +0.000 A 
ATOM     12  C   UNL     1       0.613  11.875  19.863  0.00  0.00    +0.000 A 
ENDBRANCH   1  12
BRANCH   1  13
ATOM     13  C   UNL     1       1.137   9.348  19.376  0.00  0.00    +0.000 A 
ATOM     14  N   UNL     1       1.950   8.873  18.450  0.00  0.00    +0.000 NA
ATOM     15  C   UNL     1       2.414   7.667  18.936  0.00  0.00    +0.000 A 
ATOM     16  C   UNL     1       1.961   7.470  20.223  0.00  0.00    +0.000 A 
ATOM     17  N   UNL     1       1.222   8.582  20.515  0.00  0.00    +0.000 N 
ATOM     18  H   UNL     1       0.703   8.774  21.361  0.00  0.00    +0.000 HD
BRANCH  15  19
ATOM     19  C   UNL     1       3.160   6.725  18.118  0.00  0.00    +0.000 A 
ATOM     20  C   UNL     1       2.857   5.357  18.196  0.00  0.00    +0.000 A 
ATOM     21  C   UNL     1       3.592   4.417  17.469  0.00  0.00    +0.000 A 
ATOM     22  C   UNL     1       4.642   4.840  16.660  0.00  0.00    +0.000 A 
ATOM     23 CL   UNL     1       5.558   3.686  15.770  0.00  0.00    +0.000 Cl
ATOM     24  C   UNL     1       4.960   6.193  16.569  0.00  0.00    +0.000 A 
ATOM     25  C   UNL     1       4.221   7.132  17.295  0.00  0.00    +0.000 A 
ENDBRANCH  15  19
ENDBRANCH   1  13
BRANCH   1  26
ATOM     26  O   UNL     1      -0.086  10.639  17.874  0.00  0.00    +0.000 OA
ATOM     27  H   UNL     1      -1.051  10.602  17.765  0.00  0.00    +0.000 HD
ENDBRANCH   1  26
TORSDOF 4
ENDMDL
MODEL 5
REMARK VINA RESULT:      -7.4      1.609      1.736
REMARK  Name = 
REMARK  5 active torsions:
REMARK  status: ('A' for Active; 'I' for Inactive)
REMARK    1  A    between atoms: C_1  and  C_2
REMARK    2  A    between atoms: C_11  and  C_12
REMARK    3  A    between atoms: C_12  and  O_13
REMARK    4  A    between atoms: C_12  and  C_14
REMARK    5  A    between atoms: C_16  and  C_17
REMARK                            x       y       z     vdW  Elec       q    Type
REMARK                         _______ _______ _______ _____ _____    ______ ____
ROOT
ATOM      1  C   UNL     1       0.912  10.938  17.909  0.00  0.00    +0.000 C 
ENDROOT
BRANCH   1  12
ATOM      2  C   UNL     1       1.258  12.362  20.761  0.00  0.00    +0.000 C 
ATOM      3  C   UNL     1      -0.056  12.098  20.073  0.00  0.00    +0.000 A 
ATOM      4  C   UNL     1      -1.178  12.531  20.798  0.00  0.00    +0.000 A 
ATOM      5  C   UNL     1      -2.463  12.370  20.311  0.00  0.00    +0.000 A 
ATOM      6  C   UNL     1      -2.685  11.761  19.085  0.00  0.00    +0.000 A 
ATOM      7  C   UNL     1      -4.008  11.638  18.628  0.00  0.00    +0.000 A 
ATOM      8  C   UNL     1      -4.293  11.046  17.409  0.00  0.00    +0.000 A 
ATOM      9  C   UNL     1      -3.256  10.552  16.634  0.00  0.00    +0.000 A 
ATOM     10  C   UNL     1      -1.933  10.658  17.084  0.00  0.00    +0.000 A 
ATOM     11  C   UNL     1      -1.588  11.277  18.315  0.00  0.00    +0.000 A 
ATOM     12  C   UNL     1      -0.233  11.454  18.813  0.00  0.00    +0.000 A 
ENDBRANCH   1  12
BRANCH   1  13
ATOM     13  C   UNL     1       1.632   9.680  18.288  0.00  0.00    +0.000 A 
ATOM     14  N   UNL     1       2.565   9.032  17.615  0.00  0.00    +0.000 NA
ATOM     15  C   UNL     1       2.721   7.820  18.257  0.00  0.00    +0.000 A 
ATOM     16  C   UNL     1       1.953   7.787  19.401  0.00  0.00    +0.000 A 
ATOM     17  N   UNL     1       1.334   9.004  19.449  0.00  0.00    +0.000 N 
ATOM     18  H   UNL     1       0.663   9.330  20.131  0.00  0.00    +0.000 HD
BRANCH  15  19
ATOM     19  C   UNL     1       3.496   6.727  17.692  0.00  0.00    +0.000 A 
ATOM     20  C   UNL     1       4.598   7.017  16.872  0.00  0.00    +0.000 A 
ATOM     21  C   UNL     1       5.329   5.993  16.264  0.00  0.00    +0.000 A 
ATOM     22  C   UNL     1       4.960   4.667  16.471  0.00  0.00    +0.000 A 
ATOM     23 CL   UNL     1       5.851   3.402  15.717  0.00  0.00    +0.000 Cl
ATOM     24  C   UNL     1       3.869   4.357  17.280  0.00  0.00    +0.000 A 
ATOM     25  C   UNL     1       3.141   5.384  17.889  0.00  0.00    +0.000 A 
ENDBRANCH  15  19
ENDBRANCH   1  13
BRANCH   1  26
ATOM     26  O   UNL     1       1.945  11.938  17.814  0.00  0.00    +0.000 OA
ATOM     27  H   UNL     1       2.265  12.108  18.716  0.00  0.00    +0.000 HD
ENDBRANCH   1  26
TORSDOF 4
ENDMDL
MODEL 6
REMARK VINA RESULT:      -7.4      3.753      8.418
REMARK  Name = 
REMARK  5 active torsions:
REMARK  status: ('A' for Active; 'I' for Inactive)
REMARK    1  A    between atoms: C_1  and  C_2
REMARK    2  A    between atoms: C_11  and  C_12
REMARK    3  A    between atoms: C_12  and  O_13
REMARK    4  A    between atoms: C_12  and  C_14
REMARK    5  A    between atoms: C_16  and  C_17
REMARK                            x       y       z     vdW  Elec       q    Type
REMARK                         _______ _______ _______ _____ _____    ______ ____
ROOT
ATOM      1  C   UNL     1       3.118   7.617  18.091  0.00  0.00    +0.000 C 
ENDROOT
BRANCH   1  12
ATOM      2  C   UNL     1       1.185   5.068  17.873  0.00  0.00    +0.000 C 
ATOM      3  C   UNL     1       2.676   5.050  17.666  0.00  0.00    +0.000 A 
ATOM      4  C   UNL     1       3.195   3.781  17.362  0.00  0.00    +0.000 A 
ATOM      5  C   UNL     1       4.548   3.584  17.138  0.00  0.00    +0.000 A 
ATOM      6  C   UNL     1       5.440   4.642  17.218  0.00  0.00    +0.000 A 
ATOM      7  C   UNL     1       6.799   4.392  16.965  0.00  0.00    +0.000 A 
ATOM      8  C   UNL     1       7.737   5.409  17.022  0.00  0.00    +0.000 A 
ATOM      9  C   UNL     1       7.331   6.692  17.351  0.00  0.00    +0.000 A 
ATOM     10  C   UNL     1       5.980   6.952  17.618  0.00  0.00    +0.000 A 
ATOM     11  C   UNL     1       4.977   5.949  17.549  0.00  0.00    +0.000 A 
ATOM     12  C   UNL     1       3.556   6.168  17.773  0.00  0.00    +0.000 A 
ENDBRANCH   1  12
BRANCH   1  13
ATOM     13  C   UNL     1       2.196   7.864  19.246  0.00  0.00    +0.000 A 
ATOM     14  N   UNL     1       1.296   8.820  19.389  0.00  0.00    +0.000 NA
ATOM     15  C   UNL     1       0.895   8.767  20.708  0.00  0.00    +0.000 A 
ATOM     16  C   UNL     1       1.478   7.688  21.338  0.00  0.00    +0.000 A 
ATOM     17  N   UNL     1       2.234   7.081  20.376  0.00  0.00    +0.000 N 
ATOM     18  H   UNL     1       2.835   6.274  20.480  0.00  0.00    +0.000 HD
BRANCH  15  19
ATOM     19  C   UNL     1       0.077   9.800  21.322  0.00  0.00    +0.000 A 
ATOM     20  C   UNL     1      -0.295   9.673  22.670  0.00  0.00    +0.000 A 
ATOM     21  C   UNL     1      -1.129  10.616  23.277  0.00  0.00    +0.000 A 
ATOM     22  C   UNL     1      -1.603  11.694  22.536  0.00  0.00    +0.000 A 
ATOM     23 CL   UNL     1      -2.639  12.852  23.274  0.00  0.00    +0.000 Cl
ATOM     24  C   UNL     1      -1.248  11.839  21.196  0.00  0.00    +0.000 A 
ATOM     25  C   UNL     1      -0.410  10.895  20.593  0.00  0.00    +0.000 A 
ENDBRANCH  15  19
ENDBRANCH   1  13
BRANCH   1  26
ATOM     26  O   UNL     1       2.441   8.182  16.953  0.00  0.00    +0.000 OA
ATOM     27  H   UNL     1       3.051   8.129  16.198  0.00  0.00    +0.000 HD
ENDBRANCH   1  26
TORSDOF 4
ENDMDL
MODEL 7
REMARK VINA RESULT:      -7.3      1.341      1.882
REMARK  Name = 
REMARK  5 active torsions:
REMARK  status: ('A' for Active; 'I' for Inactive)
REMARK    1  A    between atoms: C_1  and  C_2
REMARK    2  A    between atoms: C_11  and  C_12
REMARK    3  A    between atoms: C_12  and  O_13
REMARK    4  A    between atoms: C_12  and  C_14
REMARK    5  A    between atoms: C_16  and  C_17
REMARK                            x       y       z     vdW  Elec       q    Type
REMARK                         _______ _______ _______ _____ _____    ______ ____
ROOT
ATOM      1  C   UNL     1       0.296  11.437  19.393  0.00  0.00    +0.000 C 
ENDROOT
BRANCH   1  12
ATOM      2  C   UNL     1      -1.064  12.881  21.913  0.00  0.00    +0.000 C 
ATOM      3  C   UNL     1      -1.793  12.408  20.682  0.00  0.00    +0.000 A 
ATOM      4  C   UNL     1      -3.176  12.646  20.711  0.00  0.00    +0.000 A 
ATOM      5  C   UNL     1      -3.998  12.278  19.659  0.00  0.00    +0.000 A 
ATOM      6  C   UNL     1      -3.476  11.648  18.540  0.00  0.00    +0.000 A 
ATOM      7  C   UNL     1      -4.350  11.311  17.493  0.00  0.00    +0.000 A 
ATOM      8  C   UNL     1      -3.888  10.687  16.346  0.00  0.00    +0.000 A 
ATOM      9  C   UNL     1      -2.542  10.376  16.236  0.00  0.00    +0.000 A 
ATOM     10  C   UNL     1      -1.662  10.696  17.279  0.00  0.00    +0.000 A 
ATOM     11  C   UNL     1      -2.083  11.356  18.463  0.00  0.00    +0.000 A 
ATOM     12  C   UNL     1      -1.210  11.751  19.558  0.00  0.00    +0.000 A 
ENDBRANCH   1  12
BRANCH   1  13
ATOM     13  C   UNL     1       0.848  10.176  19.985  0.00  0.00    +0.000 A 
ATOM     14  N   UNL     1       1.496   9.199  19.379  0.00  0.00    +0.000 NA
ATOM     15  C   UNL     1       1.567   8.167  20.294  0.00  0.00    +0.000 A 
ATOM     16  C   UNL     1       1.055   8.574  21.507  0.00  0.00    +0.000 A 
ATOM     17  N   UNL     1       0.680   9.874  21.317  0.00  0.00    +0.000 N 
ATOM     18  H   UNL     1       0.229  10.491  21.980  0.00  0.00    +0.000 HD
BRANCH  15  19
ATOM     19  C   UNL     1       2.008   6.829  19.936  0.00  0.00    +0.000 A 
ATOM     20  C   UNL     1       1.627   5.742  20.737  0.00  0.00    +0.000 A 
ATOM     21  C   UNL     1       2.080   4.450  20.458  0.00  0.00    +0.000 A 
ATOM     22  C   UNL     1       2.926   4.237  19.373  0.00  0.00    +0.000 A 
ATOM     23 CL   UNL     1       3.497   2.650  19.030  0.00  0.00    +0.000 Cl
ATOM     24  C   UNL     1       3.319   5.302  18.566  0.00  0.00    +0.000 A 
ATOM     25  C   UNL     1       2.860   6.593  18.846  0.00  0.00    +0.000 A 
ENDBRANCH  15  19
ENDBRANCH   1  13
BRANCH   1  26
ATOM     26  O   UNL     1       1.081  12.493  19.981  0.00  0.00    +0.000 OA
ATOM     27  H   UNL     1       0.501  13.268  20.068  0.00  0.00    +0.000 HD
ENDBRANCH   1  26
TORSDOF 4
ENDMDL
MODEL 8
REMARK VINA RESULT:      -7.2      4.490      8.716
REMARK  Name = 
REMARK  5 active torsions:
REMARK  status: ('A' for Active; 'I' for Inactive)
REMARK    1  A    between atoms: C_1  and  C_2
REMARK    2  A    between atoms: C_11  and  C_12
REMARK    3  A    between atoms: C_12  and  O_13
REMARK    4  A    between atoms: C_12  and  C_14
REMARK    5  A    between atoms: C_16  and  C_17
REMARK                            x       y       z     vdW  Elec       q    Type
REMARK                         _______ _______ _______ _____ _____    ______ ____
ROOT
ATOM      1  C   UNL     1       3.974   3.786  17.066  0.00  0.00    +0.000 C 
ENDROOT
BRANCH   1  12
ATOM      2  C   UNL     1       6.154   5.160  18.974  0.00  0.00    +0.000 C 
ATOM      3  C   UNL     1       6.308   4.942  17.491  0.00  0.00    +0.000 A 
ATOM      4  C   UNL     1       7.526   5.407  16.969  0.00  0.00    +0.000 A 
ATOM      5  C   UNL     1       7.833   5.284  15.625  0.00  0.00    +0.000 A 
ATOM      6  C   UNL     1       6.935   4.701  14.744  0.00  0.00    +0.000 A 
ATOM      7  C   UNL     1       7.303   4.585  13.392  0.00  0.00    +0.000 A 
ATOM      8  C   UNL     1       6.453   4.006  12.466  0.00  0.00    +0.000 A 
ATOM      9  C   UNL     1       5.211   3.548  12.875  0.00  0.00    +0.000 A 
ATOM     10  C   UNL     1       4.827   3.670  14.217  0.00  0.00    +0.000 A 
ATOM     11  C   UNL     1       5.672   4.234  15.209  0.00  0.00    +0.000 A 
ATOM     12  C   UNL     1       5.346   4.348  16.622  0.00  0.00    +0.000 A 
ENDBRANCH   1  12
BRANCH   1  13
ATOM     13  C   UNL     1       3.143   4.570  18.035  0.00  0.00    +0.000 A 
ATOM     14  N   UNL     1       2.700   5.809  17.923  0.00  0.00    +0.000 NA
ATOM     15  C   UNL     1       2.208   6.148  19.168  0.00  0.00    +0.000 A 
ATOM     16  C   UNL     1       2.251   5.056  20.008  0.00  0.00    +0.000 A 
ATOM     17  N   UNL     1       2.769   4.045  19.250  0.00  0.00    +0.000 N 
ATOM     18  H   UNL     1       2.982   3.100  19.542  0.00  0.00    +0.000 HD
BRANCH  15  19
ATOM     19  C   UNL     1       1.834   7.508  19.520  0.00  0.00    +0.000 A 
ATOM     20  C   UNL     1       1.397   7.785  20.825  0.00  0.00    +0.000 A 
ATOM     21  C   UNL     1       0.972   9.068  21.183  0.00  0.00    +0.000 A 
ATOM     22  C   UNL     1       0.978  10.085  20.233  0.00  0.00    +0.000 A 
ATOM     23 CL   UNL     1       0.448  11.664  20.665  0.00  0.00    +0.000 Cl
ATOM     24  C   UNL     1       1.407   9.832  18.932  0.00  0.00    +0.000 A 
ATOM     25  C   UNL     1       1.834   8.548  18.578  0.00  0.00    +0.000 A 
ENDBRANCH  15  19
ENDBRANCH   1  13
BRANCH   1  26
ATOM     26  O   UNL     1       4.153   2.501  17.692  0.00  0.00    +0.000 OA
ATOM     27  H   UNL     1       4.543   1.909  17.027  0.00  0.00    +0.000 HD
ENDBRANCH   1  26
TORSDOF 4
ENDMDL
MODEL 9
REMARK VINA RESULT:      -7.1      4.406      8.606
REMARK  Name = 
REMARK  5 active torsions:
REMARK  status: ('A' for Active; 'I' for Inactive)
REMARK    1  A    between atoms: C_1  and  C_2
REMARK    2  A    between atoms: C_11  and  C_12
REMARK    3  A    between atoms: C_12  and  O_13
REMARK    4  A    between atoms: C_12  and  C_14
REMARK    5  A    between atoms: C_16  and  C_17
REMARK                            x       y       z     vdW  Elec       q    Type
REMARK                         _______ _______ _______ _____ _____    ______ ____
ROOT
ATOM      1  C   UNL     1       3.948   3.826  17.360  0.00  0.00    +0.000 C 
ENDROOT
BRANCH   1  12
ATOM      2  C   UNL     1       6.072   5.259  19.288  0.00  0.00    +0.000 C 
ATOM      3  C   UNL     1       6.246   5.043  17.808  0.00  0.00    +0.000 A 
ATOM      4  C   UNL     1       7.457   5.540  17.296  0.00  0.00    +0.000 A 
ATOM      5  C   UNL     1       7.780   5.423  15.955  0.00  0.00    +0.000 A 
ATOM      6  C   UNL     1       6.906   4.816  15.066  0.00  0.00    +0.000 A 
ATOM      7  C   UNL     1       7.291   4.708  13.719  0.00  0.00    +0.000 A 
ATOM      8  C   UNL     1       6.465   4.106  12.785  0.00  0.00    +0.000 A 
ATOM      9  C   UNL     1       5.232   3.616  13.182  0.00  0.00    +0.000 A 
ATOM     10  C   UNL     1       4.831   3.729  14.521  0.00  0.00    +0.000 A 
ATOM     11  C   UNL     1       5.652   4.316  15.520  0.00  0.00    +0.000 A 
ATOM     12  C   UNL     1       5.309   4.422  16.930  0.00  0.00    +0.000 A 
ENDBRANCH   1  12
BRANCH   1  13
ATOM     13  C   UNL     1       3.086   4.590  18.318  0.00  0.00    +0.000 A 
ATOM     14  N   UNL     1       2.603   5.813  18.194  0.00  0.00    +0.000 NA
ATOM     15  C   UNL     1       2.093   6.146  19.433  0.00  0.00    +0.000 A 
ATOM     16  C   UNL     1       2.166   5.062  20.282  0.00  0.00    +0.000 A 
ATOM     17  N   UNL     1       2.722   4.062  19.535  0.00  0.00    +0.000 N 
ATOM     18  H   UNL     1       2.962   3.127  19.836  0.00  0.00    +0.000 HD
BRANCH  15  19
ATOM     19  C   UNL     1       1.672   7.495  19.772  0.00  0.00    +0.000 A 
ATOM     20  C   UNL     1       1.693   8.491  18.783  0.00  0.00    +0.000 A 
ATOM     21  C   UNL     1       1.353   9.812  19.087  0.00  0.00    +0.000 A 
ATOM     22  C   UNL     1       0.992  10.148  20.388  0.00  0.00    +0.000 A 
ATOM     23 CL   UNL     1       0.582  11.775  20.771  0.00  0.00    +0.000 Cl
ATOM     24  C   UNL     1       0.966   9.176  21.385  0.00  0.00    +0.000 A 
ATOM     25  C   UNL     1       1.304   7.854  21.077  0.00  0.00    +0.000 A 
ENDBRANCH  15  19
ENDBRANCH   1  13
BRANCH   1  26
ATOM     26  O   UNL     1       4.154   2.548  17.992  0.00  0.00    +0.000 OA
ATOM     27  H   UNL     1       5.063   2.269  17.788  0.00  0.00    +0.000 HD
ENDBRANCH   1  26
TORSDOF 4
ENDMDL
