MODEL 1
REMARK VINA RESULT:      -7.6      0.000      0.000
REMARK  Name = 
REMARK  6 active torsions:
REMARK  status: ('A' for Active; 'I' for Inactive)
REMARK    1  A    between atoms: C_1  and  O_2
REMARK    2  A    between atoms: O_2  and  C_3
REMARK    3  A    between atoms: C_6  and  N_7
REMARK    4  A    between atoms: N_10  and  C_11
REMARK    5  A    between atoms: C_11  and  C_12
REMARK    6  A    between atoms: C_11  and  C_13
REMARK                            x       y       z     vdW  Elec       q    Type
REMARK                         _______ _______ _______ _____ _____    ______ ____
ROOT
ATOM      1  N   UNL     1       8.933   8.825  19.195  0.00  0.00    +0.000 N 
ATOM      2  C   UNL     1       8.200   8.159  18.238  0.00  0.00    +0.000 C 
ATOM      3  O   UNL     1       7.749   8.651  17.211  0.00  0.00    +0.000 OA
ATOM      4  N   UNL     1       8.017   6.825  18.522  0.00  0.00    +0.000 N 
ATOM      5  H   UNL     1       9.365   8.265  19.912  0.00  0.00    +0.000 HD
ATOM      6  H   UNL     1       8.219   6.492  19.452  0.00  0.00    +0.000 HD
ENDROOT
BRANCH   1  10
ATOM      7  C   UNL     1       9.955  12.943  19.217  0.00  0.00    +0.000 A 
ATOM      8  C   UNL     1       9.899  12.248  18.013  0.00  0.00    +0.000 A 
ATOM      9  C   UNL     1       9.539  10.899  17.989  0.00  0.00    +0.000 A 
ATOM     10  C   UNL     1       9.260  10.205  19.168  0.00  0.00    +0.000 A 
ATOM     11  C   UNL     1       9.315  10.908  20.377  0.00  0.00    +0.000 A 
ATOM     12  C   UNL     1       9.662  12.272  20.402  0.00  0.00    +0.000 A 
BRANCH   7  14
ATOM     13  C   UNL     1       9.778  14.981  18.032  0.00  0.00    +0.000 C 
ATOM     14  O   UNL     1      10.354  14.243  19.099  0.00  0.00    +0.000 OA
ENDBRANCH   7  14
ENDBRANCH   1  10
BRANCH   4  15
ATOM     15  C   UNL     1       7.179   5.990  17.653  0.00  0.00    +0.000 C 
ATOM     16  C   UNL     1       7.718   4.556  17.671  0.00  0.00    +0.000 C 
BRANCH  15  17
ATOM     17  C   UNL     1       5.702   6.035  18.093  0.00  0.00    +0.000 C 
ATOM     18  C   UNL     1       5.269   4.918  19.073  0.00  0.00    +0.000 C 
ATOM     19  C   UNL     1       3.868   4.518  18.559  0.00  0.00    +0.000 C 
ATOM     20  C   UNL     1       4.044   3.604  17.340  0.00  0.00    +0.000 C 
ATOM     21  C   UNL     1       4.607   4.566  16.286  0.00  0.00    +0.000 C 
ATOM     22  C   UNL     1       4.606   5.933  17.003  0.00  0.00    +0.000 C 
ATOM     23  C   UNL     1       3.365   5.798  17.894  0.00  0.00    +0.000 C 
ENDBRANCH  15  17
ENDBRANCH   4  15
TORSDOF 4
ENDMDL
MODEL 2
REMARK VINA RESULT:      -7.5      6.331      7.726
REMARK  Name = 
REMARK  6 active torsions:
REMARK  status: ('A' for Active; 'I' for Inactive)
REMARK    1  A    between atoms: C_1  and  O_2
REMARK    2  A    between atoms: O_2  and  C_3
REMARK    3  A    between atoms: C_6  and  N_7
REMARK    4  A    between atoms: N_10  and  C_11
REMARK    5  A    between atoms: C_11  and  C_12
REMARK    6  A    between atoms: C_11  and  C_13
REMARK                            x       y       z     vdW  Elec       q    Type
REMARK                         _______ _______ _______ _____ _____    ______ ____
ROOT
ATOM      1  N   UNL     1       1.455   8.370  21.680  0.00  0.00    +0.000 N 
ATOM      2  C   UNL     1       1.716   7.744  20.481  0.00  0.00    +0.000 C 
ATOM      3  O   UNL     1       1.382   8.149  19.375  0.00  0.00    +0.000 OA
ATOM      4  N   UNL     1       2.433   6.577  20.620  0.00  0.00    +0.000 N 
ATOM      5  H   UNL     1       1.915   8.002  22.497  0.00  0.00    +0.000 HD
ATOM      6  H   UNL     1       2.521   6.165  21.535  0.00  0.00    +0.000 HD
ENDROOT
BRANCH   1  10
ATOM      7  C   UNL     1      -0.744  11.953  22.256  0.00  0.00    +0.000 A 
ATOM      8  C   UNL     1       0.243  11.894  21.278  0.00  0.00    +0.000 A 
ATOM      9  C   UNL     1       0.957  10.714  21.061  0.00  0.00    +0.000 A 
ATOM     10  C   UNL     1       0.725   9.576  21.836  0.00  0.00    +0.000 A 
ATOM     11  C   UNL     1      -0.271   9.638  22.818  0.00  0.00    +0.000 A 
ATOM     12  C   UNL     1      -1.003  10.822  23.028  0.00  0.00    +0.000 A 
BRANCH   7  14
ATOM     13  C   UNL     1      -2.285  13.304  23.434  0.00  0.00    +0.000 C 
ATOM     14  O   UNL     1      -1.337  13.175  22.386  0.00  0.00    +0.000 OA
ENDBRANCH   7  14
ENDBRANCH   1  10
BRANCH   4  15
ATOM     15  C   UNL     1       2.715   5.737  19.450  0.00  0.00    +0.000 C 
ATOM     16  C   UNL     1       4.220   5.457  19.389  0.00  0.00    +0.000 C 
BRANCH  15  17
ATOM     17  C   UNL     1       1.908   4.424  19.501  0.00  0.00    +0.000 C 
ATOM     18  C   UNL     1       2.645   3.217  20.129  0.00  0.00    +0.000 C 
ATOM     19  C   UNL     1       2.243   2.039  19.213  0.00  0.00    +0.000 C 
ATOM     20  C   UNL     1       3.095   2.104  17.940  0.00  0.00    +0.000 C 
ATOM     21  C   UNL     1       2.558   3.363  17.248  0.00  0.00    +0.000 C 
ATOM     22  C   UNL     1       1.404   3.819  18.166  0.00  0.00    +0.000 C 
ATOM     23  C   UNL     1       0.880   2.470  18.674  0.00  0.00    +0.000 C 
ENDBRANCH  15  17
ENDBRANCH   4  15
TORSDOF 4
ENDMDL
MODEL 3
REMARK VINA RESULT:      -7.4      5.978      7.546
REMARK  Name = 
REMARK  6 active torsions:
REMARK  status: ('A' for Active; 'I' for Inactive)
REMARK    1  A    between atoms: C_1  and  O_2
REMARK    2  A    between atoms: O_2  and  C_3
REMARK    3  A    between atoms: C_6  and  N_7
REMARK    4  A    between atoms: N_10  and  C_11
REMARK    5  A    between atoms: C_11  and  C_12
REMARK    6  A    between atoms: C_11  and  C_13
REMARK                            x       y       z     vdW  Elec       q    Type
REMARK                         _______ _______ _______ _____ _____    ______ ____
ROOT
ATOM      1  N   UNL     1       1.666   7.629  21.057  0.00  0.00    +0.000 N 
ATOM      2  C   UNL     1       2.298   7.228  19.901  0.00  0.00    +0.000 C 
ATOM      3  O   UNL     1       2.260   7.811  18.825  0.00  0.00    +0.000 OA
ATOM      4  N   UNL     1       3.030   6.071  20.052  0.00  0.00    +0.000 N 
ATOM      5  H   UNL     1       1.903   7.135  21.902  0.00  0.00    +0.000 HD
ATOM      6  H   UNL     1       2.887   5.508  20.875  0.00  0.00    +0.000 HD
ENDROOT
BRANCH   1  10
ATOM      7  C   UNL     1      -0.778  11.062  21.548  0.00  0.00    +0.000 A 
ATOM      8  C   UNL     1      -0.334  10.702  20.280  0.00  0.00    +0.000 A 
ATOM      9  C   UNL     1       0.450   9.560  20.101  0.00  0.00    +0.000 A 
ATOM     10  C   UNL     1       0.836   8.771  21.187  0.00  0.00    +0.000 A 
ATOM     11  C   UNL     1       0.386   9.135  22.461  0.00  0.00    +0.000 A 
ATOM     12  C   UNL     1      -0.418  10.277  22.641  0.00  0.00    +0.000 A 
BRANCH   7  14
ATOM     13  C   UNL     1      -1.841  12.784  20.327  0.00  0.00    +0.000 C 
ATOM     14  O   UNL     1      -1.504  12.217  21.584  0.00  0.00    +0.000 OA
ENDBRANCH   7  14
ENDBRANCH   1  10
BRANCH   4  15
ATOM     15  C   UNL     1       3.689   5.454  18.895  0.00  0.00    +0.000 C 
ATOM     16  C   UNL     1       5.177   5.272  19.209  0.00  0.00    +0.000 C 
BRANCH  15  17
ATOM     17  C   UNL     1       3.029   4.110  18.530  0.00  0.00    +0.000 C 
ATOM     18  C   UNL     1       1.487   4.143  18.397  0.00  0.00    +0.000 C 
ATOM     19  C   UNL     1       1.044   2.823  19.065  0.00  0.00    +0.000 C 
ATOM     20  C   UNL     1       1.080   3.016  20.587  0.00  0.00    +0.000 C 
ATOM     21  C   UNL     1       2.582   3.133  20.869  0.00  0.00    +0.000 C 
ATOM     22  C   UNL     1       3.231   2.907  19.487  0.00  0.00    +0.000 C 
ATOM     23  C   UNL     1       2.251   1.909  18.860  0.00  0.00    +0.000 C 
ENDBRANCH  15  17
ENDBRANCH   4  15
TORSDOF 4
ENDMDL
MODEL 4
REMARK VINA RESULT:      -7.4      0.282      1.083
REMARK  Name = 
REMARK  6 active torsions:
REMARK  status: ('A' for Active; 'I' for Inactive)
REMARK    1  A    between atoms: C_1  and  O_2
REMARK    2  A    between atoms: O_2  and  C_3
REMARK    3  A    between atoms: C_6  and  N_7
REMARK    4  A    between atoms: N_10  and  C_11
REMARK    5  A    between atoms: C_11  and  C_12
REMARK    6  A    between atoms: C_11  and  C_13
REMARK                            x       y       z     vdW  Elec       q    Type
REMARK                         _______ _______ _______ _____ _____    ______ ____
ROOT
ATOM      1  N   UNL     1       8.991   8.906  19.286  0.00  0.00    +0.000 N 
ATOM      2  C   UNL     1       8.272   8.220  18.334  0.00  0.00    +0.000 C 
ATOM      3  O   UNL     1       7.819   8.695  17.300  0.00  0.00    +0.000 OA
ATOM      4  N   UNL     1       8.104   6.887  18.632  0.00  0.00    +0.000 N 
ATOM      5  H   UNL     1       9.427   8.359  20.012  0.00  0.00    +0.000 HD
ATOM      6  H   UNL     1       8.306   6.567  19.566  0.00  0.00    +0.000 HD
ENDROOT
BRANCH   1  10
ATOM      7  C   UNL     1       9.876  13.050  19.062  0.00  0.00    +0.000 A 
ATOM      8  C   UNL     1       9.609  12.463  20.295  0.00  0.00    +0.000 A 
ATOM      9  C   UNL     1       9.342  11.095  20.385  0.00  0.00    +0.000 A 
ATOM     10  C   UNL     1       9.301  10.289  19.246  0.00  0.00    +0.000 A 
ATOM     11  C   UNL     1       9.572  10.883  18.007  0.00  0.00    +0.000 A 
ATOM     12  C   UNL     1       9.858  12.258  17.916  0.00  0.00    +0.000 A 
BRANCH   7  14
ATOM     13  C   UNL     1       9.027  15.214  18.634  0.00  0.00    +0.000 C 
ATOM     14  O   UNL     1      10.085  14.398  19.113  0.00  0.00    +0.000 OA
ENDBRANCH   7  14
ENDBRANCH   1  10
BRANCH   4  15
ATOM     15  C   UNL     1       7.281   6.032  17.768  0.00  0.00    +0.000 C 
ATOM     16  C   UNL     1       7.802   4.593  17.850  0.00  0.00    +0.000 C 
BRANCH  15  17
ATOM     17  C   UNL     1       5.793   6.107  18.166  0.00  0.00    +0.000 C 
ATOM     18  C   UNL     1       5.281   4.940  19.045  0.00  0.00    +0.000 C 
ATOM     19  C   UNL     1       3.884   4.641  18.459  0.00  0.00    +0.000 C 
ATOM     20  C   UNL     1       4.063   3.813  17.179  0.00  0.00    +0.000 C 
ATOM     21  C   UNL     1       4.700   4.826  16.220  0.00  0.00    +0.000 C 
ATOM     22  C   UNL     1       4.731   6.134  17.038  0.00  0.00    +0.000 C 
ATOM     23  C   UNL     1       3.456   5.987  17.877  0.00  0.00    +0.000 C 
ENDBRANCH  15  17
ENDBRANCH   4  15
TORSDOF 4
ENDMDL
MODEL 5
REMARK VINA RESULT:      -7.4      6.372      7.693
REMARK  Name = 
REMARK  6 active torsions:
REMARK  status: ('A' for Active; 'I' for Inactive)
REMARK    1  A    between atoms: C_1  and  O_2
REMARK    2  A    between atoms: O_2  and  C_3
REMARK    3  A    between atoms: C_6  and  N_7
REMARK    4  A    between atoms: N_10  and  C_11
REMARK    5  A    between atoms: C_11  and  C_12
REMARK    6  A    between atoms: C_11  and  C_13
REMARK                            x       y       z     vdW  Elec       q    Type
REMARK                         _______ _______ _______ _____ _____    ______ ____
ROOT
ATOM      1  N   UNL     1       1.328   8.344  21.781  0.00  0.00    +0.000 N 
ATOM      2  C   UNL     1       1.621   7.757  20.570  0.00  0.00    +0.000 C 
ATOM      3  O   UNL     1       1.355   8.219  19.468  0.00  0.00    +0.000 OA
ATOM      4  N   UNL     1       2.287   6.558  20.692  0.00  0.00    +0.000 N 
ATOM      5  H   UNL     1       1.734   7.926  22.602  0.00  0.00    +0.000 HD
ATOM      6  H   UNL     1       2.316   6.107  21.593  0.00  0.00    +0.000 HD
ENDROOT
BRANCH   1  10
ATOM      7  C   UNL     1      -0.724  12.035  22.193  0.00  0.00    +0.000 A 
ATOM      8  C   UNL     1      -1.054  10.962  23.015  0.00  0.00    +0.000 A 
ATOM      9  C   UNL     1      -0.369   9.750  22.907  0.00  0.00    +0.000 A 
ATOM     10  C   UNL     1       0.636   9.570  21.955  0.00  0.00    +0.000 A 
ATOM     11  C   UNL     1       0.968  10.653  21.131  0.00  0.00    +0.000 A 
ATOM     12  C   UNL     1       0.289  11.881  21.250  0.00  0.00    +0.000 A 
BRANCH   7  14
ATOM     13  C   UNL     1      -0.805  14.385  22.443  0.00  0.00    +0.000 C 
ATOM     14  O   UNL     1      -1.495  13.146  22.381  0.00  0.00    +0.000 OA
ENDBRANCH   7  14
ENDBRANCH   1  10
BRANCH   4  15
ATOM     15  C   UNL     1       2.592   5.755  19.502  0.00  0.00    +0.000 C 
ATOM     16  C   UNL     1       4.106   5.536  19.425  0.00  0.00    +0.000 C 
BRANCH  15  17
ATOM     17  C   UNL     1       1.837   4.411  19.529  0.00  0.00    +0.000 C 
ATOM     18  C   UNL     1       2.623   3.222  20.132  0.00  0.00    +0.000 C 
ATOM     19  C   UNL     1       2.264   2.048  19.194  0.00  0.00    +0.000 C 
ATOM     20  C   UNL     1       3.108   2.171  17.920  0.00  0.00    +0.000 C 
ATOM     21  C   UNL     1       2.520   3.420  17.255  0.00  0.00    +0.000 C 
ATOM     22  C   UNL     1       1.352   3.813  18.184  0.00  0.00    +0.000 C 
ATOM     23  C   UNL     1       0.883   2.435  18.667  0.00  0.00    +0.000 C 
ENDBRANCH  15  17
ENDBRANCH   4  15
TORSDOF 4
ENDMDL
MODEL 6
REMARK VINA RESULT:      -7.3      5.915      7.646
REMARK  Name = 
REMARK  6 active torsions:
REMARK  status: ('A' for Active; 'I' for Inactive)
REMARK    1  A    between atoms: C_1  and  O_2
REMARK    2  A    between atoms: O_2  and  C_3
REMARK    3  A    between atoms: C_6  and  N_7
REMARK    4  A    between atoms: N_10  and  C_11
REMARK    5  A    between atoms: C_11  and  C_12
REMARK    6  A    between atoms: C_11  and  C_13
REMARK                            x       y       z     vdW  Elec       q    Type
REMARK                         _______ _______ _______ _____ _____    ______ ____
ROOT
ATOM      1  N   UNL     1       1.576   7.557  21.051  0.00  0.00    +0.000 N 
ATOM      2  C   UNL     1       2.290   7.283  19.906  0.00  0.00    +0.000 C 
ATOM      3  O   UNL     1       2.379   8.012  18.926  0.00  0.00    +0.000 OA
ATOM      4  N   UNL     1       2.949   6.075  19.949  0.00  0.00    +0.000 N 
ATOM      5  H   UNL     1       1.711   6.937  21.833  0.00  0.00    +0.000 HD
ATOM      6  H   UNL     1       2.704   5.412  20.668  0.00  0.00    +0.000 HD
ENDROOT
BRANCH   1  10
ATOM      7  C   UNL     1      -0.817  11.014  21.623  0.00  0.00    +0.000 A 
ATOM      8  C   UNL     1      -0.334  10.313  22.724  0.00  0.00    +0.000 A 
ATOM      9  C   UNL     1       0.475   9.189  22.550  0.00  0.00    +0.000 A 
ATOM     10  C   UNL     1       0.794   8.719  21.274  0.00  0.00    +0.000 A 
ATOM     11  C   UNL     1       0.308   9.427  20.169  0.00  0.00    +0.000 A 
ATOM     12  C   UNL     1      -0.495  10.570  20.342  0.00  0.00    +0.000 A 
BRANCH   7  14
ATOM     13  C   UNL     1      -2.128  12.819  20.842  0.00  0.00    +0.000 C 
ATOM     14  O   UNL     1      -1.624  12.069  21.936  0.00  0.00    +0.000 OA
ENDBRANCH   7  14
ENDBRANCH   1  10
BRANCH   4  15
ATOM     15  C   UNL     1       3.681   5.586  18.775  0.00  0.00    +0.000 C 
ATOM     16  C   UNL     1       5.149   5.371  19.157  0.00  0.00    +0.000 C 
BRANCH  15  17
ATOM     17  C   UNL     1       3.053   4.289  18.228  0.00  0.00    +0.000 C 
ATOM     18  C   UNL     1       1.512   4.312  18.074  0.00  0.00    +0.000 C 
ATOM     19  C   UNL     1       1.086   2.909  18.559  0.00  0.00    +0.000 C 
ATOM     20  C   UNL     1       1.096   2.904  20.093  0.00  0.00    +0.000 C 
ATOM     21  C   UNL     1       2.592   3.010  20.413  0.00  0.00    +0.000 C 
ATOM     22  C   UNL     1       3.265   2.977  19.024  0.00  0.00    +0.000 C 
ATOM     23  C   UNL     1       2.313   2.051  18.257  0.00  0.00    +0.000 C 
ENDBRANCH  15  17
ENDBRANCH   4  15
TORSDOF 4
ENDMDL
MODEL 7
REMARK VINA RESULT:      -7.2      6.257      7.838
REMARK  Name = 
REMARK  6 active torsions:
REMARK  status: ('A' for Active; 'I' for Inactive)
REMARK    1  A    between atoms: C_1  and  O_2
REMARK    2  A    between atoms: O_2  and  C_3
REMARK    3  A    between atoms: C_6  and  N_7
REMARK    4  A    between atoms: N_10  and  C_11
REMARK    5  A    between atoms: C_11  and  C_12
REMARK    6  A    between atoms: C_11  and  C_13
REMARK                            x       y       z     vdW  Elec       q    Type
REMARK                         _______ _______ _______ _____ _____    ______ ____
ROOT
ATOM      1  N   UNL     1       1.538   8.238  21.645  0.00  0.00    +0.000 N 
ATOM      2  C   UNL     1       1.766   7.719  20.390  0.00  0.00    +0.000 C 
ATOM      3  O   UNL     1       1.356   8.188  19.336  0.00  0.00    +0.000 OA
ATOM      4  N   UNL     1       2.547   6.585  20.402  0.00  0.00    +0.000 N 
ATOM      5  H   UNL     1       2.058   7.834  22.408  0.00  0.00    +0.000 HD
ATOM      6  H   UNL     1       2.703   6.110  21.277  0.00  0.00    +0.000 HD
ENDROOT
BRANCH   1  10
ATOM      7  C   UNL     1      -0.782  11.710  22.394  0.00  0.00    +0.000 A 
ATOM      8  C   UNL     1      -1.004  10.554  23.136  0.00  0.00    +0.000 A 
ATOM      9  C   UNL     1      -0.230   9.412  22.917  0.00  0.00    +0.000 A 
ATOM     10  C   UNL     1       0.759   9.387  21.931  0.00  0.00    +0.000 A 
ATOM     11  C   UNL     1       0.981  10.553  21.189  0.00  0.00    +0.000 A 
ATOM     12  C   UNL     1       0.213  11.711  21.419  0.00  0.00    +0.000 A 
BRANCH   7  14
ATOM     13  C   UNL     1      -1.026  13.955  23.094  0.00  0.00    +0.000 C 
ATOM     14  O   UNL     1      -1.632  12.738  22.686  0.00  0.00    +0.000 OA
ENDBRANCH   7  14
ENDBRANCH   1  10
BRANCH   4  15
ATOM     15  C   UNL     1       2.808   5.851  19.157  0.00  0.00    +0.000 C 
ATOM     16  C   UNL     1       4.309   5.560  19.057  0.00  0.00    +0.000 C 
BRANCH  15  17
ATOM     17  C   UNL     1       1.984   4.549  19.096  0.00  0.00    +0.000 C 
ATOM     18  C   UNL     1       0.956   4.361  20.238  0.00  0.00    +0.000 C 
ATOM     19  C   UNL     1       1.085   2.862  20.587  0.00  0.00    +0.000 C 
ATOM     20  C   UNL     1       2.333   2.675  21.460  0.00  0.00    +0.000 C 
ATOM     21  C   UNL     1       3.470   2.964  20.473  0.00  0.00    +0.000 C 
ATOM     22  C   UNL     1       2.741   3.198  19.134  0.00  0.00    +0.000 C 
ATOM     23  C   UNL     1       1.553   2.238  19.273  0.00  0.00    +0.000 C 
ENDBRANCH  15  17
ENDBRANCH   4  15
TORSDOF 4
ENDMDL
MODEL 8
REMARK VINA RESULT:      -7.2      5.107      7.230
REMARK  Name = 
REMARK  6 active torsions:
REMARK  status: ('A' for Active; 'I' for Inactive)
REMARK    1  A    between atoms: C_1  and  O_2
REMARK    2  A    between atoms: O_2  and  C_3
REMARK    3  A    between atoms: C_6  and  N_7
REMARK    4  A    between atoms: N_10  and  C_11
REMARK    5  A    between atoms: C_11  and  C_12
REMARK    6  A    between atoms: C_11  and  C_13
REMARK                            x       y       z     vdW  Elec       q    Type
REMARK                         _______ _______ _______ _____ _____    ______ ____
ROOT
ATOM      1  N   UNL     1       2.423   7.813  18.768  0.00  0.00    +0.000 N 
ATOM      2  C   UNL     1       2.629   6.471  18.996  0.00  0.00    +0.000 C 
ATOM      3  O   UNL     1       2.070   5.796  19.850  0.00  0.00    +0.000 OA
ATOM      4  N   UNL     1       3.546   5.906  18.138  0.00  0.00    +0.000 N 
ATOM      5  H   UNL     1       2.840   8.205  17.939  0.00  0.00    +0.000 HD
ATOM      6  H   UNL     1       4.133   6.511  17.585  0.00  0.00    +0.000 HD
ENDROOT
BRANCH   1  10
ATOM      7  C   UNL     1      -0.254  10.329  20.891  0.00  0.00    +0.000 A 
ATOM      8  C   UNL     1       0.408   9.301  21.556  0.00  0.00    +0.000 A 
ATOM      9  C   UNL     1       1.311   8.482  20.875  0.00  0.00    +0.000 A 
ATOM     10  C   UNL     1       1.548   8.648  19.508  0.00  0.00    +0.000 A 
ATOM     11  C   UNL     1       0.882   9.685  18.843  0.00  0.00    +0.000 A 
ATOM     12  C   UNL     1      -0.015  10.522  19.532  0.00  0.00    +0.000 A 
BRANCH   7  14
ATOM     13  C   UNL     1      -1.069  10.780  23.064  0.00  0.00    +0.000 C 
ATOM     14  O   UNL     1      -1.132  11.028  21.668  0.00  0.00    +0.000 OA
ENDBRANCH   7  14
ENDBRANCH   1  10
BRANCH   4  15
ATOM     15  C   UNL     1       3.952   4.505  18.304  0.00  0.00    +0.000 C 
ATOM     16  C   UNL     1       3.367   3.678  17.155  0.00  0.00    +0.000 C 
BRANCH  15  17
ATOM     17  C   UNL     1       5.488   4.375  18.357  0.00  0.00    +0.000 C 
ATOM     18  C   UNL     1       6.209   5.400  19.266  0.00  0.00    +0.000 C 
ATOM     19  C   UNL     1       7.458   5.787  18.443  0.00  0.00    +0.000 C 
ATOM     20  C   UNL     1       7.035   6.794  17.366  0.00  0.00    +0.000 C 
ATOM     21  C   UNL     1       6.179   5.933  16.429  0.00  0.00    +0.000 C 
ATOM     22  C   UNL     1       6.285   4.518  17.036  0.00  0.00    +0.000 C 
ATOM     23  C   UNL     1       7.712   4.542  17.594  0.00  0.00    +0.000 C 
ENDBRANCH  15  17
ENDBRANCH   4  15
TORSDOF 4
ENDMDL
MODEL 9
REMARK VINA RESULT:      -7.0      5.391      7.458
REMARK  Name = 
REMARK  6 active torsions:
REMARK  status: ('A' for Active; 'I' for Inactive)
REMARK    1  A    between atoms: C_1  and  O_2
REMARK    2  A    between atoms: O_2  and  C_3
REMARK    3  A    between atoms: C_6  and  N_7
REMARK    4  A    between atoms: N_10  and  C_11
REMARK    5  A    between atoms: C_11  and  C_12
REMARK    6  A    between atoms: C_11  and  C_13
REMARK                            x       y       z     vdW  Elec       q    Type
REMARK                         _______ _______ _______ _____ _____    ______ ____
ROOT
ATOM      1  N   UNL     1       1.864   8.344  19.169  0.00  0.00    +0.000 N 
ATOM      2  C   UNL     1       2.319   7.044  19.184  0.00  0.00    +0.000 C 
ATOM      3  O   UNL     1       2.170   6.244  20.099  0.00  0.00    +0.000 OA
ATOM      4  N   UNL     1       2.972   6.681  18.028  0.00  0.00    +0.000 N 
ATOM      5  H   UNL     1       1.928   8.841  18.296  0.00  0.00    +0.000 HD
ATOM      6  H   UNL     1       3.255   7.401  17.382  0.00  0.00    +0.000 HD
ENDROOT
BRANCH   1  10
ATOM      7  C   UNL     1      -0.290  10.275  22.274  0.00  0.00    +0.000 A 
ATOM      8  C   UNL     1       0.705   9.355  22.588  0.00  0.00    +0.000 A 
ATOM      9  C   UNL     1       1.439   8.731  21.576  0.00  0.00    +0.000 A 
ATOM     10  C   UNL     1       1.174   8.986  20.229  0.00  0.00    +0.000 A 
ATOM     11  C   UNL     1       0.173   9.914  19.917  0.00  0.00    +0.000 A 
ATOM     12  C   UNL     1      -0.556  10.556  20.935  0.00  0.00    +0.000 A 
BRANCH   7  14
ATOM     13  C   UNL     1      -1.742  11.936  23.122  0.00  0.00    +0.000 C 
ATOM     14  O   UNL     1      -0.951  10.780  23.355  0.00  0.00    +0.000 OA
ENDBRANCH   7  14
ENDBRANCH   1  10
BRANCH   4  15
ATOM     15  C   UNL     1       3.601   5.360  17.915  0.00  0.00    +0.000 C 
ATOM     16  C   UNL     1       2.514   4.311  17.666  0.00  0.00    +0.000 C 
BRANCH  15  17
ATOM     17  C   UNL     1       4.658   5.342  16.792  0.00  0.00    +0.000 C 
ATOM     18  C   UNL     1       5.351   3.978  16.556  0.00  0.00    +0.000 C 
ATOM     19  C   UNL     1       6.826   4.366  16.315  0.00  0.00    +0.000 C 
ATOM     20  C   UNL     1       7.481   4.647  17.673  0.00  0.00    +0.000 C 
ATOM     21  C   UNL     1       6.785   5.940  18.113  0.00  0.00    +0.000 C 
ATOM     22  C   UNL     1       5.877   6.291  16.915  0.00  0.00    +0.000 C 
ATOM     23  C   UNL     1       6.724   5.779  15.743  0.00  0.00    +0.000 C 
ENDBRANCH  15  17
ENDBRANCH   4  15
TORSDOF 4
ENDMDL
