MODEL 1
REMARK VINA RESULT:      -7.1      0.000      0.000
REMARK  Name = 
REMARK  5 active torsions:
REMARK  status: ('A' for Active; 'I' for Inactive)
REMARK    1  A    between atoms: CA_8  and  C_9
REMARK    2  A    between atoms: C_9  and  O_10
REMARK    3  A    between atoms: N_13  and  C_14
REMARK    4  A    between atoms: C_14  and  C_15
REMARK    5  A    between atoms: C_20  and  C_21
REMARK                            x       y       z     vdW  Elec       q    Type
REMARK                         _______ _______ _______ _____ _____    ______ ____
ROOT
ATOM      1  O   UNL     1       1.783  12.336  20.191  0.00  0.00    +0.000 OA
ATOM      2  C   UNL     1       0.620  11.940  20.069  0.00  0.00    +0.000 C 
ATOM      3  C   UNL     1      -0.349  12.090  21.216  0.00  0.00    +0.000 C 
ATOM      4  S   UNL     1      -1.934  12.758  20.713  0.00  0.00    +0.000 S 
ATOM      5  C   UNL     1      -2.186  11.768  19.261  0.00  0.00    +0.000 A 
ATOM      6  C   UNL     1      -3.485  11.716  18.745  0.00  0.00    +0.000 A 
ATOM      7  C   UNL     1      -3.735  11.042  17.554  0.00  0.00    +0.000 A 
ATOM      8  CA  UNL     1      -2.677  10.419  16.912  0.00  0.00    +0.000 A 
ATOM      9  N   UNL     1      -1.421  10.413  17.424  0.00  0.00    +0.000 NA
ATOM     10  C   UNL     1      -1.168  11.097  18.572  0.00  0.00    +0.000 A 
ATOM     11  N   UNL     1       0.195  11.191  18.981  0.00  0.00    +0.000 N 
ENDROOT
BRANCH   8  12
ATOM     12  C   UNL     1      -2.890   9.776  15.560  0.00  0.00    +0.000 C 
BRANCH  12  13
ATOM     13  O   UNL     1      -3.210  10.743  14.567  0.00  0.00    +0.000 OA
ATOM     14  H   UNL     1      -2.482  11.387  14.563  0.00  0.00    +0.000 HD
ENDBRANCH  12  13
ENDBRANCH   8  12
BRANCH  11  15
ATOM     15  C   UNL     1       1.211  10.471  18.217  0.00  0.00    +0.000 C 
BRANCH  15  16
ATOM     16  C   UNL     1       1.559   9.155  18.897  0.00  0.00    +0.000 A 
ATOM     17  C   UNL     1       1.065   8.853  20.169  0.00  0.00    +0.000 A 
ATOM     18  C   UNL     1       1.323   7.609  20.750  0.00  0.00    +0.000 A 
ATOM     19  C   UNL     1       2.072   6.641  20.067  0.00  0.00    +0.000 A 
ATOM     20 CL   UNL     1       2.297   5.134  20.877  0.00  0.00    +0.000 Cl
ATOM     21  C   UNL     1       2.582   6.915  18.797  0.00  0.00    +0.000 A 
ATOM     22  C   UNL     1       2.320   8.183  18.229  0.00  0.00    +0.000 A 
BRANCH  21  23
ATOM     23  C   UNL     1       3.401   5.954  17.975  0.00  0.00    +0.000 C 
ATOM     24  F   UNL     1       2.754   4.874  17.471  0.00  0.00    +0.000 F 
ATOM     25  F   UNL     1       3.962   6.568  16.891  0.00  0.00    +0.000 F 
ATOM     26  F   UNL     1       4.456   5.451  18.682  0.00  0.00    +0.000 F 
ENDBRANCH  21  23
ENDBRANCH  15  16
ENDBRANCH  11  15
TORSDOF 5
ENDMDL
MODEL 2
REMARK VINA RESULT:      -7.0      5.367      7.967
REMARK  Name = 
REMARK  5 active torsions:
REMARK  status: ('A' for Active; 'I' for Inactive)
REMARK    1  A    between atoms: CA_8  and  C_9
REMARK    2  A    between atoms: C_9  and  O_10
REMARK    3  A    between atoms: N_13  and  C_14
REMARK    4  A    between atoms: C_14  and  C_15
REMARK    5  A    between atoms: C_20  and  C_21
REMARK                            x       y       z     vdW  Elec       q    Type
REMARK                         _______ _______ _______ _____ _____    ______ ____
ROOT
ATOM      1  O   UNL     1       0.699   4.343  20.104  0.00  0.00    +0.000 OA
ATOM      2  C   UNL     1       1.748   3.999  19.550  0.00  0.00    +0.000 C 
ATOM      3  C   UNL     1       1.926   2.570  19.099  0.00  0.00    +0.000 C 
ATOM      4  S   UNL     1       2.564   2.436  17.430  0.00  0.00    +0.000 S 
ATOM      5  C   UNL     1       3.847   3.659  17.542  0.00  0.00    +0.000 A 
ATOM      6  C   UNL     1       4.838   3.633  16.555  0.00  0.00    +0.000 A 
ATOM      7  C   UNL     1       5.815   4.620  16.522  0.00  0.00    +0.000 A 
ATOM      8  CA  UNL     1       5.789   5.609  17.494  0.00  0.00    +0.000 A 
ATOM      9  N   UNL     1       4.868   5.622  18.490  0.00  0.00    +0.000 NA
ATOM     10  C   UNL     1       3.893   4.674  18.505  0.00  0.00    +0.000 A 
ATOM     11  N   UNL     1       2.861   4.824  19.479  0.00  0.00    +0.000 N 
ENDROOT
BRANCH   8  12
ATOM     12  C   UNL     1       6.766   6.761  17.423  0.00  0.00    +0.000 C 
BRANCH  12  13
ATOM     13  O   UNL     1       7.650   6.627  16.316  0.00  0.00    +0.000 OA
ATOM     14  H   UNL     1       7.668   7.490  15.870  0.00  0.00    +0.000 HD
ENDBRANCH  12  13
ENDBRANCH   8  12
BRANCH  11  15
ATOM     15  C   UNL     1       2.966   5.907  20.454  0.00  0.00    +0.000 C 
BRANCH  15  16
ATOM     16  C   UNL     1       2.314   7.174  19.918  0.00  0.00    +0.000 A 
ATOM     17  C   UNL     1       2.410   7.511  18.565  0.00  0.00    +0.000 A 
ATOM     18  C   UNL     1       1.740   8.632  18.068  0.00  0.00    +0.000 A 
ATOM     19  C   UNL     1       0.954   9.429  18.912  0.00  0.00    +0.000 A 
ATOM     20 CL   UNL     1       0.153  10.767  18.173  0.00  0.00    +0.000 Cl
ATOM     21  C   UNL     1       0.843   9.119  20.268  0.00  0.00    +0.000 A 
ATOM     22  C   UNL     1       1.536   7.988  20.755  0.00  0.00    +0.000 A 
BRANCH  21  23
ATOM     23  C   UNL     1       0.032   9.905  21.265  0.00  0.00    +0.000 C 
ATOM     24  F   UNL     1       0.599  11.034  21.761  0.00  0.00    +0.000 F 
ATOM     25  F   UNL     1      -1.161  10.312  20.737  0.00  0.00    +0.000 F 
ATOM     26  F   UNL     1      -0.301   9.154  22.356  0.00  0.00    +0.000 F 
ENDBRANCH  21  23
ENDBRANCH  15  16
ENDBRANCH  11  15
TORSDOF 5
ENDMDL
MODEL 3
REMARK VINA RESULT:      -6.8      5.072      7.118
REMARK  Name = 
REMARK  5 active torsions:
REMARK  status: ('A' for Active; 'I' for Inactive)
REMARK    1  A    between atoms: CA_8  and  C_9
REMARK    2  A    between atoms: C_9  and  O_10
REMARK    3  A    between atoms: N_13  and  C_14
REMARK    4  A    between atoms: C_14  and  C_15
REMARK    5  A    between atoms: C_20  and  C_21
REMARK                            x       y       z     vdW  Elec       q    Type
REMARK                         _______ _______ _______ _____ _____    ______ ____
ROOT
ATOM      1  O   UNL     1       3.869   1.551  18.722  0.00  0.00    +0.000 OA
ATOM      2  C   UNL     1       3.082   2.454  19.022  0.00  0.00    +0.000 C 
ATOM      3  C   UNL     1       1.925   2.165  19.947  0.00  0.00    +0.000 C 
ATOM      4  S   UNL     1       1.739   3.391  21.241  0.00  0.00    +0.000 S 
ATOM      5  C   UNL     1       1.939   4.850  20.249  0.00  0.00    +0.000 A 
ATOM      6  C   UNL     1       1.512   6.060  20.805  0.00  0.00    +0.000 A 
ATOM      7  C   UNL     1       1.729   7.254  20.127  0.00  0.00    +0.000 A 
ATOM      8  CA  UNL     1       2.357   7.209  18.891  0.00  0.00    +0.000 A 
ATOM      9  N   UNL     1       2.730   6.040  18.311  0.00  0.00    +0.000 NA
ATOM     10  C   UNL     1       2.546   4.874  18.987  0.00  0.00    +0.000 A 
ATOM     11  N   UNL     1       3.097   3.695  18.403  0.00  0.00    +0.000 N 
ENDROOT
BRANCH   8  12
ATOM     12  C   UNL     1       2.711   8.494  18.178  0.00  0.00    +0.000 C 
BRANCH  12  13
ATOM     13  O   UNL     1       1.626   8.968  17.389  0.00  0.00    +0.000 OA
ATOM     14  H   UNL     1       1.672   9.939  17.411  0.00  0.00    +0.000 HD
ENDBRANCH  12  13
ENDBRANCH   8  12
BRANCH  11  15
ATOM     15  C   UNL     1       3.722   3.789  17.086  0.00  0.00    +0.000 C 
BRANCH  15  16
ATOM     16  C   UNL     1       4.812   4.851  17.085  0.00  0.00    +0.000 A 
ATOM     17  C   UNL     1       4.758   5.932  16.202  0.00  0.00    +0.000 A 
ATOM     18  C   UNL     1       5.719   6.944  16.265  0.00  0.00    +0.000 A 
ATOM     19  C   UNL     1       6.746   6.898  17.217  0.00  0.00    +0.000 A 
ATOM     20 CL   UNL     1       7.854   8.221  17.214  0.00  0.00    +0.000 Cl
ATOM     21  C   UNL     1       6.829   5.828  18.109  0.00  0.00    +0.000 A 
ATOM     22  C   UNL     1       5.854   4.808  18.025  0.00  0.00    +0.000 A 
BRANCH  21  23
ATOM     23  C   UNL     1       7.889   5.673  19.168  0.00  0.00    +0.000 C 
ATOM     24  F   UNL     1       7.461   5.437  20.434  0.00  0.00    +0.000 F 
ATOM     25  F   UNL     1       8.740   4.641  18.885  0.00  0.00    +0.000 F 
ATOM     26  F   UNL     1       8.689   6.777  19.254  0.00  0.00    +0.000 F 
ENDBRANCH  21  23
ENDBRANCH  15  16
ENDBRANCH  11  15
TORSDOF 5
ENDMDL
MODEL 4
REMARK VINA RESULT:      -6.8      4.949      7.944
REMARK  Name = 
REMARK  5 active torsions:
REMARK  status: ('A' for Active; 'I' for Inactive)
REMARK    1  A    between atoms: CA_8  and  C_9
REMARK    2  A    between atoms: C_9  and  O_10
REMARK    3  A    between atoms: N_13  and  C_14
REMARK    4  A    between atoms: C_14  and  C_15
REMARK    5  A    between atoms: C_20  and  C_21
REMARK                            x       y       z     vdW  Elec       q    Type
REMARK                         _______ _______ _______ _____ _____    ______ ____
ROOT
ATOM      1  O   UNL     1       1.365   5.021  17.466  0.00  0.00    +0.000 OA
ATOM      2  C   UNL     1       2.486   4.998  17.982  0.00  0.00    +0.000 C 
ATOM      3  C   UNL     1       2.853   3.886  18.933  0.00  0.00    +0.000 C 
ATOM      4  S   UNL     1       4.460   3.170  18.590  0.00  0.00    +0.000 S 
ATOM      5  C   UNL     1       5.370   4.675  18.349  0.00  0.00    +0.000 A 
ATOM      6  C   UNL     1       6.765   4.590  18.404  0.00  0.00    +0.000 A 
ATOM      7  C   UNL     1       7.543   5.708  18.126  0.00  0.00    +0.000 A 
ATOM      8  CA  UNL     1       6.904   6.898  17.813  0.00  0.00    +0.000 A 
ATOM      9  N   UNL     1       5.552   7.014  17.806  0.00  0.00    +0.000 NA
ATOM     10  C   UNL     1       4.790   5.914  18.048  0.00  0.00    +0.000 A 
ATOM     11  N   UNL     1       3.381   6.054  17.874  0.00  0.00    +0.000 N 
ENDROOT
BRANCH   8  12
ATOM     12  C   UNL     1       7.717   8.102  17.394  0.00  0.00    +0.000 C 
BRANCH  12  13
ATOM     13  O   UNL     1       8.479   8.619  18.478  0.00  0.00    +0.000 OA
ATOM     14  H   UNL     1       8.754   7.856  19.012  0.00  0.00    +0.000 HD
ENDBRANCH  12  13
ENDBRANCH   8  12
BRANCH  11  15
ATOM     15  C   UNL     1       2.839   7.372  17.556  0.00  0.00    +0.000 C 
BRANCH  15  16
ATOM     16  C   UNL     1       2.082   7.941  18.748  0.00  0.00    +0.000 A 
ATOM     17  C   UNL     1       2.176   7.343  20.008  0.00  0.00    +0.000 A 
ATOM     18  C   UNL     1       1.545   7.920  21.112  0.00  0.00    +0.000 A 
ATOM     19  C   UNL     1       0.815   9.110  20.980  0.00  0.00    +0.000 A 
ATOM     20 CL   UNL     1       0.106   9.739  22.422  0.00  0.00    +0.000 Cl
ATOM     21  C   UNL     1       0.699   9.727  19.733  0.00  0.00    +0.000 A 
ATOM     22  C   UNL     1       1.337   9.124  18.625  0.00  0.00    +0.000 A 
BRANCH  21  23
ATOM     23  C   UNL     1      -0.061  11.001  19.473  0.00  0.00    +0.000 C 
ATOM     24  F   UNL     1       0.407  12.126  20.070  0.00  0.00    +0.000 F 
ATOM     25  F   UNL     1      -0.105  11.301  18.140  0.00  0.00    +0.000 F 
ATOM     26  F   UNL     1      -1.368  10.902  19.857  0.00  0.00    +0.000 F 
ENDBRANCH  21  23
ENDBRANCH  15  16
ENDBRANCH  11  15
TORSDOF 5
ENDMDL
MODEL 5
REMARK VINA RESULT:      -6.8      5.409      8.166
REMARK  Name = 
REMARK  5 active torsions:
REMARK  status: ('A' for Active; 'I' for Inactive)
REMARK    1  A    between atoms: CA_8  and  C_9
REMARK    2  A    between atoms: C_9  and  O_10
REMARK    3  A    between atoms: N_13  and  C_14
REMARK    4  A    between atoms: C_14  and  C_15
REMARK    5  A    between atoms: C_20  and  C_21
REMARK                            x       y       z     vdW  Elec       q    Type
REMARK                         _______ _______ _______ _____ _____    ______ ____
ROOT
ATOM      1  O   UNL     1       1.032   4.229  19.077  0.00  0.00    +0.000 OA
ATOM      2  C   UNL     1       2.160   3.927  18.675  0.00  0.00    +0.000 C 
ATOM      3  C   UNL     1       2.398   2.577  18.045  0.00  0.00    +0.000 C 
ATOM      4  S   UNL     1       3.335   2.669  16.520  0.00  0.00    +0.000 S 
ATOM      5  C   UNL     1       4.592   3.804  17.054  0.00  0.00    +0.000 A 
ATOM      6  C   UNL     1       5.749   3.885  16.273  0.00  0.00    +0.000 A 
ATOM      7  C   UNL     1       6.730   4.822  16.575  0.00  0.00    +0.000 A 
ATOM      8  CA  UNL     1       6.538   5.652  17.668  0.00  0.00    +0.000 A 
ATOM      9  N   UNL     1       5.448   5.554  18.470  0.00  0.00    +0.000 NA
ATOM     10  C   UNL     1       4.473   4.658  18.158  0.00  0.00    +0.000 A 
ATOM     11  N   UNL     1       3.280   4.704  18.939  0.00  0.00    +0.000 N 
ENDROOT
BRANCH   8  12
ATOM     12  C   UNL     1       7.527   6.758  17.958  0.00  0.00    +0.000 C 
BRANCH  12  13
ATOM     13  O   UNL     1       7.472   7.780  16.969  0.00  0.00    +0.000 OA
ATOM     14  H   UNL     1       8.341   8.214  16.970  0.00  0.00    +0.000 HD
ENDBRANCH  12  13
ENDBRANCH   8  12
BRANCH  11  15
ATOM     15  C   UNL     1       3.217   5.621  20.074  0.00  0.00    +0.000 C 
BRANCH  15  16
ATOM     16  C   UNL     1       2.558   6.931  19.667  0.00  0.00    +0.000 A 
ATOM     17  C   UNL     1       2.589   7.367  18.340  0.00  0.00    +0.000 A 
ATOM     18  C   UNL     1       1.912   8.528  17.962  0.00  0.00    +0.000 A 
ATOM     19  C   UNL     1       1.183   9.271  18.901  0.00  0.00    +0.000 A 
ATOM     20 CL   UNL     1       0.366  10.669  18.306  0.00  0.00    +0.000 Cl
ATOM     21  C   UNL     1       1.137   8.863  20.235  0.00  0.00    +0.000 A 
ATOM     22  C   UNL     1       1.837   7.690  20.602  0.00  0.00    +0.000 A 
BRANCH  21  23
ATOM     23  C   UNL     1       0.391   9.583  21.328  0.00  0.00    +0.000 C 
ATOM     24  F   UNL     1       0.366   8.988  22.547  0.00  0.00    +0.000 F 
ATOM     25  F   UNL     1       0.905  10.829  21.554  0.00  0.00    +0.000 F 
ATOM     26  F   UNL     1      -0.917   9.794  20.998  0.00  0.00    +0.000 F 
ENDBRANCH  21  23
ENDBRANCH  15  16
ENDBRANCH  11  15
TORSDOF 5
ENDMDL
MODEL 6
REMARK VINA RESULT:      -6.8      1.032      1.372
REMARK  Name = 
REMARK  5 active torsions:
REMARK  status: ('A' for Active; 'I' for Inactive)
REMARK    1  A    between atoms: CA_8  and  C_9
REMARK    2  A    between atoms: C_9  and  O_10
REMARK    3  A    between atoms: N_13  and  C_14
REMARK    4  A    between atoms: C_14  and  C_15
REMARK    5  A    between atoms: C_20  and  C_21
REMARK                            x       y       z     vdW  Elec       q    Type
REMARK                         _______ _______ _______ _____ _____    ______ ____
ROOT
ATOM      1  O   UNL     1       1.042  13.198  21.360  0.00  0.00    +0.000 OA
ATOM      2  C   UNL     1      -0.051  12.686  21.100  0.00  0.00    +0.000 C 
ATOM      3  C   UNL     1      -1.120  12.617  22.163  0.00  0.00    +0.000 C 
ATOM      4  S   UNL     1      -2.729  13.145  21.575  0.00  0.00    +0.000 S 
ATOM      5  C   UNL     1      -2.741  12.272  20.028  0.00  0.00    +0.000 A 
ATOM      6  C   UNL     1      -3.978  12.121  19.394  0.00  0.00    +0.000 A 
ATOM      7  C   UNL     1      -4.048  11.537  18.134  0.00  0.00    +0.000 A 
ATOM      8  CA  UNL     1      -2.874  11.100  17.541  0.00  0.00    +0.000 A 
ATOM      9  N   UNL     1      -1.672  11.189  18.163  0.00  0.00    +0.000 NA
ATOM     10  C   UNL     1      -1.597  11.788  19.382  0.00  0.00    +0.000 A 
ATOM     11  N   UNL     1      -0.292  11.997  19.920  0.00  0.00    +0.000 N 
ENDROOT
BRANCH   8  12
ATOM     12  C   UNL     1      -2.898  10.566  16.127  0.00  0.00    +0.000 C 
BRANCH  12  13
ATOM     13  O   UNL     1      -3.241  11.581  15.191  0.00  0.00    +0.000 OA
ATOM     14  H   UNL     1      -3.009  12.429  15.606  0.00  0.00    +0.000 HD
ENDBRANCH  12  13
ENDBRANCH   8  12
BRANCH  11  15
ATOM     15  C   UNL     1       0.861  11.472  19.194  0.00  0.00    +0.000 C 
BRANCH  15  16
ATOM     16  C   UNL     1       1.165  10.046  19.632  0.00  0.00    +0.000 A 
ATOM     17  C   UNL     1       0.672   9.548  20.842  0.00  0.00    +0.000 A 
ATOM     18  C   UNL     1       0.887   8.214  21.197  0.00  0.00    +0.000 A 
ATOM     19  C   UNL     1       1.590   7.351  20.345  0.00  0.00    +0.000 A 
ATOM     20 CL   UNL     1       1.764   5.720  20.881  0.00  0.00    +0.000 Cl
ATOM     21  C   UNL     1       2.098   7.821  19.133  0.00  0.00    +0.000 A 
ATOM     22  C   UNL     1       1.879   9.176  18.795  0.00  0.00    +0.000 A 
BRANCH  21  23
ATOM     23  C   UNL     1       2.870   6.986  18.144  0.00  0.00    +0.000 C 
ATOM     24  F   UNL     1       3.357   7.626  17.051  0.00  0.00    +0.000 F 
ATOM     25  F   UNL     1       3.959   6.396  18.723  0.00  0.00    +0.000 F 
ATOM     26  F   UNL     1       2.122   5.951  17.659  0.00  0.00    +0.000 F 
ENDBRANCH  21  23
ENDBRANCH  15  16
ENDBRANCH  11  15
TORSDOF 5
ENDMDL
MODEL 7
REMARK VINA RESULT:      -6.7      4.865      7.773
REMARK  Name = 
REMARK  5 active torsions:
REMARK  status: ('A' for Active; 'I' for Inactive)
REMARK    1  A    between atoms: CA_8  and  C_9
REMARK    2  A    between atoms: C_9  and  O_10
REMARK    3  A    between atoms: N_13  and  C_14
REMARK    4  A    between atoms: C_14  and  C_15
REMARK    5  A    between atoms: C_20  and  C_21
REMARK                            x       y       z     vdW  Elec       q    Type
REMARK                         _______ _______ _______ _____ _____    ______ ____
ROOT
ATOM      1  O   UNL     1       1.648   4.905  17.528  0.00  0.00    +0.000 OA
ATOM      2  C   UNL     1       2.692   5.088  18.161  0.00  0.00    +0.000 C 
ATOM      3  C   UNL     1       2.947   4.312  19.430  0.00  0.00    +0.000 C 
ATOM      4  S   UNL     1       4.595   3.611  19.505  0.00  0.00    +0.000 S 
ATOM      5  C   UNL     1       5.507   5.031  18.953  0.00  0.00    +0.000 A 
ATOM      6  C   UNL     1       6.884   5.037  19.199  0.00  0.00    +0.000 A 
ATOM      7  C   UNL     1       7.676   6.068  18.707  0.00  0.00    +0.000 A 
ATOM      8  CA  UNL     1       7.067   7.085  17.989  0.00  0.00    +0.000 A 
ATOM      9  N   UNL     1       5.726   7.125  17.785  0.00  0.00    +0.000 NA
ATOM     10  C   UNL     1       4.954   6.101  18.240  0.00  0.00    +0.000 A 
ATOM     11  N   UNL     1       3.578   6.114  17.863  0.00  0.00    +0.000 N 
ENDROOT
BRANCH   8  12
ATOM     12  C   UNL     1       7.910   8.161  17.343  0.00  0.00    +0.000 C 
BRANCH  12  13
ATOM     13  O   UNL     1       8.479   9.031  18.314  0.00  0.00    +0.000 OA
ATOM     14  H   UNL     1       9.266   8.580  18.662  0.00  0.00    +0.000 HD
ENDBRANCH  12  13
ENDBRANCH   8  12
BRANCH  11  15
ATOM     15  C   UNL     1       3.063   7.257  17.115  0.00  0.00    +0.000 C 
BRANCH  15  16
ATOM     16  C   UNL     1       2.385   8.248  18.051  0.00  0.00    +0.000 A 
ATOM     17  C   UNL     1       2.111   9.554  17.635  0.00  0.00    +0.000 A 
ATOM     18  C   UNL     1       1.416  10.430  18.471  0.00  0.00    +0.000 A 
ATOM     19  C   UNL     1       0.973  10.014  19.735  0.00  0.00    +0.000 A 
ATOM     20 CL   UNL     1       0.099  11.178  20.662  0.00  0.00    +0.000 Cl
ATOM     21  C   UNL     1       1.236   8.718  20.179  0.00  0.00    +0.000 A 
ATOM     22  C   UNL     1       1.950   7.848  19.323  0.00  0.00    +0.000 A 
BRANCH  21  23
ATOM     23  C   UNL     1       0.813   8.166  21.515  0.00  0.00    +0.000 C 
ATOM     24  F   UNL     1      -0.518   8.155  21.781  0.00  0.00    +0.000 F 
ATOM     25  F   UNL     1       1.216   6.870  21.677  0.00  0.00    +0.000 F 
ATOM     26  F   UNL     1       1.386   8.847  22.552  0.00  0.00    +0.000 F 
ENDBRANCH  21  23
ENDBRANCH  15  16
ENDBRANCH  11  15
TORSDOF 5
ENDMDL
MODEL 8
REMARK VINA RESULT:      -6.7      5.468      8.515
REMARK  Name = 
REMARK  5 active torsions:
REMARK  status: ('A' for Active; 'I' for Inactive)
REMARK    1  A    between atoms: CA_8  and  C_9
REMARK    2  A    between atoms: C_9  and  O_10
REMARK    3  A    between atoms: N_13  and  C_14
REMARK    4  A    between atoms: C_14  and  C_15
REMARK    5  A    between atoms: C_20  and  C_21
REMARK                            x       y       z     vdW  Elec       q    Type
REMARK                         _______ _______ _______ _____ _____    ______ ____
ROOT
ATOM      1  O   UNL     1       1.155   4.449  18.118  0.00  0.00    +0.000 OA
ATOM      2  C   UNL     1       2.321   4.074  17.959  0.00  0.00    +0.000 C 
ATOM      3  C   UNL     1       2.614   2.883  17.081  0.00  0.00    +0.000 C 
ATOM      4  S   UNL     1       3.959   3.172  15.932  0.00  0.00    +0.000 S 
ATOM      5  C   UNL     1       5.099   3.943  17.054  0.00  0.00    +0.000 A 
ATOM      6  C   UNL     1       6.436   4.016  16.650  0.00  0.00    +0.000 A 
ATOM      7  C   UNL     1       7.364   4.694  17.433  0.00  0.00    +0.000 A 
ATOM      8  CA  UNL     1       6.935   5.272  18.617  0.00  0.00    +0.000 A 
ATOM      9  N   UNL     1       5.654   5.166  19.052  0.00  0.00    +0.000 NA
ATOM     10  C   UNL     1       4.738   4.530  18.273  0.00  0.00    +0.000 A 
ATOM     11  N   UNL     1       3.378   4.584  18.700  0.00  0.00    +0.000 N 
ENDROOT
BRANCH   8  12
ATOM     12  C   UNL     1       7.889   6.113  19.435  0.00  0.00    +0.000 C 
BRANCH  12  13
ATOM     13  O   UNL     1       8.207   5.486  20.672  0.00  0.00    +0.000 OA
ATOM     14  H   UNL     1       7.719   5.968  21.360  0.00  0.00    +0.000 HD
ENDBRANCH  12  13
ENDBRANCH   8  12
BRANCH  11  15
ATOM     15  C   UNL     1       3.067   5.215  19.979  0.00  0.00    +0.000 C 
BRANCH  15  16
ATOM     16  C   UNL     1       2.516   6.618  19.764  0.00  0.00    +0.000 A 
ATOM     17  C   UNL     1       2.756   7.306  18.571  0.00  0.00    +0.000 A 
ATOM     18  C   UNL     1       2.178   8.558  18.350  0.00  0.00    +0.000 A 
ATOM     19  C   UNL     1       1.342   9.141  19.312  0.00  0.00    +0.000 A 
ATOM     20 CL   UNL     1       0.665  10.677  18.909  0.00  0.00    +0.000 Cl
ATOM     21  C   UNL     1       1.087   8.479  20.514  0.00  0.00    +0.000 A 
ATOM     22  C   UNL     1       1.688   7.218  20.725  0.00  0.00    +0.000 A 
BRANCH  21  23
ATOM     23  C   UNL     1       0.209   9.011  21.617  0.00  0.00    +0.000 C 
ATOM     24  F   UNL     1      -0.431  10.183  21.379  0.00  0.00    +0.000 F 
ATOM     25  F   UNL     1      -0.781   8.128  21.946  0.00  0.00    +0.000 F 
ATOM     26  F   UNL     1       0.909   9.206  22.775  0.00  0.00    +0.000 F 
ENDBRANCH  21  23
ENDBRANCH  15  16
ENDBRANCH  11  15
TORSDOF 5
ENDMDL
MODEL 9
REMARK VINA RESULT:      -6.6      5.011      7.606
REMARK  Name = 
REMARK  5 active torsions:
REMARK  status: ('A' for Active; 'I' for Inactive)
REMARK    1  A    between atoms: CA_8  and  C_9
REMARK    2  A    between atoms: C_9  and  O_10
REMARK    3  A    between atoms: N_13  and  C_14
REMARK    4  A    between atoms: C_14  and  C_15
REMARK    5  A    between atoms: C_20  and  C_21
REMARK                            x       y       z     vdW  Elec       q    Type
REMARK                         _______ _______ _______ _____ _____    ______ ____
ROOT
ATOM      1  O   UNL     1       0.570   4.163  20.344  0.00  0.00    +0.000 OA
ATOM      2  C   UNL     1       1.594   3.847  19.729  0.00  0.00    +0.000 C 
ATOM      3  C   UNL     1       1.713   2.469  19.125  0.00  0.00    +0.000 C 
ATOM      4  S   UNL     1       2.307   2.492  17.435  0.00  0.00    +0.000 S 
ATOM      5  C   UNL     1       3.632   3.656  17.640  0.00  0.00    +0.000 A 
ATOM      6  C   UNL     1       4.598   3.704  16.630  0.00  0.00    +0.000 A 
ATOM      7  C   UNL     1       5.608   4.659  16.675  0.00  0.00    +0.000 A 
ATOM      8  CA  UNL     1       5.638   5.539  17.745  0.00  0.00    +0.000 A 
ATOM      9  N   UNL     1       4.741   5.475  18.762  0.00  0.00    +0.000 NA
ATOM     10  C   UNL     1       3.735   4.561  18.704  0.00  0.00    +0.000 A 
ATOM     11  N   UNL     1       2.732   4.640  19.715  0.00  0.00    +0.000 N 
ENDROOT
BRANCH   8  12
ATOM     12  C   UNL     1       6.651   6.661  17.770  0.00  0.00    +0.000 C 
BRANCH  12  13
ATOM     13  O   UNL     1       7.528   6.596  16.652  0.00  0.00    +0.000 OA
ATOM     14  H   UNL     1       7.412   5.714  16.260  0.00  0.00    +0.000 HD
ENDBRANCH  12  13
ENDBRANCH   8  12
BRANCH  11  15
ATOM     15  C   UNL     1       2.896   5.609  20.795  0.00  0.00    +0.000 C 
BRANCH  15  16
ATOM     16  C   UNL     1       2.034   6.839  20.546  0.00  0.00    +0.000 A 
ATOM     17  C   UNL     1       1.140   7.295  21.518  0.00  0.00    +0.000 A 
ATOM     18  C   UNL     1       0.413   8.470  21.313  0.00  0.00    +0.000 A 
ATOM     19  C   UNL     1       0.574   9.216  20.137  0.00  0.00    +0.000 A 
ATOM     20 CL   UNL     1      -0.357  10.663  20.014  0.00  0.00    +0.000 Cl
ATOM     21  C   UNL     1       1.456   8.782  19.146  0.00  0.00    +0.000 A 
ATOM     22  C   UNL     1       2.176   7.586  19.366  0.00  0.00    +0.000 A 
BRANCH  21  23
ATOM     23  C   UNL     1       1.705   9.499  17.845  0.00  0.00    +0.000 C 
ATOM     24  F   UNL     1       2.301  10.716  17.920  0.00  0.00    +0.000 F 
ATOM     25  F   UNL     1       2.500   8.767  17.008  0.00  0.00    +0.000 F 
ATOM     26  F   UNL     1       0.549   9.702  17.146  0.00  0.00    +0.000 F 
ENDBRANCH  21  23
ENDBRANCH  15  16
ENDBRANCH  11  15
TORSDOF 5
ENDMDL
