MODEL 1
REMARK VINA RESULT:      -7.0      0.000      0.000
REMARK  Name = 
REMARK  8 active torsions:
REMARK  status: ('A' for Active; 'I' for Inactive)
REMARK    1  A    between atoms: C_1  and  C_2
REMARK    2  A    between atoms: C_2  and  N_3
REMARK    3  A    between atoms: N_3  and  S_4
REMARK    4  A    between atoms: S_4  and  C_7
REMARK    5  A    between atoms: C_10  and  C_11
REMARK    6  A    between atoms: C_11  and  C_12
REMARK    7  A    between atoms: C_12  and  C_13
REMARK    8  A    between atoms: C_18  and  C_19
REMARK                            x       y       z     vdW  Elec       q    Type
REMARK                         _______ _______ _______ _____ _____    ______ ____
ROOT
ATOM      1  C   UNL     1       5.449   4.499  16.702  0.00  0.00    +0.000 A 
ATOM      2  C   UNL     1       4.607   3.403  16.520  0.00  0.00    +0.000 A 
ATOM      3  C   UNL     1       4.156   2.696  17.636  0.00  0.00    +0.000 A 
ATOM      4  C   UNL     1       4.551   3.068  18.933  0.00  0.00    +0.000 A 
ATOM      5  C   UNL     1       5.414   4.162  19.093  0.00  0.00    +0.000 A 
ATOM      6  C   UNL     1       5.870   4.872  17.982  0.00  0.00    +0.000 A 
ENDROOT
BRANCH   1   7
ATOM      7  S   UNL     1       6.021   5.433  15.298  0.00  0.00    +0.000 S 
ATOM      8  O   UNL     1       7.465   5.395  15.282  0.00  0.00    +0.000 OA
ATOM      9  O   UNL     1       5.280   6.671  15.303  0.00  0.00    +0.000 OA
BRANCH   7  10
ATOM     10  N   UNL     1       5.441   4.499  14.002  0.00  0.00    +0.000 NA
ATOM     11  H   UNL     1       4.697   3.876  14.314  0.00  0.00    +0.000 HD
BRANCH  10  13
ATOM     12  C   UNL     1       5.790   3.124  12.015  0.00  0.00    +0.000 C 
ATOM     13  C   UNL     1       6.464   3.814  13.189  0.00  0.00    +0.000 C 
ENDBRANCH  10  13
ENDBRANCH   7  10
ENDBRANCH   1   7
BRANCH   4  14
ATOM     14  C   UNL     1       4.047   2.306  20.140  0.00  0.00    +0.000 C 
BRANCH  14  15
ATOM     15  C   UNL     1       2.545   2.491  20.348  0.00  0.00    +0.000 C 
BRANCH  15  16
ATOM     16  C   UNL     1       2.202   3.804  21.031  0.00  0.00    +0.000 C 
ATOM     17  O   UNL     1       2.308   3.936  22.248  0.00  0.00    +0.000 OA
ATOM     18  N   UNL     1       1.776   4.837  20.199  0.00  0.00    +0.000 N 
ATOM     19  C   UNL     1       1.538   4.723  18.759  0.00  0.00    +0.000 C 
ATOM     20  C   UNL     1       2.274   5.823  17.996  0.00  0.00    +0.000 C 
ATOM     21  C   UNL     1       1.943   7.215  18.552  0.00  0.00    +0.000 C 
ATOM     22  C   UNL     1       2.770   8.287  17.846  0.00  0.00    +0.000 C 
ATOM     23  C   UNL     1       2.177   7.258  20.070  0.00  0.00    +0.000 C 
ATOM     24  C   UNL     1       1.430   6.130  20.781  0.00  0.00    +0.000 C 
ENDBRANCH  15  16
ENDBRANCH  14  15
ENDBRANCH   4  14
TORSDOF 6
ENDMDL
MODEL 2
REMARK VINA RESULT:      -7.0      0.078      1.013
REMARK  Name = 
REMARK  8 active torsions:
REMARK  status: ('A' for Active; 'I' for Inactive)
REMARK    1  A    between atoms: C_1  and  C_2
REMARK    2  A    between atoms: C_2  and  N_3
REMARK    3  A    between atoms: N_3  and  S_4
REMARK    4  A    between atoms: S_4  and  C_7
REMARK    5  A    between atoms: C_10  and  C_11
REMARK    6  A    between atoms: C_11  and  C_12
REMARK    7  A    between atoms: C_12  and  C_13
REMARK    8  A    between atoms: C_18  and  C_19
REMARK                            x       y       z     vdW  Elec       q    Type
REMARK                         _______ _______ _______ _____ _____    ______ ____
ROOT
ATOM      1  C   UNL     1       5.478   4.490  16.693  0.00  0.00    +0.000 A 
ATOM      2  C   UNL     1       5.857   4.901  17.969  0.00  0.00    +0.000 A 
ATOM      3  C   UNL     1       5.392   4.195  19.081  0.00  0.00    +0.000 A 
ATOM      4  C   UNL     1       4.538   3.090  18.927  0.00  0.00    +0.000 A 
ATOM      5  C   UNL     1       4.152   2.704  17.635  0.00  0.00    +0.000 A 
ATOM      6  C   UNL     1       4.612   3.405  16.520  0.00  0.00    +0.000 A 
ENDROOT
BRANCH   1   7
ATOM      7  S   UNL     1       6.074   5.356  15.257  0.00  0.00    +0.000 S 
ATOM      8  O   UNL     1       7.518   5.305  15.261  0.00  0.00    +0.000 OA
ATOM      9  O   UNL     1       5.344   6.600  15.200  0.00  0.00    +0.000 OA
BRANCH   7  10
ATOM     10  N   UNL     1       5.501   4.372  13.997  0.00  0.00    +0.000 NA
ATOM     11  H   UNL     1       4.962   3.591  14.369  0.00  0.00    +0.000 HD
BRANCH  10  13
ATOM     12  C   UNL     1       5.844   3.022  11.991  0.00  0.00    +0.000 C 
ATOM     13  C   UNL     1       6.499   3.959  12.993  0.00  0.00    +0.000 C 
ENDBRANCH  10  13
ENDBRANCH   7  10
ENDBRANCH   1   7
BRANCH   4  14
ATOM     14  C   UNL     1       4.048   2.321  20.136  0.00  0.00    +0.000 C 
BRANCH  14  15
ATOM     15  C   UNL     1       2.547   2.500  20.358  0.00  0.00    +0.000 C 
BRANCH  15  16
ATOM     16  C   UNL     1       2.203   3.813  21.038  0.00  0.00    +0.000 C 
ATOM     17  O   UNL     1       2.310   3.948  22.254  0.00  0.00    +0.000 OA
ATOM     18  N   UNL     1       1.778   4.845  20.204  0.00  0.00    +0.000 N 
ATOM     19  C   UNL     1       1.540   4.729  18.764  0.00  0.00    +0.000 C 
ATOM     20  C   UNL     1       2.276   5.828  18.000  0.00  0.00    +0.000 C 
ATOM     21  C   UNL     1       1.944   7.221  18.552  0.00  0.00    +0.000 C 
ATOM     22  C   UNL     1       2.772   8.291  17.845  0.00  0.00    +0.000 C 
ATOM     23  C   UNL     1       2.179   7.266  20.071  0.00  0.00    +0.000 C 
ATOM     24  C   UNL     1       1.432   6.139  20.783  0.00  0.00    +0.000 C 
ENDBRANCH  15  16
ENDBRANCH  14  15
ENDBRANCH   4  14
TORSDOF 6
ENDMDL
MODEL 3
REMARK VINA RESULT:      -6.8      3.936      6.898
REMARK  Name = 
REMARK  8 active torsions:
REMARK  status: ('A' for Active; 'I' for Inactive)
REMARK    1  A    between atoms: C_1  and  C_2
REMARK    2  A    between atoms: C_2  and  N_3
REMARK    3  A    between atoms: N_3  and  S_4
REMARK    4  A    between atoms: S_4  and  C_7
REMARK    5  A    between atoms: C_10  and  C_11
REMARK    6  A    between atoms: C_11  and  C_12
REMARK    7  A    between atoms: C_12  and  C_13
REMARK    8  A    between atoms: C_18  and  C_19
REMARK                            x       y       z     vdW  Elec       q    Type
REMARK                         _______ _______ _______ _____ _____    ______ ____
ROOT
ATOM      1  C   UNL     1       1.281   9.361  19.303  0.00  0.00    +0.000 A 
ATOM      2  C   UNL     1       1.942   8.675  18.286  0.00  0.00    +0.000 A 
ATOM      3  C   UNL     1       2.415   7.384  18.529  0.00  0.00    +0.000 A 
ATOM      4  C   UNL     1       2.244   6.778  19.786  0.00  0.00    +0.000 A 
ATOM      5  C   UNL     1       1.593   7.493  20.802  0.00  0.00    +0.000 A 
ATOM      6  C   UNL     1       1.119   8.784  20.566  0.00  0.00    +0.000 A 
ENDROOT
BRANCH   1   7
ATOM      7  S   UNL     1       0.647  10.999  19.014  0.00  0.00    +0.000 S 
ATOM      8  O   UNL     1       1.723  11.824  18.517  0.00  0.00    +0.000 OA
ATOM      9  O   UNL     1      -0.120  11.351  20.185  0.00  0.00    +0.000 OA
BRANCH   7  10
ATOM     10  N   UNL     1      -0.454  10.725  17.749  0.00  0.00    +0.000 NA
ATOM     11  H   UNL     1      -0.142  11.187  16.896  0.00  0.00    +0.000 HD
BRANCH  10  13
ATOM     12  C   UNL     1      -2.709   9.801  17.594  0.00  0.00    +0.000 C 
ATOM     13  C   UNL     1      -1.874  10.982  18.060  0.00  0.00    +0.000 C 
ENDBRANCH  10  13
ENDBRANCH   7  10
ENDBRANCH   1   7
BRANCH   4  14
ATOM     14  C   UNL     1       2.748   5.373  20.038  0.00  0.00    +0.000 C 
BRANCH  14  15
ATOM     15  C   UNL     1       3.207   4.689  18.751  0.00  0.00    +0.000 C 
BRANCH  15  16
ATOM     16  C   UNL     1       4.691   4.368  18.752  0.00  0.00    +0.000 C 
ATOM     17  O   UNL     1       5.180   3.609  19.585  0.00  0.00    +0.000 OA
ATOM     18  N   UNL     1       5.451   4.971  17.752  0.00  0.00    +0.000 N 
ATOM     19  C   UNL     1       4.956   5.954  16.787  0.00  0.00    +0.000 C 
ATOM     20  C   UNL     1       5.320   5.548  15.359  0.00  0.00    +0.000 C 
ATOM     21  C   UNL     1       6.823   5.270  15.217  0.00  0.00    +0.000 C 
ATOM     22  C   UNL     1       7.145   4.763  13.813  0.00  0.00    +0.000 C 
ATOM     23  C   UNL     1       7.287   4.262  16.280  0.00  0.00    +0.000 C 
ATOM     24  C   UNL     1       6.886   4.710  17.685  0.00  0.00    +0.000 C 
ENDBRANCH  15  16
ENDBRANCH  14  15
ENDBRANCH   4  14
TORSDOF 6
ENDMDL
MODEL 4
REMARK VINA RESULT:      -6.8      1.617      2.645
REMARK  Name = 
REMARK  8 active torsions:
REMARK  status: ('A' for Active; 'I' for Inactive)
REMARK    1  A    between atoms: C_1  and  C_2
REMARK    2  A    between atoms: C_2  and  N_3
REMARK    3  A    between atoms: N_3  and  S_4
REMARK    4  A    between atoms: S_4  and  C_7
REMARK    5  A    between atoms: C_10  and  C_11
REMARK    6  A    between atoms: C_11  and  C_12
REMARK    7  A    between atoms: C_12  and  C_13
REMARK    8  A    between atoms: C_18  and  C_19
REMARK                            x       y       z     vdW  Elec       q    Type
REMARK                         _______ _______ _______ _____ _____    ______ ____
ROOT
ATOM      1  C   UNL     1       5.412   4.876  17.092  0.00  0.00    +0.000 A 
ATOM      2  C   UNL     1       5.570   4.946  18.474  0.00  0.00    +0.000 A 
ATOM      3  C   UNL     1       4.986   3.965  19.278  0.00  0.00    +0.000 A 
ATOM      4  C   UNL     1       4.235   2.922  18.711  0.00  0.00    +0.000 A 
ATOM      5  C   UNL     1       4.071   2.880  17.319  0.00  0.00    +0.000 A 
ATOM      6  C   UNL     1       4.650   3.858  16.509  0.00  0.00    +0.000 A 
ENDROOT
BRANCH   1   7
ATOM      7  S   UNL     1       6.164   6.101  16.040  0.00  0.00    +0.000 S 
ATOM      8  O   UNL     1       5.201   6.497  15.039  0.00  0.00    +0.000 OA
ATOM      9  O   UNL     1       7.472   5.595  15.698  0.00  0.00    +0.000 OA
BRANCH   7  10
ATOM     10  N   UNL     1       6.387   7.393  17.120  0.00  0.00    +0.000 NA
ATOM     11  H   UNL     1       5.785   8.177  16.869  0.00  0.00    +0.000 HD
BRANCH  10  13
ATOM     12  C   UNL     1       8.240   7.217  18.701  0.00  0.00    +0.000 C 
ATOM     13  C   UNL     1       7.784   7.794  17.371  0.00  0.00    +0.000 C 
ENDBRANCH  10  13
ENDBRANCH   7  10
ENDBRANCH   1   7
BRANCH   4  14
ATOM     14  C   UNL     1       3.616   1.854  19.588  0.00  0.00    +0.000 C 
BRANCH  14  15
ATOM     15  C   UNL     1       2.172   2.187  19.964  0.00  0.00    +0.000 C 
BRANCH  15  16
ATOM     16  C   UNL     1       2.055   3.466  20.774  0.00  0.00    +0.000 C 
ATOM     17  O   UNL     1       2.304   3.485  21.976  0.00  0.00    +0.000 OA
ATOM     18  N   UNL     1       1.664   4.604  20.072  0.00  0.00    +0.000 N 
ATOM     19  C   UNL     1       1.263   4.637  18.664  0.00  0.00    +0.000 C 
ATOM     20  C   UNL     1       2.034   5.714  17.903  0.00  0.00    +0.000 C 
ATOM     21  C   UNL     1       1.924   7.082  18.590  0.00  0.00    +0.000 C 
ATOM     22  C   UNL     1       2.788   8.115  17.873  0.00  0.00    +0.000 C 
ATOM     23  C   UNL     1       2.321   6.972  20.071  0.00  0.00    +0.000 C 
ATOM     24  C   UNL     1       1.530   5.874  20.780  0.00  0.00    +0.000 C 
ENDBRANCH  15  16
ENDBRANCH  14  15
ENDBRANCH   4  14
TORSDOF 6
ENDMDL
MODEL 5
REMARK VINA RESULT:      -6.8      3.384      4.703
REMARK  Name = 
REMARK  8 active torsions:
REMARK  status: ('A' for Active; 'I' for Inactive)
REMARK    1  A    between atoms: C_1  and  C_2
REMARK    2  A    between atoms: C_2  and  N_3
REMARK    3  A    between atoms: N_3  and  S_4
REMARK    4  A    between atoms: S_4  and  C_7
REMARK    5  A    between atoms: C_10  and  C_11
REMARK    6  A    between atoms: C_11  and  C_12
REMARK    7  A    between atoms: C_12  and  C_13
REMARK    8  A    between atoms: C_18  and  C_19
REMARK                            x       y       z     vdW  Elec       q    Type
REMARK                         _______ _______ _______ _____ _____    ______ ____
ROOT
ATOM      1  C   UNL     1       5.483   5.160  17.796  0.00  0.00    +0.000 A 
ATOM      2  C   UNL     1       4.341   5.378  17.028  0.00  0.00    +0.000 A 
ATOM      3  C   UNL     1       3.115   5.572  17.667  0.00  0.00    +0.000 A 
ATOM      4  C   UNL     1       3.020   5.537  19.069  0.00  0.00    +0.000 A 
ATOM      5  C   UNL     1       4.178   5.297  19.823  0.00  0.00    +0.000 A 
ATOM      6  C   UNL     1       5.406   5.101  19.191  0.00  0.00    +0.000 A 
ENDROOT
BRANCH   1   7
ATOM      7  S   UNL     1       7.064   4.933  17.008  0.00  0.00    +0.000 S 
ATOM      8  O   UNL     1       6.846   4.329  15.714  0.00  0.00    +0.000 OA
ATOM      9  O   UNL     1       7.932   4.345  18.000  0.00  0.00    +0.000 OA
BRANCH   7  10
ATOM     10  N   UNL     1       7.569   6.538  16.778  0.00  0.00    +0.000 NA
ATOM     11  H   UNL     1       8.325   6.582  16.096  0.00  0.00    +0.000 HD
BRANCH  10  13
ATOM     12  C   UNL     1       8.029   8.775  17.643  0.00  0.00    +0.000 C 
ATOM     13  C   UNL     1       7.853   7.309  18.004  0.00  0.00    +0.000 C 
ENDBRANCH  10  13
ENDBRANCH   7  10
ENDBRANCH   1   7
BRANCH   4  14
ATOM     14  C   UNL     1       1.690   5.762  19.757  0.00  0.00    +0.000 C 
BRANCH  14  15
ATOM     15  C   UNL     1       1.758   6.897  20.777  0.00  0.00    +0.000 C 
BRANCH  15  16
ATOM     16  C   UNL     1       1.501   8.261  20.160  0.00  0.00    +0.000 C 
ATOM     17  O   UNL     1       1.589   8.439  18.948  0.00  0.00    +0.000 OA
ATOM     18  N   UNL     1       1.152   9.279  21.044  0.00  0.00    +0.000 N 
ATOM     19  C   UNL     1       1.119   9.163  22.503  0.00  0.00    +0.000 C 
ATOM     20  C   UNL     1      -0.217   9.655  23.058  0.00  0.00    +0.000 C 
ATOM     21  C   UNL     1      -0.550  11.068  22.561  0.00  0.00    +0.000 C 
ATOM     22  C   UNL     1      -1.935  11.494  23.041  0.00  0.00    +0.000 C 
ATOM     23  C   UNL     1      -0.461  11.133  21.028  0.00  0.00    +0.000 C 
ATOM     24  C   UNL     1       0.887  10.619  20.526  0.00  0.00    +0.000 C 
ENDBRANCH  15  16
ENDBRANCH  14  15
ENDBRANCH   4  14
TORSDOF 6
ENDMDL
MODEL 6
REMARK VINA RESULT:      -6.7      1.528      2.365
REMARK  Name = 
REMARK  8 active torsions:
REMARK  status: ('A' for Active; 'I' for Inactive)
REMARK    1  A    between atoms: C_1  and  C_2
REMARK    2  A    between atoms: C_2  and  N_3
REMARK    3  A    between atoms: N_3  and  S_4
REMARK    4  A    between atoms: S_4  and  C_7
REMARK    5  A    between atoms: C_10  and  C_11
REMARK    6  A    between atoms: C_11  and  C_12
REMARK    7  A    between atoms: C_12  and  C_13
REMARK    8  A    between atoms: C_18  and  C_19
REMARK                            x       y       z     vdW  Elec       q    Type
REMARK                         _______ _______ _______ _____ _____    ______ ____
ROOT
ATOM      1  C   UNL     1       5.601   4.462  16.960  0.00  0.00    +0.000 A 
ATOM      2  C   UNL     1       4.819   3.386  16.546  0.00  0.00    +0.000 A 
ATOM      3  C   UNL     1       4.226   2.563  17.506  0.00  0.00    +0.000 A 
ATOM      4  C   UNL     1       4.421   2.800  18.877  0.00  0.00    +0.000 A 
ATOM      5  C   UNL     1       5.228   3.876  19.273  0.00  0.00    +0.000 A 
ATOM      6  C   UNL     1       5.825   4.702  18.319  0.00  0.00    +0.000 A 
ENDROOT
BRANCH   1   7
ATOM      7  S   UNL     1       6.351   5.541  15.758  0.00  0.00    +0.000 S 
ATOM      8  O   UNL     1       5.359   6.497  15.323  0.00  0.00    +0.000 OA
ATOM      9  O   UNL     1       7.062   4.690  14.835  0.00  0.00    +0.000 OA
BRANCH   7  10
ATOM     10  N   UNL     1       7.510   6.352  16.698  0.00  0.00    +0.000 NA
ATOM     11  H   UNL     1       8.059   5.688  17.242  0.00  0.00    +0.000 HD
BRANCH  10  13
ATOM     12  C   UNL     1       8.116   8.522  17.640  0.00  0.00    +0.000 C 
ATOM     13  C   UNL     1       7.013   7.486  17.502  0.00  0.00    +0.000 C 
ENDBRANCH  10  13
ENDBRANCH   7  10
ENDBRANCH   1   7
BRANCH   4  14
ATOM     14  C   UNL     1       3.764   1.912  19.913  0.00  0.00    +0.000 C 
BRANCH  14  15
ATOM     15  C   UNL     1       2.284   2.244  20.096  0.00  0.00    +0.000 C 
BRANCH  15  16
ATOM     16  C   UNL     1       2.059   3.557  20.824  0.00  0.00    +0.000 C 
ATOM     17  O   UNL     1       2.177   3.638  22.044  0.00  0.00    +0.000 OA
ATOM     18  N   UNL     1       1.728   4.652  20.029  0.00  0.00    +0.000 N 
ATOM     19  C   UNL     1       1.480   4.609  18.586  0.00  0.00    +0.000 C 
ATOM     20  C   UNL     1       2.312   5.665  17.859  0.00  0.00    +0.000 C 
ATOM     21  C   UNL     1       2.106   7.061  18.463  0.00  0.00    +0.000 C 
ATOM     22  C   UNL     1       3.026   8.078  17.791  0.00  0.00    +0.000 C 
ATOM     23  C   UNL     1       2.344   7.031  19.981  0.00  0.00    +0.000 C 
ATOM     24  C   UNL     1       1.499   5.951  20.655  0.00  0.00    +0.000 C 
ENDBRANCH  15  16
ENDBRANCH  14  15
ENDBRANCH   4  14
TORSDOF 6
ENDMDL
MODEL 7
REMARK VINA RESULT:      -6.7      3.198      4.291
REMARK  Name = 
REMARK  8 active torsions:
REMARK  status: ('A' for Active; 'I' for Inactive)
REMARK    1  A    between atoms: C_1  and  C_2
REMARK    2  A    between atoms: C_2  and  N_3
REMARK    3  A    between atoms: N_3  and  S_4
REMARK    4  A    between atoms: S_4  and  C_7
REMARK    5  A    between atoms: C_10  and  C_11
REMARK    6  A    between atoms: C_11  and  C_12
REMARK    7  A    between atoms: C_12  and  C_13
REMARK    8  A    between atoms: C_18  and  C_19
REMARK                            x       y       z     vdW  Elec       q    Type
REMARK                         _______ _______ _______ _____ _____    ______ ____
ROOT
ATOM      1  C   UNL     1       5.621   5.735  17.654  0.00  0.00    +0.000 A 
ATOM      2  C   UNL     1       5.509   5.298  18.972  0.00  0.00    +0.000 A 
ATOM      3  C   UNL     1       4.271   5.370  19.614  0.00  0.00    +0.000 A 
ATOM      4  C   UNL     1       3.146   5.890  18.952  0.00  0.00    +0.000 A 
ATOM      5  C   UNL     1       3.283   6.344  17.632  0.00  0.00    +0.000 A 
ATOM      6  C   UNL     1       4.518   6.275  16.985  0.00  0.00    +0.000 A 
ENDROOT
BRANCH   1   7
ATOM      7  S   UNL     1       7.182   5.633  16.803  0.00  0.00    +0.000 S 
ATOM      8  O   UNL     1       7.869   4.444  17.253  0.00  0.00    +0.000 OA
ATOM      9  O   UNL     1       7.775   6.946  16.883  0.00  0.00    +0.000 OA
BRANCH   7  10
ATOM     10  N   UNL     1       6.684   5.396  15.197  0.00  0.00    +0.000 NA
ATOM     11  H   UNL     1       5.838   5.930  15.001  0.00  0.00    +0.000 HD
BRANCH  10  13
ATOM     12  C   UNL     1       5.604   3.896  13.600  0.00  0.00    +0.000 C 
ATOM     13  C   UNL     1       6.599   3.994  14.745  0.00  0.00    +0.000 C 
ENDBRANCH  10  13
ENDBRANCH   7  10
ENDBRANCH   1   7
BRANCH   4  14
ATOM     14  C   UNL     1       1.804   5.954  19.649  0.00  0.00    +0.000 C 
BRANCH  14  15
ATOM     15  C   UNL     1       1.762   7.051  20.712  0.00  0.00    +0.000 C 
BRANCH  15  16
ATOM     16  C   UNL     1       1.459   8.422  20.134  0.00  0.00    +0.000 C 
ATOM     17  O   UNL     1       1.525   8.633  18.925  0.00  0.00    +0.000 OA
ATOM     18  N   UNL     1       1.095   9.408  21.047  0.00  0.00    +0.000 N 
ATOM     19  C   UNL     1       1.086   9.254  22.503  0.00  0.00    +0.000 C 
ATOM     20  C   UNL     1      -0.255   9.695  23.089  0.00  0.00    +0.000 C 
ATOM     21  C   UNL     1      -0.634  11.110  22.633  0.00  0.00    +0.000 C 
ATOM     22  C   UNL     1      -2.024  11.485  23.142  0.00  0.00    +0.000 C 
ATOM     23  C   UNL     1      -0.568  11.216  21.101  0.00  0.00    +0.000 C 
ATOM     24  C   UNL     1       0.786  10.752  20.568  0.00  0.00    +0.000 C 
ENDBRANCH  15  16
ENDBRANCH  14  15
ENDBRANCH   4  14
TORSDOF 6
ENDMDL
MODEL 8
REMARK VINA RESULT:      -6.5      4.317      5.832
REMARK  Name = 
REMARK  8 active torsions:
REMARK  status: ('A' for Active; 'I' for Inactive)
REMARK    1  A    between atoms: C_1  and  C_2
REMARK    2  A    between atoms: C_2  and  N_3
REMARK    3  A    between atoms: N_3  and  S_4
REMARK    4  A    between atoms: S_4  and  C_7
REMARK    5  A    between atoms: C_10  and  C_11
REMARK    6  A    between atoms: C_11  and  C_12
REMARK    7  A    between atoms: C_12  and  C_13
REMARK    8  A    between atoms: C_18  and  C_19
REMARK                            x       y       z     vdW  Elec       q    Type
REMARK                         _______ _______ _______ _____ _____    ______ ____
ROOT
ATOM      1  C   UNL     1       4.374   5.623  18.490  0.00  0.00    +0.000 A 
ATOM      2  C   UNL     1       3.371   5.736  19.451  0.00  0.00    +0.000 A 
ATOM      3  C   UNL     1       2.471   6.801  19.377  0.00  0.00    +0.000 A 
ATOM      4  C   UNL     1       2.574   7.762  18.356  0.00  0.00    +0.000 A 
ATOM      5  C   UNL     1       3.602   7.641  17.410  0.00  0.00    +0.000 A 
ATOM      6  C   UNL     1       4.506   6.580  17.479  0.00  0.00    +0.000 A 
ENDROOT
BRANCH   1   7
ATOM      7  S   UNL     1       5.521   4.263  18.547  0.00  0.00    +0.000 S 
ATOM      8  O   UNL     1       5.000   3.264  19.451  0.00  0.00    +0.000 OA
ATOM      9  O   UNL     1       6.832   4.843  18.708  0.00  0.00    +0.000 OA
BRANCH   7  10
ATOM     10  N   UNL     1       5.423   3.662  16.961  0.00  0.00    +0.000 NA
ATOM     11  H   UNL     1       5.286   2.652  16.968  0.00  0.00    +0.000 HD
BRANCH  10  13
ATOM     12  C   UNL     1       5.926   4.186  14.629  0.00  0.00    +0.000 C 
ATOM     13  C   UNL     1       6.490   4.094  16.038  0.00  0.00    +0.000 C 
ENDBRANCH  10  13
ENDBRANCH   7  10
ENDBRANCH   1   7
BRANCH   4  14
ATOM     14  C   UNL     1       1.587   8.907  18.274  0.00  0.00    +0.000 C 
BRANCH  14  15
ATOM     15  C   UNL     1       1.088   9.334  19.654  0.00  0.00    +0.000 C 
BRANCH  15  16
ATOM     16  C   UNL     1       0.797  10.821  19.741  0.00  0.00    +0.000 C 
ATOM     17  O   UNL     1       0.943  11.558  18.769  0.00  0.00    +0.000 OA
ATOM     18  N   UNL     1       0.348  11.289  20.974  0.00  0.00    +0.000 N 
ATOM     19  C   UNL     1       0.240  10.490  22.196  0.00  0.00    +0.000 C 
ATOM     20  C   UNL     1      -1.147  10.633  22.820  0.00  0.00    +0.000 C 
ATOM     21  C   UNL     1      -1.524  12.106  23.030  0.00  0.00    +0.000 C 
ATOM     22  C   UNL     1      -2.953  12.226  23.553  0.00  0.00    +0.000 C 
ATOM     23  C   UNL     1      -1.353  12.896  21.723  0.00  0.00    +0.000 C 
ATOM     24  C   UNL     1       0.045  12.708  21.137  0.00  0.00    +0.000 C 
ENDBRANCH  15  16
ENDBRANCH  14  15
ENDBRANCH   4  14
TORSDOF 6
ENDMDL
MODEL 9
REMARK VINA RESULT:      -6.5      3.587      7.028
REMARK  Name = 
REMARK  8 active torsions:
REMARK  status: ('A' for Active; 'I' for Inactive)
REMARK    1  A    between atoms: C_1  and  C_2
REMARK    2  A    between atoms: C_2  and  N_3
REMARK    3  A    between atoms: N_3  and  S_4
REMARK    4  A    between atoms: S_4  and  C_7
REMARK    5  A    between atoms: C_10  and  C_11
REMARK    6  A    between atoms: C_11  and  C_12
REMARK    7  A    between atoms: C_12  and  C_13
REMARK    8  A    between atoms: C_18  and  C_19
REMARK                            x       y       z     vdW  Elec       q    Type
REMARK                         _______ _______ _______ _____ _____    ______ ____
ROOT
ATOM      1  C   UNL     1       1.369   8.618  19.846  0.00  0.00    +0.000 A 
ATOM      2  C   UNL     1       2.019   7.457  20.260  0.00  0.00    +0.000 A 
ATOM      3  C   UNL     1       2.944   6.851  19.408  0.00  0.00    +0.000 A 
ATOM      4  C   UNL     1       3.215   7.390  18.139  0.00  0.00    +0.000 A 
ATOM      5  C   UNL     1       2.536   8.548  17.733  0.00  0.00    +0.000 A 
ATOM      6  C   UNL     1       1.609   9.158  18.579  0.00  0.00    +0.000 A 
ENDROOT
BRANCH   1   7
ATOM      7  S   UNL     1       0.201   9.424  20.921  0.00  0.00    +0.000 S 
ATOM      8  O   UNL     1       0.896  10.454  21.659  0.00  0.00    +0.000 OA
ATOM      9  O   UNL     1      -0.544   8.374  21.573  0.00  0.00    +0.000 OA
BRANCH   7  10
ATOM     10  N   UNL     1      -0.841  10.167  19.804  0.00  0.00    +0.000 NA
ATOM     11  H   UNL     1      -0.583   9.915  18.851  0.00  0.00    +0.000 HD
BRANCH  10  13
ATOM     12  C   UNL     1      -0.590  12.347  18.731  0.00  0.00    +0.000 C 
ATOM     13  C   UNL     1      -1.053  11.617  19.981  0.00  0.00    +0.000 C 
ENDBRANCH  10  13
ENDBRANCH   7  10
ENDBRANCH   1   7
BRANCH   4  14
ATOM     14  C   UNL     1       4.230   6.736  17.225  0.00  0.00    +0.000 C 
BRANCH  14  15
ATOM     15  C   UNL     1       3.855   5.291  16.895  0.00  0.00    +0.000 C 
BRANCH  15  16
ATOM     16  C   UNL     1       4.483   4.287  17.845  0.00  0.00    +0.000 C 
ATOM     17  O   UNL     1       5.699   4.245  18.016  0.00  0.00    +0.000 OA
ATOM     18  N   UNL     1       3.604   3.438  18.512  0.00  0.00    +0.000 N 
ATOM     19  C   UNL     1       2.158   3.369  18.290  0.00  0.00    +0.000 C 
ATOM     20  C   UNL     1       1.398   3.476  19.611  0.00  0.00    +0.000 C 
ATOM     21  C   UNL     1       1.897   2.448  20.636  0.00  0.00    +0.000 C 
ATOM     22  C   UNL     1       1.199   2.646  21.979  0.00  0.00    +0.000 C 
ATOM     23  C   UNL     1       3.423   2.546  20.795  0.00  0.00    +0.000 C 
ATOM     24  C   UNL     1       4.131   2.446  19.445  0.00  0.00    +0.000 C 
ENDBRANCH  15  16
ENDBRANCH  14  15
ENDBRANCH   4  14
TORSDOF 6
ENDMDL
