MODEL 1
REMARK VINA RESULT:      -9.1      0.000      0.000
REMARK  Name = 
REMARK  4 active torsions:
REMARK  status: ('A' for Active; 'I' for Inactive)
REMARK    1  A    between atoms: C_1  and  C_2
REMARK    2  A    between atoms: N_9  and  N_10
REMARK    3  A    between atoms: N_16  and  C_17
REMARK    4  A    between atoms: C_20  and  O_21
REMARK                            x       y       z     vdW  Elec       q    Type
REMARK                         _______ _______ _______ _____ _____    ______ ____
ROOT
ATOM      1  N   UNL     1       3.653   5.904  19.385  0.00  0.00    +0.000 NA
ATOM      2  C   UNL     1       3.189   4.698  19.241  0.00  0.00    +0.000 C 
ATOM      3  S   UNL     1       1.762   4.032  20.007  0.00  0.00    +0.000 S 
ATOM      4  C   UNL     1       2.270   2.342  19.644  0.00  0.00    +0.000 C 
ATOM      5  C   UNL     1       3.315   2.450  18.563  0.00  0.00    +0.000 C 
ATOM      6  O   UNL     1       3.638   1.486  17.877  0.00  0.00    +0.000 OA
ATOM      7  N   UNL     1       3.812   3.742  18.476  0.00  0.00    +0.000 N 
ENDROOT
BRANCH   1  16
ATOM      8  C   UNL     1      -0.766   9.594  22.981  0.00  0.00    +0.000 C 
ATOM      9  C   UNL     1      -0.125   9.615  21.623  0.00  0.00    +0.000 A 
ATOM     10  C   UNL     1      -0.463  10.591  20.655  0.00  0.00    +0.000 A 
ATOM     11  C   UNL     1       0.103  10.578  19.368  0.00  0.00    +0.000 A 
ATOM     12  C   UNL     1       1.007   9.576  19.081  0.00  0.00    +0.000 A 
ATOM     13  C   UNL     1       1.357   8.643  20.046  0.00  0.00    +0.000 A 
ATOM     14  C   UNL     1       0.814   8.628  21.315  0.00  0.00    +0.000 A 
ATOM     15  C   UNL     1       2.308   7.724  19.444  0.00  0.00    +0.000 C 
ATOM     16  N   UNL     1       2.853   6.761  20.112  0.00  0.00    +0.000 NA
ATOM     17  C   UNL     1       2.463   8.186  17.986  0.00  0.00    +0.000 C 
ATOM     18  O   UNL     1       3.144   7.698  17.116  0.00  0.00    +0.000 OA
ATOM     19  N   UNL     1       1.657   9.317  17.878  0.00  0.00    +0.000 N 
ATOM     20  H   UNL     1       1.557   9.837  17.020  0.00  0.00    +0.000 HD
ENDBRANCH   1  16
BRANCH   7  21
ATOM     21  C   UNL     1       4.826   4.063  17.541  0.00  0.00    +0.000 A 
ATOM     22  C   UNL     1       6.155   4.222  17.966  0.00  0.00    +0.000 A 
ATOM     23  C   UNL     1       7.135   4.636  17.063  0.00  0.00    +0.000 A 
ATOM     24  C   UNL     1       6.791   4.847  15.731  0.00  0.00    +0.000 A 
ATOM     25  C   UNL     1       5.491   4.638  15.288  0.00  0.00    +0.000 A 
ATOM     26  C   UNL     1       4.501   4.268  16.198  0.00  0.00    +0.000 A 
BRANCH  24  27
ATOM     27  O   UNL     1       7.709   5.281  14.822  0.00  0.00    +0.000 OA
ATOM     28  H   UNL     1       7.353   5.124  13.932  0.00  0.00    +0.000 HD
ENDBRANCH  24  27
ENDBRANCH   7  21
TORSDOF 3
ENDMDL
MODEL 2
REMARK VINA RESULT:      -8.8      0.564      1.104
REMARK  Name = 
REMARK  4 active torsions:
REMARK  status: ('A' for Active; 'I' for Inactive)
REMARK    1  A    between atoms: C_1  and  C_2
REMARK    2  A    between atoms: N_9  and  N_10
REMARK    3  A    between atoms: N_16  and  C_17
REMARK    4  A    between atoms: C_20  and  O_21
REMARK                            x       y       z     vdW  Elec       q    Type
REMARK                         _______ _______ _______ _____ _____    ______ ____
ROOT
ATOM      1  N   UNL     1       3.317   6.230  19.652  0.00  0.00    +0.000 NA
ATOM      2  C   UNL     1       2.836   5.024  19.589  0.00  0.00    +0.000 C 
ATOM      3  S   UNL     1       1.399   4.430  20.393  0.00  0.00    +0.000 S 
ATOM      4  C   UNL     1       1.884   2.713  20.149  0.00  0.00    +0.000 C 
ATOM      5  C   UNL     1       2.933   2.733  19.066  0.00  0.00    +0.000 C 
ATOM      6  O   UNL     1       3.245   1.719  18.450  0.00  0.00    +0.000 OA
ATOM      7  N   UNL     1       3.448   4.009  18.893  0.00  0.00    +0.000 N 
ENDROOT
BRANCH   1  16
ATOM      8  C   UNL     1      -1.066  10.220  22.961  0.00  0.00    +0.000 C 
ATOM      9  C   UNL     1      -0.407  10.146  21.614  0.00  0.00    +0.000 A 
ATOM     10  C   UNL     1      -0.712  11.070  20.585  0.00  0.00    +0.000 A 
ATOM     11  C   UNL     1      -0.130  10.969  19.309  0.00  0.00    +0.000 A 
ATOM     12  C   UNL     1       0.755   9.933  19.094  0.00  0.00    +0.000 A 
ATOM     13  C   UNL     1       1.073   9.052  20.117  0.00  0.00    +0.000 A 
ATOM     14  C   UNL     1       0.513   9.123  21.377  0.00  0.00    +0.000 A 
ATOM     15  C   UNL     1       2.011   8.078  19.584  0.00  0.00    +0.000 C 
ATOM     16  N   UNL     1       2.526   7.145  20.315  0.00  0.00    +0.000 NA
ATOM     17  C   UNL     1       2.194   8.449  18.104  0.00  0.00    +0.000 C 
ATOM     18  O   UNL     1       2.876   7.897  17.274  0.00  0.00    +0.000 OA
ATOM     19  N   UNL     1       1.415   9.589  17.917  0.00  0.00    +0.000 N 
ATOM     20  H   UNL     1       1.337  10.059  17.029  0.00  0.00    +0.000 HD
ENDBRANCH   1  16
BRANCH   7  21
ATOM     21  C   UNL     1       4.469   4.252  17.942  0.00  0.00    +0.000 A 
ATOM     22  C   UNL     1       4.162   4.303  16.573  0.00  0.00    +0.000 A 
ATOM     23  C   UNL     1       5.181   4.442  15.630  0.00  0.00    +0.000 A 
ATOM     24  C   UNL     1       6.497   4.571  16.062  0.00  0.00    +0.000 A 
ATOM     25  C   UNL     1       6.807   4.578  17.416  0.00  0.00    +0.000 A 
ATOM     26  C   UNL     1       5.795   4.394  18.358  0.00  0.00    +0.000 A 
BRANCH  24  27
ATOM     27  O   UNL     1       7.527   4.677  15.176  0.00  0.00    +0.000 OA
ATOM     28  H   UNL     1       7.695   5.621  15.015  0.00  0.00    +0.000 HD
ENDBRANCH  24  27
ENDBRANCH   7  21
TORSDOF 3
ENDMDL
MODEL 3
REMARK VINA RESULT:      -7.6      3.432      7.870
REMARK  Name = 
REMARK  4 active torsions:
REMARK  status: ('A' for Active; 'I' for Inactive)
REMARK    1  A    between atoms: C_1  and  C_2
REMARK    2  A    between atoms: N_9  and  N_10
REMARK    3  A    between atoms: N_16  and  C_17
REMARK    4  A    between atoms: C_20  and  O_21
REMARK                            x       y       z     vdW  Elec       q    Type
REMARK                         _______ _______ _______ _____ _____    ______ ____
ROOT
ATOM      1  N   UNL     1       1.023   9.696  20.211  0.00  0.00    +0.000 NA
ATOM      2  C   UNL     1       0.454  10.337  21.188  0.00  0.00    +0.000 C 
ATOM      3  S   UNL     1      -0.259   9.630  22.623  0.00  0.00    +0.000 S 
ATOM      4  C   UNL     1      -1.166  11.139  23.002  0.00  0.00    +0.000 C 
ATOM      5  C   UNL     1      -0.498  12.231  22.205  0.00  0.00    +0.000 C 
ATOM      6  O   UNL     1      -0.666  13.418  22.466  0.00  0.00    +0.000 OA
ATOM      7  N   UNL     1       0.292  11.701  21.195  0.00  0.00    +0.000 N 
ENDROOT
BRANCH   1  16
ATOM      8  C   UNL     1       2.273   3.196  21.720  0.00  0.00    +0.000 C 
ATOM      9  C   UNL     1       2.487   4.148  20.578  0.00  0.00    +0.000 A 
ATOM     10  C   UNL     1       3.186   3.762  19.409  0.00  0.00    +0.000 A 
ATOM     11  C   UNL     1       3.427   4.670  18.362  0.00  0.00    +0.000 A 
ATOM     12  C   UNL     1       2.954   5.957  18.515  0.00  0.00    +0.000 A 
ATOM     13  C   UNL     1       2.241   6.317  19.649  0.00  0.00    +0.000 A 
ATOM     14  C   UNL     1       1.995   5.450  20.695  0.00  0.00    +0.000 A 
ATOM     15  C   UNL     1       1.892   7.722  19.522  0.00  0.00    +0.000 C 
ATOM     16  N   UNL     1       1.186   8.340  20.410  0.00  0.00    +0.000 NA
ATOM     17  C   UNL     1       2.513   8.182  18.193  0.00  0.00    +0.000 C 
ATOM     18  O   UNL     1       2.483   9.283  17.696  0.00  0.00    +0.000 OA
ATOM     19  N   UNL     1       3.108   7.042  17.657  0.00  0.00    +0.000 N 
ATOM     20  H   UNL     1       3.602   7.044  16.779  0.00  0.00    +0.000 HD
ENDBRANCH   1  16
BRANCH   7  21
ATOM     21  C   UNL     1       0.992  12.551  20.306  0.00  0.00    +0.000 A 
ATOM     22  C   UNL     1       0.456  12.849  19.043  0.00  0.00    +0.000 A 
ATOM     23  C   UNL     1       1.193  13.605  18.129  0.00  0.00    +0.000 A 
ATOM     24  C   UNL     1       2.441  14.095  18.498  0.00  0.00    +0.000 A 
ATOM     25  C   UNL     1       2.957  13.855  19.765  0.00  0.00    +0.000 A 
ATOM     26  C   UNL     1       2.243  13.062  20.663  0.00  0.00    +0.000 A 
BRANCH  24  27
ATOM     27  O   UNL     1       3.207  14.811  17.627  0.00  0.00    +0.000 OA
ATOM     28  H   UNL     1       3.736  15.446  18.138  0.00  0.00    +0.000 HD
ENDBRANCH  24  27
ENDBRANCH   7  21
TORSDOF 3
ENDMDL
MODEL 4
REMARK VINA RESULT:      -7.1      2.586      4.727
REMARK  Name = 
REMARK  4 active torsions:
REMARK  status: ('A' for Active; 'I' for Inactive)
REMARK    1  A    between atoms: C_1  and  C_2
REMARK    2  A    between atoms: N_9  and  N_10
REMARK    3  A    between atoms: N_16  and  C_17
REMARK    4  A    between atoms: C_20  and  O_21
REMARK                            x       y       z     vdW  Elec       q    Type
REMARK                         _______ _______ _______ _____ _____    ______ ____
ROOT
ATOM      1  N   UNL     1       1.993   7.180  18.649  0.00  0.00    +0.000 NA
ATOM      2  C   UNL     1       3.034   6.614  18.113  0.00  0.00    +0.000 C 
ATOM      3  S   UNL     1       4.218   7.381  17.075  0.00  0.00    +0.000 S 
ATOM      4  C   UNL     1       4.833   5.794  16.485  0.00  0.00    +0.000 C 
ATOM      5  C   UNL     1       4.349   4.770  17.481  0.00  0.00    +0.000 C 
ATOM      6  O   UNL     1       4.844   3.650  17.548  0.00  0.00    +0.000 OA
ATOM      7  N   UNL     1       3.319   5.279  18.260  0.00  0.00    +0.000 N 
ENDROOT
BRANCH   1  16
ATOM      8  C   UNL     1       2.293  13.919  17.894  0.00  0.00    +0.000 C 
ATOM      9  C   UNL     1       1.706  12.919  18.848  0.00  0.00    +0.000 A 
ATOM     10  C   UNL     1       1.025  13.320  20.022  0.00  0.00    +0.000 A 
ATOM     11  C   UNL     1       0.520  12.380  20.938  0.00  0.00    +0.000 A 
ATOM     12  C   UNL     1       0.711  11.045  20.649  0.00  0.00    +0.000 A 
ATOM     13  C   UNL     1       1.350  10.660  19.480  0.00  0.00    +0.000 A 
ATOM     14  C   UNL     1       1.861  11.559  18.566  0.00  0.00    +0.000 A 
ATOM     15  C   UNL     1       1.406   9.208  19.466  0.00  0.00    +0.000 C 
ATOM     16  N   UNL     1       1.910   8.546  18.478  0.00  0.00    +0.000 NA
ATOM     17  C   UNL     1       0.760   8.758  20.787  0.00  0.00    +0.000 C 
ATOM     18  O   UNL     1       0.609   7.633  21.200  0.00  0.00    +0.000 OA
ATOM     19  N   UNL     1       0.357   9.936  21.412  0.00  0.00    +0.000 N 
ATOM     20  H   UNL     1      -0.099   9.950  22.311  0.00  0.00    +0.000 HD
ENDBRANCH   1  16
BRANCH   7  21
ATOM     21  C   UNL     1       2.696   4.475  19.244  0.00  0.00    +0.000 A 
ATOM     22  C   UNL     1       1.656   3.601  18.889  0.00  0.00    +0.000 A 
ATOM     23  C   UNL     1       0.975   2.885  19.874  0.00  0.00    +0.000 A 
ATOM     24  C   UNL     1       1.366   3.011  21.203  0.00  0.00    +0.000 A 
ATOM     25  C   UNL     1       2.431   3.828  21.560  0.00  0.00    +0.000 A 
ATOM     26  C   UNL     1       3.082   4.581  20.583  0.00  0.00    +0.000 A 
BRANCH  24  27
ATOM     27  O   UNL     1       0.709   2.354  22.200  0.00  0.00    +0.000 OA
ATOM     28  H   UNL     1       0.323   1.544  21.828  0.00  0.00    +0.000 HD
ENDBRANCH  24  27
ENDBRANCH   7  21
TORSDOF 3
ENDMDL
MODEL 5
REMARK VINA RESULT:      -7.0      3.891      9.145
REMARK  Name = 
REMARK  4 active torsions:
REMARK  status: ('A' for Active; 'I' for Inactive)
REMARK    1  A    between atoms: C_1  and  C_2
REMARK    2  A    between atoms: N_9  and  N_10
REMARK    3  A    between atoms: N_16  and  C_17
REMARK    4  A    between atoms: C_20  and  O_21
REMARK                            x       y       z     vdW  Elec       q    Type
REMARK                         _______ _______ _______ _____ _____    ______ ____
ROOT
ATOM      1  N   UNL     1       0.613  10.357  18.579  0.00  0.00    +0.000 NA
ATOM      2  C   UNL     1       0.880  11.628  18.515  0.00  0.00    +0.000 C 
ATOM      3  S   UNL     1       2.427  12.351  18.129  0.00  0.00    +0.000 S 
ATOM      4  C   UNL     1       1.928  13.948  18.796  0.00  0.00    +0.000 C 
ATOM      5  C   UNL     1       0.423  13.906  18.878  0.00  0.00    +0.000 C 
ATOM      6  O   UNL     1      -0.247  14.927  18.994  0.00  0.00    +0.000 OA
ATOM      7  N   UNL     1      -0.046  12.602  18.801  0.00  0.00    +0.000 N 
ENDROOT
BRANCH   1  16
ATOM      8  C   UNL     1       5.171   6.003  16.058  0.00  0.00    +0.000 C 
ATOM      9  C   UNL     1       4.398   6.214  17.328  0.00  0.00    +0.000 A 
ATOM     10  C   UNL     1       4.481   5.303  18.409  0.00  0.00    +0.000 A 
ATOM     11  C   UNL     1       3.719   5.478  19.578  0.00  0.00    +0.000 A 
ATOM     12  C   UNL     1       2.885   6.575  19.636  0.00  0.00    +0.000 A 
ATOM     13  C   UNL     1       2.835   7.480  18.586  0.00  0.00    +0.000 A 
ATOM     14  C   UNL     1       3.567   7.332  17.424  0.00  0.00    +0.000 A 
ATOM     15  C   UNL     1       1.869   8.507  18.936  0.00  0.00    +0.000 C 
ATOM     16  N   UNL     1       1.630   9.520  18.169  0.00  0.00    +0.000 NA
ATOM     17  C   UNL     1       1.308   8.096  20.307  0.00  0.00    +0.000 C 
ATOM     18  O   UNL     1       0.466   8.656  20.968  0.00  0.00    +0.000 OA
ATOM     19  N   UNL     1       2.000   6.936  20.648  0.00  0.00    +0.000 N 
ATOM     20  H   UNL     1       1.835   6.433  21.505  0.00  0.00    +0.000 HD
ENDBRANCH   1  16
BRANCH   7  21
ATOM     21  C   UNL     1      -1.432  12.329  18.885  0.00  0.00    +0.000 A 
ATOM     22  C   UNL     1      -2.114  11.787  17.783  0.00  0.00    +0.000 A 
ATOM     23  C   UNL     1      -3.498  11.612  17.833  0.00  0.00    +0.000 A 
ATOM     24  C   UNL     1      -4.186  11.937  18.997  0.00  0.00    +0.000 A 
ATOM     25  C   UNL     1      -3.514  12.420  20.113  0.00  0.00    +0.000 A 
ATOM     26  C   UNL     1      -2.138  12.639  20.050  0.00  0.00    +0.000 A 
BRANCH  24  27
ATOM     27  O   UNL     1      -5.541  11.811  19.078  0.00  0.00    +0.000 OA
ATOM     28  H   UNL     1      -5.766  10.871  18.979  0.00  0.00    +0.000 HD
ENDBRANCH  24  27
ENDBRANCH   7  21
TORSDOF 3
ENDMDL
MODEL 6
REMARK VINA RESULT:      -7.0      5.051      7.979
REMARK  Name = 
REMARK  4 active torsions:
REMARK  status: ('A' for Active; 'I' for Inactive)
REMARK    1  A    between atoms: C_1  and  C_2
REMARK    2  A    between atoms: N_9  and  N_10
REMARK    3  A    between atoms: N_16  and  C_17
REMARK    4  A    between atoms: C_20  and  O_21
REMARK                            x       y       z     vdW  Elec       q    Type
REMARK                         _______ _______ _______ _____ _____    ______ ____
ROOT
ATOM      1  N   UNL     1      -1.553  11.190  19.132  0.00  0.00    +0.000 NA
ATOM      2  C   UNL     1      -0.555  12.021  19.077  0.00  0.00    +0.000 C 
ATOM      3  S   UNL     1      -0.642  13.764  19.213  0.00  0.00    +0.000 S 
ATOM      4  C   UNL     1       1.004  13.972  18.511  0.00  0.00    +0.000 C 
ATOM      5  C   UNL     1       1.672  12.625  18.624  0.00  0.00    +0.000 C 
ATOM      6  O   UNL     1       2.888  12.495  18.526  0.00  0.00    +0.000 OA
ATOM      7  N   UNL     1       0.739  11.622  18.847  0.00  0.00    +0.000 N 
ENDROOT
BRANCH   1  16
ATOM      8  C   UNL     1      -7.650  13.371  21.172  0.00  0.00    +0.000 C 
ATOM      9  C   UNL     1      -6.976  12.940  19.902  0.00  0.00    +0.000 A 
ATOM     10  C   UNL     1      -7.682  12.850  18.678  0.00  0.00    +0.000 A 
ATOM     11  C   UNL     1      -7.060  12.400  17.500  0.00  0.00    +0.000 A 
ATOM     12  C   UNL     1      -5.729  12.048  17.579  0.00  0.00    +0.000 A 
ATOM     13  C   UNL     1      -5.036  12.170  18.774  0.00  0.00    +0.000 A 
ATOM     14  C   UNL     1      -5.621  12.603  19.947  0.00  0.00    +0.000 A 
ATOM     15  C   UNL     1      -3.675  11.717  18.542  0.00  0.00    +0.000 C 
ATOM     16  N   UNL     1      -2.770  11.750  19.464  0.00  0.00    +0.000 NA
ATOM     17  C   UNL     1      -3.635  11.267  17.072  0.00  0.00    +0.000 C 
ATOM     18  O   UNL     1      -2.703  10.805  16.457  0.00  0.00    +0.000 OA
ATOM     19  N   UNL     1      -4.911  11.528  16.579  0.00  0.00    +0.000 N 
ATOM     20  H   UNL     1      -5.183  11.327  15.630  0.00  0.00    +0.000 HD
ENDBRANCH   1  16
BRANCH   7  21
ATOM     21  C   UNL     1       1.147  10.271  18.959  0.00  0.00    +0.000 A 
ATOM     22  C   UNL     1       1.085   9.614  20.198  0.00  0.00    +0.000 A 
ATOM     23  C   UNL     1       1.580   8.315  20.329  0.00  0.00    +0.000 A 
ATOM     24  C   UNL     1       2.094   7.665  19.211  0.00  0.00    +0.000 A 
ATOM     25  C   UNL     1       2.108   8.285  17.968  0.00  0.00    +0.000 A 
ATOM     26  C   UNL     1       1.656   9.598  17.845  0.00  0.00    +0.000 A 
BRANCH  24  27
ATOM     27  O   UNL     1       2.616   6.409  19.300  0.00  0.00    +0.000 OA
ATOM     28  H   UNL     1       2.049   5.807  18.789  0.00  0.00    +0.000 HD
ENDBRANCH  24  27
ENDBRANCH   7  21
TORSDOF 3
ENDMDL
MODEL 7
REMARK VINA RESULT:      -6.9      3.939      9.115
REMARK  Name = 
REMARK  4 active torsions:
REMARK  status: ('A' for Active; 'I' for Inactive)
REMARK    1  A    between atoms: C_1  and  C_2
REMARK    2  A    between atoms: N_9  and  N_10
REMARK    3  A    between atoms: N_16  and  C_17
REMARK    4  A    between atoms: C_20  and  O_21
REMARK                            x       y       z     vdW  Elec       q    Type
REMARK                         _______ _______ _______ _____ _____    ______ ____
ROOT
ATOM      1  N   UNL     1       0.573  11.094  19.410  0.00  0.00    +0.000 NA
ATOM      2  C   UNL     1      -0.642  11.019  18.955  0.00  0.00    +0.000 C 
ATOM      3  S   UNL     1      -1.203  10.006  17.641  0.00  0.00    +0.000 S 
ATOM      4  C   UNL     1      -2.718  10.963  17.456  0.00  0.00    +0.000 C 
ATOM      5  C   UNL     1      -2.867  11.748  18.734  0.00  0.00    +0.000 C 
ATOM      6  O   UNL     1      -3.935  12.256  19.061  0.00  0.00    +0.000 OA
ATOM      7  N   UNL     1      -1.670  11.793  19.436  0.00  0.00    +0.000 N 
ENDROOT
BRANCH   1  16
ATOM      8  C   UNL     1       4.457   6.495  16.270  0.00  0.00    +0.000 C 
ATOM      9  C   UNL     1       3.724   6.650  17.572  0.00  0.00    +0.000 A 
ATOM     10  C   UNL     1       3.677   5.606  18.527  0.00  0.00    +0.000 A 
ATOM     11  C   UNL     1       2.950   5.735  19.724  0.00  0.00    +0.000 A 
ATOM     12  C   UNL     1       2.281   6.924  19.936  0.00  0.00    +0.000 A 
ATOM     13  C   UNL     1       2.360   7.953  19.010  0.00  0.00    +0.000 A 
ATOM     14  C   UNL     1       3.061   7.853  17.825  0.00  0.00    +0.000 A 
ATOM     15  C   UNL     1       1.552   9.054  19.506  0.00  0.00    +0.000 C 
ATOM     16  N   UNL     1       1.459  10.180  18.878  0.00  0.00    +0.000 NA
ATOM     17  C   UNL     1       0.940   8.555  20.825  0.00  0.00    +0.000 C 
ATOM     18  O   UNL     1       0.188   9.139  21.568  0.00  0.00    +0.000 OA
ATOM     19  N   UNL     1       1.458   7.275  21.003  0.00  0.00    +0.000 N 
ATOM     20  H   UNL     1       1.225   6.694  21.793  0.00  0.00    +0.000 HD
ENDBRANCH   1  16
BRANCH   7  21
ATOM     21  C   UNL     1      -1.577  12.503  20.656  0.00  0.00    +0.000 A 
ATOM     22  C   UNL     1      -1.237  13.865  20.657  0.00  0.00    +0.000 A 
ATOM     23  C   UNL     1      -1.046  14.540  21.864  0.00  0.00    +0.000 A 
ATOM     24  C   UNL     1      -1.239  13.861  23.063  0.00  0.00    +0.000 A 
ATOM     25  C   UNL     1      -1.631  12.529  23.074  0.00  0.00    +0.000 A 
ATOM     26  C   UNL     1      -1.777  11.841  21.870  0.00  0.00    +0.000 A 
BRANCH  24  27
ATOM     27  O   UNL     1      -1.034  14.472  24.264  0.00  0.00    +0.000 OA
ATOM     28  H   UNL     1      -1.841  14.959  24.500  0.00  0.00    +0.000 HD
ENDBRANCH  24  27
ENDBRANCH   7  21
TORSDOF 3
ENDMDL
MODEL 8
REMARK VINA RESULT:      -6.8      7.820     12.310
REMARK  Name = 
REMARK  4 active torsions:
REMARK  status: ('A' for Active; 'I' for Inactive)
REMARK    1  A    between atoms: C_1  and  C_2
REMARK    2  A    between atoms: N_9  and  N_10
REMARK    3  A    between atoms: N_16  and  C_17
REMARK    4  A    between atoms: C_20  and  O_21
REMARK                            x       y       z     vdW  Elec       q    Type
REMARK                         _______ _______ _______ _____ _____    ______ ____
ROOT
ATOM      1  N   UNL     1      -4.634  13.678  20.994  0.00  0.00    +0.000 NA
ATOM      2  C   UNL     1      -5.623  13.169  21.667  0.00  0.00    +0.000 C 
ATOM      3  S   UNL     1      -6.722  11.919  21.122  0.00  0.00    +0.000 S 
ATOM      4  C   UNL     1      -7.916  12.305  22.414  0.00  0.00    +0.000 C 
ATOM      5  C   UNL     1      -7.160  13.105  23.445  0.00  0.00    +0.000 C 
ATOM      6  O   UNL     1      -7.588  13.259  24.585  0.00  0.00    +0.000 OA
ATOM      7  N   UNL     1      -5.974  13.600  22.924  0.00  0.00    +0.000 N 
ENDROOT
BRANCH   1  16
ATOM      8  C   UNL     1      -3.825  10.197  15.222  0.00  0.00    +0.000 C 
ATOM      9  C   UNL     1      -3.049  10.502  16.471  0.00  0.00    +0.000 A 
ATOM     10  C   UNL     1      -1.772   9.939  16.709  0.00  0.00    +0.000 A 
ATOM     11  C   UNL     1      -1.068  10.188  17.901  0.00  0.00    +0.000 A 
ATOM     12  C   UNL     1      -1.670  11.007  18.835  0.00  0.00    +0.000 A 
ATOM     13  C   UNL     1      -2.907  11.580  18.579  0.00  0.00    +0.000 A 
ATOM     14  C   UNL     1      -3.622  11.350  17.422  0.00  0.00    +0.000 A 
ATOM     15  C   UNL     1      -3.274  12.370  19.742  0.00  0.00    +0.000 C 
ATOM     16  N   UNL     1      -4.363  13.064  19.789  0.00  0.00    +0.000 NA
ATOM     17  C   UNL     1      -2.131  12.176  20.752  0.00  0.00    +0.000 C 
ATOM     18  O   UNL     1      -2.028  12.638  21.863  0.00  0.00    +0.000 OA
ATOM     19  N   UNL     1      -1.209  11.359  20.101  0.00  0.00    +0.000 N 
ATOM     20  H   UNL     1      -0.348  11.056  20.529  0.00  0.00    +0.000 HD
ENDBRANCH   1  16
BRANCH   7  21
ATOM     21  C   UNL     1      -5.118  14.403  23.715  0.00  0.00    +0.000 A 
ATOM     22  C   UNL     1      -5.358  15.781  23.840  0.00  0.00    +0.000 A 
ATOM     23  C   UNL     1      -4.458  16.589  24.537  0.00  0.00    +0.000 A 
ATOM     24  C   UNL     1      -3.348  16.010  25.142  0.00  0.00    +0.000 A 
ATOM     25  C   UNL     1      -3.130  14.639  25.073  0.00  0.00    +0.000 A 
ATOM     26  C   UNL     1      -4.004  13.837  24.338  0.00  0.00    +0.000 A 
BRANCH  24  27
ATOM     27  O   UNL     1      -2.428  16.765  25.805  0.00  0.00    +0.000 OA
ATOM     28  H   UNL     1      -2.671  16.784  26.746  0.00  0.00    +0.000 HD
ENDBRANCH  24  27
ENDBRANCH   7  21
TORSDOF 3
ENDMDL
MODEL 9
REMARK VINA RESULT:      -6.7      3.724      8.911
REMARK  Name = 
REMARK  4 active torsions:
REMARK  status: ('A' for Active; 'I' for Inactive)
REMARK    1  A    between atoms: C_1  and  C_2
REMARK    2  A    between atoms: N_9  and  N_10
REMARK    3  A    between atoms: N_16  and  C_17
REMARK    4  A    between atoms: C_20  and  O_21
REMARK                            x       y       z     vdW  Elec       q    Type
REMARK                         _______ _______ _______ _____ _____    ______ ____
ROOT
ATOM      1  N   UNL     1       0.967  10.687  19.413  0.00  0.00    +0.000 NA
ATOM      2  C   UNL     1      -0.245  10.696  18.941  0.00  0.00    +0.000 C 
ATOM      3  S   UNL     1      -0.853   9.732  17.612  0.00  0.00    +0.000 S 
ATOM      4  C   UNL     1      -2.299  10.787  17.415  0.00  0.00    +0.000 C 
ATOM      5  C   UNL     1      -2.414  11.571  18.698  0.00  0.00    +0.000 C 
ATOM      6  O   UNL     1      -3.451  12.144  19.015  0.00  0.00    +0.000 OA
ATOM      7  N   UNL     1      -1.227  11.531  19.415  0.00  0.00    +0.000 N 
ENDROOT
BRANCH   1  16
ATOM      8  C   UNL     1       4.572   5.853  16.297  0.00  0.00    +0.000 C 
ATOM      9  C   UNL     1       3.863   6.062  17.604  0.00  0.00    +0.000 A 
ATOM     10  C   UNL     1       3.771   5.034  18.573  0.00  0.00    +0.000 A 
ATOM     11  C   UNL     1       3.064   5.217  19.775  0.00  0.00    +0.000 A 
ATOM     12  C   UNL     1       2.461   6.441  19.978  0.00  0.00    +0.000 A 
ATOM     13  C   UNL     1       2.584   7.453  19.037  0.00  0.00    +0.000 A 
ATOM     14  C   UNL     1       3.266   7.301  17.847  0.00  0.00    +0.000 A 
ATOM     15  C   UNL     1       1.839   8.601  19.526  0.00  0.00    +0.000 C 
ATOM     16  N   UNL     1       1.798   9.722  18.885  0.00  0.00    +0.000 NA
ATOM     17  C   UNL     1       1.215   8.152  20.858  0.00  0.00    +0.000 C 
ATOM     18  O   UNL     1       0.503   8.784  21.601  0.00  0.00    +0.000 OA
ATOM     19  N   UNL     1       1.669   6.848  21.048  0.00  0.00    +0.000 N 
ATOM     20  H   UNL     1       1.414   6.291  21.848  0.00  0.00    +0.000 HD
ENDBRANCH   1  16
BRANCH   7  21
ATOM     21  C   UNL     1      -1.104  12.225  20.644  0.00  0.00    +0.000 A 
ATOM     22  C   UNL     1      -1.441  11.591  21.850  0.00  0.00    +0.000 A 
ATOM     23  C   UNL     1      -1.415  12.305  23.049  0.00  0.00    +0.000 A 
ATOM     24  C   UNL     1      -1.011  13.636  23.041  0.00  0.00    +0.000 A 
ATOM     25  C   UNL     1      -0.621  14.258  21.862  0.00  0.00    +0.000 A 
ATOM     26  C   UNL     1      -0.690  13.559  20.657  0.00  0.00    +0.000 A 
BRANCH  24  27
ATOM     27  O   UNL     1      -1.001  14.381  24.183  0.00  0.00    +0.000 OA
ATOM     28  H   UNL     1      -1.855  14.261  24.632  0.00  0.00    +0.000 HD
ENDBRANCH  24  27
ENDBRANCH   7  21
TORSDOF 3
ENDMDL
