MODEL 1
REMARK VINA RESULT:      -8.1      0.000      0.000
REMARK  Name = 
REMARK  5 active torsions:
REMARK  status: ('A' for Active; 'I' for Inactive)
REMARK    1  A    between atoms: N_3  and  C_4
REMARK    2  A    between atoms: N_12  and  C_13
REMARK    3  A    between atoms: N_12  and  C_19
REMARK    4  A    between atoms: C_13  and  C_14
REMARK    5  A    between atoms: C_19  and  C_20
REMARK                            x       y       z     vdW  Elec       q    Type
REMARK                         _______ _______ _______ _____ _____    ______ ____
ROOT
ATOM      1  O   UNL     1       5.048   3.072  17.107  0.00  0.00    +0.000 OA
ATOM      2  C   UNL     1       4.738   4.247  16.915  0.00  0.00    +0.000 C 
ATOM      3  N   UNL     1       3.677   4.866  17.537  0.00  0.00    +0.000 N 
ATOM      4  N   UNL     1       5.432   5.042  15.996  0.00  0.00    +0.000 N 
ATOM      5  H   UNL     1       3.312   5.682  17.060  0.00  0.00    +0.000 HD
ENDROOT
BRANCH   3   6
ATOM      6  C   UNL     1       2.825   4.280  18.499  0.00  0.00    +0.000 A 
ATOM      7  C   UNL     1       2.974   4.470  19.876  0.00  0.00    +0.000 A 
ATOM      8  C   UNL     1       2.137   3.800  20.766  0.00  0.00    +0.000 A 
ATOM      9  F   UNL     1       2.299   3.981  22.083  0.00  0.00    +0.000 F 
ATOM     10  C   UNL     1       1.145   2.944  20.315  0.00  0.00    +0.000 A 
ATOM     11  C   UNL     1       0.975   2.789  18.949  0.00  0.00    +0.000 A 
ATOM     12  F   UNL     1       0.020   1.969  18.493  0.00  0.00    +0.000 F 
ATOM     13  C   UNL     1       1.792   3.459  18.037  0.00  0.00    +0.000 A 
ENDBRANCH   3   6
BRANCH   4  14
ATOM     14  C   UNL     1       6.522   4.368  15.290  0.00  0.00    +0.000 C 
BRANCH  14  15
ATOM     15  C   UNL     1       6.159   4.022  13.889  0.00  0.00    +0.000 A 
ATOM     16  C   UNL     1       4.986   3.596  13.300  0.00  0.00    +0.000 A 
ATOM     17  C   UNL     1       5.291   3.334  11.942  0.00  0.00    +0.000 A 
ATOM     18  C   UNL     1       6.628   3.617  11.790  0.00  0.00    +0.000 A 
ATOM     19  O   UNL     1       7.164   4.035  12.965  0.00  0.00    +0.000 OA
ENDBRANCH  14  15
ENDBRANCH   4  14
BRANCH   4  20
ATOM     20  C   UNL     1       5.575   6.488  16.199  0.00  0.00    +0.000 C 
BRANCH  20  21
ATOM     21  C   UNL     1       6.611   6.814  17.219  0.00  0.00    +0.000 A 
ATOM     22  C   UNL     1       7.498   7.856  17.383  0.00  0.00    +0.000 A 
ATOM     23  C   UNL     1       8.298   7.525  18.507  0.00  0.00    +0.000 A 
ATOM     24  C   UNL     1       7.835   6.318  18.968  0.00  0.00    +0.000 A 
ATOM     25  O   UNL     1       6.807   5.878  18.199  0.00  0.00    +0.000 OA
ENDBRANCH  20  21
ENDBRANCH   4  20
TORSDOF 5
ENDMDL
MODEL 2
REMARK VINA RESULT:      -8.0      0.983      1.230
REMARK  Name = 
REMARK  5 active torsions:
REMARK  status: ('A' for Active; 'I' for Inactive)
REMARK    1  A    between atoms: N_3  and  C_4
REMARK    2  A    between atoms: N_12  and  C_13
REMARK    3  A    between atoms: N_12  and  C_19
REMARK    4  A    between atoms: C_13  and  C_14
REMARK    5  A    between atoms: C_19  and  C_20
REMARK                            x       y       z     vdW  Elec       q    Type
REMARK                         _______ _______ _______ _____ _____    ______ ____
ROOT
ATOM      1  O   UNL     1       4.910   2.843  17.217  0.00  0.00    +0.000 OA
ATOM      2  C   UNL     1       4.671   4.005  16.892  0.00  0.00    +0.000 C 
ATOM      3  N   UNL     1       3.665   4.761  17.451  0.00  0.00    +0.000 N 
ATOM      4  N   UNL     1       5.395   4.640  15.877  0.00  0.00    +0.000 N 
ATOM      5  H   UNL     1       3.343   5.538  16.886  0.00  0.00    +0.000 HD
ENDROOT
BRANCH   3   6
ATOM      6  C   UNL     1       2.798   4.349  18.487  0.00  0.00    +0.000 A 
ATOM      7  C   UNL     1       2.963   4.725  19.823  0.00  0.00    +0.000 A 
ATOM      8  C   UNL     1       2.107   4.218  20.799  0.00  0.00    +0.000 A 
ATOM      9  F   UNL     1       2.284   4.577  22.078  0.00  0.00    +0.000 F 
ATOM     10  C   UNL     1       1.080   3.346  20.474  0.00  0.00    +0.000 A 
ATOM     11  C   UNL     1       0.897   3.007  19.143  0.00  0.00    +0.000 A 
ATOM     12  F   UNL     1      -0.092   2.168  18.808  0.00  0.00    +0.000 F 
ATOM     13  C   UNL     1       1.732   3.511  18.146  0.00  0.00    +0.000 A 
ENDBRANCH   3   6
BRANCH   4  14
ATOM     14  C   UNL     1       6.424   3.818  15.240  0.00  0.00    +0.000 C 
BRANCH  14  15
ATOM     15  C   UNL     1       6.844   4.359  13.919  0.00  0.00    +0.000 A 
ATOM     16  C   UNL     1       6.509   4.032  12.621  0.00  0.00    +0.000 A 
ATOM     17  C   UNL     1       7.316   4.840  11.783  0.00  0.00    +0.000 A 
ATOM     18  C   UNL     1       8.089   5.607  12.623  0.00  0.00    +0.000 A 
ATOM     19  O   UNL     1       7.811   5.323  13.920  0.00  0.00    +0.000 OA
ENDBRANCH  14  15
ENDBRANCH   4  14
BRANCH   4  20
ATOM     20  C   UNL     1       5.635   6.087  15.906  0.00  0.00    +0.000 C 
BRANCH  20  21
ATOM     21  C   UNL     1       6.647   6.470  16.929  0.00  0.00    +0.000 A 
ATOM     22  C   UNL     1       7.196   5.830  18.020  0.00  0.00    +0.000 A 
ATOM     23  C   UNL     1       8.035   6.778  18.659  0.00  0.00    +0.000 A 
ATOM     24  C   UNL     1       7.962   7.925  17.908  0.00  0.00    +0.000 A 
ATOM     25  O   UNL     1       7.129   7.750  16.852  0.00  0.00    +0.000 OA
ENDBRANCH  20  21
ENDBRANCH   4  20
TORSDOF 5
ENDMDL
MODEL 3
REMARK VINA RESULT:      -8.0      0.902      1.211
REMARK  Name = 
REMARK  5 active torsions:
REMARK  status: ('A' for Active; 'I' for Inactive)
REMARK    1  A    between atoms: N_3  and  C_4
REMARK    2  A    between atoms: N_12  and  C_13
REMARK    3  A    between atoms: N_12  and  C_19
REMARK    4  A    between atoms: C_13  and  C_14
REMARK    5  A    between atoms: C_19  and  C_20
REMARK                            x       y       z     vdW  Elec       q    Type
REMARK                         _______ _______ _______ _____ _____    ______ ____
ROOT
ATOM      1  O   UNL     1       5.367   3.244  17.507  0.00  0.00    +0.000 OA
ATOM      2  C   UNL     1       4.968   4.367  17.203  0.00  0.00    +0.000 C 
ATOM      3  N   UNL     1       3.793   4.910  17.674  0.00  0.00    +0.000 N 
ATOM      4  N   UNL     1       5.675   5.173  16.304  0.00  0.00    +0.000 N 
ATOM      5  H   UNL     1       3.403   5.655  17.106  0.00  0.00    +0.000 HD
ENDROOT
BRANCH   3   6
ATOM      6  C   UNL     1       2.905   4.298  18.586  0.00  0.00    +0.000 A 
ATOM      7  C   UNL     1       3.013   4.434  19.972  0.00  0.00    +0.000 A 
ATOM      8  C   UNL     1       2.141   3.741  20.810  0.00  0.00    +0.000 A 
ATOM      9  F   UNL     1       2.264   3.870  22.138  0.00  0.00    +0.000 F 
ATOM     10  C   UNL     1       1.154   2.915  20.296  0.00  0.00    +0.000 A 
ATOM     11  C   UNL     1       1.026   2.815  18.920  0.00  0.00    +0.000 A 
ATOM     12  F   UNL     1       0.076   2.024  18.403  0.00  0.00    +0.000 F 
ATOM     13  C   UNL     1       1.878   3.508  18.061  0.00  0.00    +0.000 A 
ENDBRANCH   3   6
BRANCH   4  14
ATOM     14  C   UNL     1       6.892   4.573  15.758  0.00  0.00    +0.000 C 
BRANCH  14  15
ATOM     15  C   UNL     1       6.799   4.341  14.290  0.00  0.00    +0.000 A 
ATOM     16  C   UNL     1       7.520   4.822  13.216  0.00  0.00    +0.000 A 
ATOM     17  C   UNL     1       6.892   4.313  12.053  0.00  0.00    +0.000 A 
ATOM     18  C   UNL     1       5.831   3.557  12.491  0.00  0.00    +0.000 A 
ATOM     19  O   UNL     1       5.766   3.567  13.847  0.00  0.00    +0.000 OA
ENDBRANCH  14  15
ENDBRANCH   4  14
BRANCH   4  20
ATOM     20  C   UNL     1       5.657   6.636  16.419  0.00  0.00    +0.000 C 
BRANCH  20  21
ATOM     21  C   UNL     1       6.789   7.150  17.238  0.00  0.00    +0.000 A 
ATOM     22  C   UNL     1       7.548   6.624  18.262  0.00  0.00    +0.000 A 
ATOM     23  C   UNL     1       8.408   7.664  18.696  0.00  0.00    +0.000 A 
ATOM     24  C   UNL     1       8.136   8.748  17.899  0.00  0.00    +0.000 A 
ATOM     25  O   UNL     1       7.160   8.448  17.006  0.00  0.00    +0.000 OA
ENDBRANCH  20  21
ENDBRANCH   4  20
TORSDOF 5
ENDMDL
MODEL 4
REMARK VINA RESULT:      -7.9      0.802      1.878
REMARK  Name = 
REMARK  5 active torsions:
REMARK  status: ('A' for Active; 'I' for Inactive)
REMARK    1  A    between atoms: N_3  and  C_4
REMARK    2  A    between atoms: N_12  and  C_13
REMARK    3  A    between atoms: N_12  and  C_19
REMARK    4  A    between atoms: C_13  and  C_14
REMARK    5  A    between atoms: C_19  and  C_20
REMARK                            x       y       z     vdW  Elec       q    Type
REMARK                         _______ _______ _______ _____ _____    ______ ____
ROOT
ATOM      1  O   UNL     1       4.972   3.228  17.005  0.00  0.00    +0.000 OA
ATOM      2  C   UNL     1       4.723   4.409  16.766  0.00  0.00    +0.000 C 
ATOM      3  N   UNL     1       3.655   5.087  17.310  0.00  0.00    +0.000 N 
ATOM      4  N   UNL     1       5.501   5.150  15.870  0.00  0.00    +0.000 N 
ATOM      5  H   UNL     1       3.353   5.904  16.792  0.00  0.00    +0.000 HD
ENDROOT
BRANCH   3   6
ATOM      6  C   UNL     1       2.726   4.563  18.236  0.00  0.00    +0.000 A 
ATOM      7  C   UNL     1       1.884   3.484  17.951  0.00  0.00    +0.000 A 
ATOM      8  C   UNL     1       0.942   3.069  18.892  0.00  0.00    +0.000 A 
ATOM      9  F   UNL     1       0.133   2.042  18.602  0.00  0.00    +0.000 F 
ATOM     10  C   UNL     1       0.822   3.704  20.118  0.00  0.00    +0.000 A 
ATOM     11  C   UNL     1       1.686   4.747  20.410  0.00  0.00    +0.000 A 
ATOM     12  F   UNL     1       1.589   5.371  21.591  0.00  0.00    +0.000 F 
ATOM     13  C   UNL     1       2.645   5.172  19.491  0.00  0.00    +0.000 A 
ENDBRANCH   3   6
BRANCH   4  14
ATOM     14  C   UNL     1       6.599   4.413  15.245  0.00  0.00    +0.000 C 
BRANCH  14  15
ATOM     15  C   UNL     1       6.303   4.044  13.833  0.00  0.00    +0.000 A 
ATOM     16  C   UNL     1       5.238   3.402  13.234  0.00  0.00    +0.000 A 
ATOM     17  C   UNL     1       5.578   3.254  11.868  0.00  0.00    +0.000 A 
ATOM     18  C   UNL     1       6.825   3.813  11.721  0.00  0.00    +0.000 A 
ATOM     19  O   UNL     1       7.274   4.296  12.908  0.00  0.00    +0.000 OA
ENDBRANCH  14  15
ENDBRANCH   4  14
BRANCH   4  20
ATOM     20  C   UNL     1       5.694   6.594  16.045  0.00  0.00    +0.000 C 
BRANCH  20  21
ATOM     21  C   UNL     1       6.759   6.903  17.038  0.00  0.00    +0.000 A 
ATOM     22  C   UNL     1       7.349   6.194  18.063  0.00  0.00    +0.000 A 
ATOM     23  C   UNL     1       8.232   7.093  18.714  0.00  0.00    +0.000 A 
ATOM     24  C   UNL     1       8.142   8.283  18.034  0.00  0.00    +0.000 A 
ATOM     25  O   UNL     1       7.256   8.179  17.011  0.00  0.00    +0.000 OA
ENDBRANCH  20  21
ENDBRANCH   4  20
TORSDOF 5
ENDMDL
MODEL 5
REMARK VINA RESULT:      -7.8      1.315      4.555
REMARK  Name = 
REMARK  5 active torsions:
REMARK  status: ('A' for Active; 'I' for Inactive)
REMARK    1  A    between atoms: N_3  and  C_4
REMARK    2  A    between atoms: N_12  and  C_13
REMARK    3  A    between atoms: N_12  and  C_19
REMARK    4  A    between atoms: C_13  and  C_14
REMARK    5  A    between atoms: C_19  and  C_20
REMARK                            x       y       z     vdW  Elec       q    Type
REMARK                         _______ _______ _______ _____ _____    ______ ____
ROOT
ATOM      1  O   UNL     1       3.968   5.855  17.696  0.00  0.00    +0.000 OA
ATOM      2  C   UNL     1       4.758   4.921  17.571  0.00  0.00    +0.000 C 
ATOM      3  N   UNL     1       4.546   3.668  18.101  0.00  0.00    +0.000 N 
ATOM      4  N   UNL     1       5.978   5.083  16.904  0.00  0.00    +0.000 N 
ATOM      5  H   UNL     1       5.381   3.110  18.239  0.00  0.00    +0.000 HD
ENDROOT
BRANCH   3   6
ATOM      6  C   UNL     1       3.400   3.254  18.815  0.00  0.00    +0.000 A 
ATOM      7  C   UNL     1       2.274   2.696  18.205  0.00  0.00    +0.000 A 
ATOM      8  C   UNL     1       1.153   2.379  18.970  0.00  0.00    +0.000 A 
ATOM      9  F   UNL     1       0.075   1.856  18.371  0.00  0.00    +0.000 F 
ATOM     10  C   UNL     1       1.129   2.600  20.338  0.00  0.00    +0.000 A 
ATOM     11  C   UNL     1       2.263   3.117  20.944  0.00  0.00    +0.000 A 
ATOM     12  F   UNL     1       2.262   3.336  22.265  0.00  0.00    +0.000 F 
ATOM     13  C   UNL     1       3.402   3.431  20.202  0.00  0.00    +0.000 A 
ENDBRANCH   3   6
BRANCH   4  14
ATOM     14  C   UNL     1       6.231   6.431  16.393  0.00  0.00    +0.000 C 
BRANCH  14  15
ATOM     15  C   UNL     1       7.171   7.196  17.256  0.00  0.00    +0.000 A 
ATOM     16  C   UNL     1       7.909   6.856  18.372  0.00  0.00    +0.000 A 
ATOM     17  C   UNL     1       8.541   8.045  18.812  0.00  0.00    +0.000 A 
ATOM     18  C   UNL     1       8.148   9.031  17.938  0.00  0.00    +0.000 A 
ATOM     19  O   UNL     1       7.317   8.527  16.991  0.00  0.00    +0.000 OA
ENDBRANCH  14  15
ENDBRANCH   4  14
BRANCH   4  20
ATOM     20  C   UNL     1       6.594   3.974  16.167  0.00  0.00    +0.000 C 
BRANCH  20  21
ATOM     21  C   UNL     1       6.734   4.271  14.714  0.00  0.00    +0.000 A 
ATOM     22  C   UNL     1       6.107   3.808  13.577  0.00  0.00    +0.000 A 
ATOM     23  C   UNL     1       6.774   4.411  12.480  0.00  0.00    +0.000 A 
ATOM     24  C   UNL     1       7.747   5.218  13.016  0.00  0.00    +0.000 A 
ATOM     25  O   UNL     1       7.729   5.148  14.371  0.00  0.00    +0.000 OA
ENDBRANCH  20  21
ENDBRANCH   4  20
TORSDOF 5
ENDMDL
MODEL 6
REMARK VINA RESULT:      -7.8      0.608      1.848
REMARK  Name = 
REMARK  5 active torsions:
REMARK  status: ('A' for Active; 'I' for Inactive)
REMARK    1  A    between atoms: N_3  and  C_4
REMARK    2  A    between atoms: N_12  and  C_13
REMARK    3  A    between atoms: N_12  and  C_19
REMARK    4  A    between atoms: C_13  and  C_14
REMARK    5  A    between atoms: C_19  and  C_20
REMARK                            x       y       z     vdW  Elec       q    Type
REMARK                         _______ _______ _______ _____ _____    ______ ____
ROOT
ATOM      1  O   UNL     1       5.131   3.076  16.835  0.00  0.00    +0.000 OA
ATOM      2  C   UNL     1       4.820   4.258  16.691  0.00  0.00    +0.000 C 
ATOM      3  N   UNL     1       3.753   4.847  17.333  0.00  0.00    +0.000 N 
ATOM      4  N   UNL     1       5.517   5.093  15.811  0.00  0.00    +0.000 N 
ATOM      5  H   UNL     1       3.389   5.683  16.888  0.00  0.00    +0.000 HD
ENDROOT
BRANCH   3   6
ATOM      6  C   UNL     1       2.897   4.219  18.264  0.00  0.00    +0.000 A 
ATOM      7  C   UNL     1       1.878   3.336  17.897  0.00  0.00    +0.000 A 
ATOM      8  C   UNL     1       1.028   2.811  18.868  0.00  0.00    +0.000 A 
ATOM      9  F   UNL     1       0.047   1.976  18.502  0.00  0.00    +0.000 F 
ATOM     10  C   UNL     1       1.173   3.143  20.206  0.00  0.00    +0.000 A 
ATOM     11  C   UNL     1       2.209   3.988  20.570  0.00  0.00    +0.000 A 
ATOM     12  F   UNL     1       2.368   4.318  21.858  0.00  0.00    +0.000 F 
ATOM     13  C   UNL     1       3.081   4.516  19.618  0.00  0.00    +0.000 A 
ENDBRANCH   3   6
BRANCH   4  14
ATOM     14  C   UNL     1       6.612   4.452  15.084  0.00  0.00    +0.000 C 
BRANCH  14  15
ATOM     15  C   UNL     1       6.191   3.962  13.743  0.00  0.00    +0.000 A 
ATOM     16  C   UNL     1       6.894   3.593  12.614  0.00  0.00    +0.000 A 
ATOM     17  C   UNL     1       5.930   3.310  11.616  0.00  0.00    +0.000 A 
ATOM     18  C   UNL     1       4.703   3.524  12.199  0.00  0.00    +0.000 A 
ATOM     19  O   UNL     1       4.850   3.919  13.489  0.00  0.00    +0.000 OA
ENDBRANCH  14  15
ENDBRANCH   4  14
BRANCH   4  20
ATOM     20  C   UNL     1       5.656   6.529  16.077  0.00  0.00    +0.000 C 
BRANCH  20  21
ATOM     21  C   UNL     1       6.649   6.810  17.150  0.00  0.00    +0.000 A 
ATOM     22  C   UNL     1       7.539   7.836  17.387  0.00  0.00    +0.000 A 
ATOM     23  C   UNL     1       8.286   7.461  18.532  0.00  0.00    +0.000 A 
ATOM     24  C   UNL     1       7.792   6.244  18.933  0.00  0.00    +0.000 A 
ATOM     25  O   UNL     1       6.793   5.841  18.106  0.00  0.00    +0.000 OA
ENDBRANCH  20  21
ENDBRANCH   4  20
TORSDOF 5
ENDMDL
MODEL 7
REMARK VINA RESULT:      -7.8      1.215      4.434
REMARK  Name = 
REMARK  5 active torsions:
REMARK  status: ('A' for Active; 'I' for Inactive)
REMARK    1  A    between atoms: N_3  and  C_4
REMARK    2  A    between atoms: N_12  and  C_13
REMARK    3  A    between atoms: N_12  and  C_19
REMARK    4  A    between atoms: C_13  and  C_14
REMARK    5  A    between atoms: C_19  and  C_20
REMARK                            x       y       z     vdW  Elec       q    Type
REMARK                         _______ _______ _______ _____ _____    ______ ____
ROOT
ATOM      1  O   UNL     1       5.580   4.100  18.841  0.00  0.00    +0.000 OA
ATOM      2  C   UNL     1       5.188   4.245  17.684  0.00  0.00    +0.000 C 
ATOM      3  N   UNL     1       3.878   4.073  17.296  0.00  0.00    +0.000 N 
ATOM      4  N   UNL     1       6.076   4.561  16.649  0.00  0.00    +0.000 N 
ATOM      5  H   UNL     1       3.741   3.875  16.311  0.00  0.00    +0.000 HD
ENDROOT
BRANCH   3   6
ATOM      6  C   UNL     1       2.798   3.752  18.147  0.00  0.00    +0.000 A 
ATOM      7  C   UNL     1       2.029   2.593  18.010  0.00  0.00    +0.000 A 
ATOM      8  C   UNL     1       0.933   2.382  18.845  0.00  0.00    +0.000 A 
ATOM      9  F   UNL     1       0.196   1.273  18.694  0.00  0.00    +0.000 F 
ATOM     10  C   UNL     1       0.586   3.299  19.824  0.00  0.00    +0.000 A 
ATOM     11  C   UNL     1       1.376   4.428  19.982  0.00  0.00    +0.000 A 
ATOM     12  F   UNL     1       1.060   5.325  20.924  0.00  0.00    +0.000 F 
ATOM     13  C   UNL     1       2.484   4.656  19.167  0.00  0.00    +0.000 A 
ENDBRANCH   3   6
BRANCH   4  14
ATOM     14  C   UNL     1       7.477   4.684  17.050  0.00  0.00    +0.000 C 
BRANCH  14  15
ATOM     15  C   UNL     1       7.798   6.040  17.575  0.00  0.00    +0.000 A 
ATOM     16  C   UNL     1       8.117   6.509  18.833  0.00  0.00    +0.000 A 
ATOM     17  C   UNL     1       8.218   7.917  18.722  0.00  0.00    +0.000 A 
ATOM     18  C   UNL     1       7.956   8.216  17.406  0.00  0.00    +0.000 A 
ATOM     19  O   UNL     1       7.700   7.084  16.702  0.00  0.00    +0.000 OA
ENDBRANCH  14  15
ENDBRANCH   4  14
BRANCH   4  20
ATOM     20  C   UNL     1       5.647   5.365  15.499  0.00  0.00    +0.000 C 
BRANCH  20  21
ATOM     21  C   UNL     1       6.087   4.776  14.205  0.00  0.00    +0.000 A 
ATOM     22  C   UNL     1       5.641   3.727  13.429  0.00  0.00    +0.000 A 
ATOM     23  C   UNL     1       6.560   3.606  12.355  0.00  0.00    +0.000 A 
ATOM     24  C   UNL     1       7.492   4.599  12.531  0.00  0.00    +0.000 A 
ATOM     25  O   UNL     1       7.213   5.321  13.646  0.00  0.00    +0.000 OA
ENDBRANCH  20  21
ENDBRANCH   4  20
TORSDOF 5
ENDMDL
MODEL 8
REMARK VINA RESULT:      -7.7      1.291      4.221
REMARK  Name = 
REMARK  5 active torsions:
REMARK  status: ('A' for Active; 'I' for Inactive)
REMARK    1  A    between atoms: N_3  and  C_4
REMARK    2  A    between atoms: N_12  and  C_13
REMARK    3  A    between atoms: N_12  and  C_19
REMARK    4  A    between atoms: C_13  and  C_14
REMARK    5  A    between atoms: C_19  and  C_20
REMARK                            x       y       z     vdW  Elec       q    Type
REMARK                         _______ _______ _______ _____ _____    ______ ____
ROOT
ATOM      1  O   UNL     1       3.963   6.047  17.760  0.00  0.00    +0.000 OA
ATOM      2  C   UNL     1       4.697   5.068  17.632  0.00  0.00    +0.000 C 
ATOM      3  N   UNL     1       4.434   3.841  18.199  0.00  0.00    +0.000 N 
ATOM      4  N   UNL     1       5.899   5.147  16.921  0.00  0.00    +0.000 N 
ATOM      5  H   UNL     1       5.242   3.241  18.323  0.00  0.00    +0.000 HD
ENDROOT
BRANCH   3   6
ATOM      6  C   UNL     1       3.293   3.508  18.961  0.00  0.00    +0.000 A 
ATOM      7  C   UNL     1       3.213   3.690  20.345  0.00  0.00    +0.000 A 
ATOM      8  C   UNL     1       2.079   3.270  21.038  0.00  0.00    +0.000 A 
ATOM      9  F   UNL     1       2.020   3.439  22.365  0.00  0.00    +0.000 F 
ATOM     10  C   UNL     1       1.014   2.675  20.381  0.00  0.00    +0.000 A 
ATOM     11  C   UNL     1       1.082   2.533  19.004  0.00  0.00    +0.000 A 
ATOM     12  F   UNL     1       0.061   1.964  18.350  0.00  0.00    +0.000 F 
ATOM     13  C   UNL     1       2.200   2.957  18.286  0.00  0.00    +0.000 A 
ENDBRANCH   3   6
BRANCH   4  14
ATOM     14  C   UNL     1       6.208   6.467  16.369  0.00  0.00    +0.000 C 
BRANCH  14  15
ATOM     15  C   UNL     1       7.150   7.233  17.229  0.00  0.00    +0.000 A 
ATOM     16  C   UNL     1       7.921   6.885  18.319  0.00  0.00    +0.000 A 
ATOM     17  C   UNL     1       8.535   8.078  18.772  0.00  0.00    +0.000 A 
ATOM     18  C   UNL     1       8.101   9.075  17.931  0.00  0.00    +0.000 A 
ATOM     19  O   UNL     1       7.260   8.573  16.992  0.00  0.00    +0.000 OA
ENDBRANCH  14  15
ENDBRANCH   4  14
BRANCH   4  20
ATOM     20  C   UNL     1       6.428   3.989  16.191  0.00  0.00    +0.000 C 
BRANCH  20  21
ATOM     21  C   UNL     1       6.653   4.286  14.749  0.00  0.00    +0.000 A 
ATOM     22  C   UNL     1       6.050   3.872  13.581  0.00  0.00    +0.000 A 
ATOM     23  C   UNL     1       6.803   4.437  12.521  0.00  0.00    +0.000 A 
ATOM     24  C   UNL     1       7.801   5.175  13.107  0.00  0.00    +0.000 A 
ATOM     25  O   UNL     1       7.717   5.097  14.460  0.00  0.00    +0.000 OA
ENDBRANCH  20  21
ENDBRANCH   4  20
TORSDOF 5
ENDMDL
MODEL 9
REMARK VINA RESULT:      -7.7      1.135      4.113
REMARK  Name = 
REMARK  5 active torsions:
REMARK  status: ('A' for Active; 'I' for Inactive)
REMARK    1  A    between atoms: N_3  and  C_4
REMARK    2  A    between atoms: N_12  and  C_13
REMARK    3  A    between atoms: N_12  and  C_19
REMARK    4  A    between atoms: C_13  and  C_14
REMARK    5  A    between atoms: C_19  and  C_20
REMARK                            x       y       z     vdW  Elec       q    Type
REMARK                         _______ _______ _______ _____ _____    ______ ____
ROOT
ATOM      1  O   UNL     1       5.805   4.214  19.121  0.00  0.00    +0.000 OA
ATOM      2  C   UNL     1       5.319   4.297  17.994  0.00  0.00    +0.000 C 
ATOM      3  N   UNL     1       3.994   4.047  17.715  0.00  0.00    +0.000 N 
ATOM      4  N   UNL     1       6.108   4.618  16.883  0.00  0.00    +0.000 N 
ATOM      5  H   UNL     1       3.793   3.806  16.751  0.00  0.00    +0.000 HD
ENDROOT
BRANCH   3   6
ATOM      6  C   UNL     1       3.000   3.704  18.658  0.00  0.00    +0.000 A 
ATOM      7  C   UNL     1       3.095   4.007  20.019  0.00  0.00    +0.000 A 
ATOM      8  C   UNL     1       2.107   3.572  20.900  0.00  0.00    +0.000 A 
ATOM      9  F   UNL     1       2.216   3.857  22.204  0.00  0.00    +0.000 F 
ATOM     10  C   UNL     1       1.015   2.843  20.453  0.00  0.00    +0.000 A 
ATOM     11  C   UNL     1       0.905   2.580  19.097  0.00  0.00    +0.000 A 
ATOM     12  F   UNL     1      -0.144   1.881  18.645  0.00  0.00    +0.000 F 
ATOM     13  C   UNL     1       1.875   3.016  18.194  0.00  0.00    +0.000 A 
ENDBRANCH   3   6
BRANCH   4  14
ATOM     14  C   UNL     1       7.527   4.826  17.169  0.00  0.00    +0.000 C 
BRANCH  14  15
ATOM     15  C   UNL     1       7.815   6.210  17.633  0.00  0.00    +0.000 A 
ATOM     16  C   UNL     1       8.226   6.728  18.845  0.00  0.00    +0.000 A 
ATOM     17  C   UNL     1       8.230   8.137  18.698  0.00  0.00    +0.000 A 
ATOM     18  C   UNL     1       7.822   8.387  17.409  0.00  0.00    +0.000 A 
ATOM     19  O   UNL     1       7.568   7.225  16.755  0.00  0.00    +0.000 OA
ENDBRANCH  14  15
ENDBRANCH   4  14
BRANCH   4  20
ATOM     20  C   UNL     1       5.552   5.359  15.745  0.00  0.00    +0.000 C 
BRANCH  20  21
ATOM     21  C   UNL     1       6.028   4.825  14.439  0.00  0.00    +0.000 A 
ATOM     22  C   UNL     1       5.624   3.792  13.621  0.00  0.00    +0.000 A 
ATOM     23  C   UNL     1       6.563   3.731  12.560  0.00  0.00    +0.000 A 
ATOM     24  C   UNL     1       7.465   4.741  12.785  0.00  0.00    +0.000 A 
ATOM     25  O   UNL     1       7.148   5.417  13.919  0.00  0.00    +0.000 OA
ENDBRANCH  20  21
ENDBRANCH   4  20
TORSDOF 5
ENDMDL
