MODEL 1
REMARK VINA RESULT:      -7.4      0.000      0.000
REMARK  Name = 
REMARK  15 active torsions:
REMARK  status: ('A' for Active; 'I' for Inactive)
REMARK    1  A    between atoms: CD1_1  and  CG_2
REMARK    2  A    between atoms: CG_2  and  CD2_3
REMARK    3  A    between atoms: CG_2  and  CB_4
REMARK    4  A    between atoms: CB_4  and  CA_5
REMARK    5  A    between atoms: CA_5  and  C_6
REMARK    6  A    between atoms: CA_5  and  N_9
REMARK    7  A    between atoms: C_6  and  OXT_8
REMARK    8  A    between atoms: N_9  and  C_10
REMARK    9  A    between atoms: C_10  and  C_11
REMARK   10  A    between atoms: N_13  and  C_14
REMARK   11  A    between atoms: C_14  and  C_15
REMARK   12  A    between atoms: C_21  and  CA_23
REMARK   13  A    between atoms: CA_23  and  N_24
REMARK   14  A    between atoms: CA_23  and  CB_25
REMARK   15  A    between atoms: CB_25  and  CG_26
REMARK                            x       y       z     vdW  Elec       q    Type
REMARK                         _______ _______ _______ _____ _____    ______ ____
ROOT
ATOM      1  N   LEU A   2       4.763   4.797  18.075  0.00  0.00    +0.000 N 
ATOM      2  C   PHE A   1       6.117   4.974  17.770  0.00  0.00    +0.000 C 
ATOM      3  O   PHE A   1       6.967   4.389  18.457  0.00  0.00    +0.000 OA
ENDROOT
BRANCH   1   4
ATOM      4  CA  LEU A   2       4.481   4.033  19.345  0.00  0.00    +0.000 C 
BRANCH   4   5
ATOM      5  C   LEU A   2       4.318   2.572  18.927  0.00  0.00    +0.000 C 
ATOM      6  O   LEU A   2       3.751   2.201  17.908  0.00  0.00    +0.000 OA
BRANCH   5   7
ATOM      7  OXT LEU A   2       4.983   1.698  19.740  0.00  0.00    +0.000 OA
ATOM      8  HXT LEU A   2       4.716   1.784  20.688  0.00  0.00    +0.000 HD
ENDBRANCH   5   7
ENDBRANCH   4   5
BRANCH   4   9
ATOM      9  CB  LEU A   2       3.284   4.563  20.179  0.00  0.00    +0.000 C 
BRANCH   9  11
ATOM     10  CD1 LEU A   2       1.903   2.970  21.701  0.00  0.00    +0.000 C 
ATOM     11  CG  LEU A   2       2.010   3.704  20.364  0.00  0.00    +0.000 C 
ATOM     12  CD2 LEU A   2       0.793   4.637  20.225  0.00  0.00    +0.000 C 
ENDBRANCH   9  11
ENDBRANCH   4   9
ENDBRANCH   1   4
BRANCH   1  13
ATOM     13  C   UNK A   0       3.686   5.561  17.412  0.00  0.00    +0.000 C 
BRANCH  13  14
ATOM     14  C   UNK A   0       3.391   7.053  17.660  0.00  0.00    +0.000 C 
ATOM     15  O   UNK A   0       4.322   7.805  17.950  0.00  0.00    +0.000 OA
ATOM     16  N   UNK A   0       2.090   7.503  17.682  0.00  0.00    +0.000 N 
ATOM     17  H   UNK A   0       1.338   6.829  17.841  0.00  0.00    +0.000 HD
BRANCH  16  18
ATOM     18  C   UNK A   0       1.877   8.893  18.053  0.00  0.00    +0.000 C 
BRANCH  18  19
ATOM     19  C   UNK A   0       1.213   9.077  19.390  0.00  0.00    +0.000 A 
ATOM     20  C   UNK A   0       0.083   9.898  19.513  0.00  0.00    +0.000 A 
ATOM     21  C   UNK A   0      -0.540  10.065  20.752  0.00  0.00    +0.000 A 
ATOM     22  C   UNK A   0      -0.042   9.410  21.877  0.00  0.00    +0.000 A 
ATOM     23  C   UNK A   0       1.070   8.578  21.763  0.00  0.00    +0.000 A 
ATOM     24  C   UNK A   0       1.695   8.410  20.524  0.00  0.00    +0.000 A 
ENDBRANCH  18  19
ENDBRANCH  16  18
ENDBRANCH  13  14
ENDBRANCH   1  13
BRANCH   2  25
ATOM     25  CA  PHE A   1       6.546   5.910  16.603  0.00  0.00    +0.000 C 
BRANCH  25  26
ATOM     26  N   PHE A   1       7.184   7.127  17.140  0.00  0.00    +0.000 NA
ATOM     27  H1  PHE A   1       6.949   7.935  16.566  0.00  0.00    +0.000 HD
ATOM     28  H2  PHE A   1       8.195   7.042  17.180  0.00  0.00    +0.000 HD
ENDBRANCH  25  26
BRANCH  25  29
ATOM     29  CB  PHE A   1       7.524   5.134  15.688  0.00  0.00    +0.000 C 
BRANCH  29  30
ATOM     30  CG  PHE A   1       6.921   4.609  14.403  0.00  0.00    +0.000 A 
ATOM     31  CD1 PHE A   1       7.585   4.806  13.182  0.00  0.00    +0.000 A 
ATOM     32  CE1 PHE A   1       7.048   4.317  11.991  0.00  0.00    +0.000 A 
ATOM     33  CZ  PHE A   1       5.834   3.621  12.011  0.00  0.00    +0.000 A 
ATOM     34  CE2 PHE A   1       5.168   3.418  13.217  0.00  0.00    +0.000 A 
ATOM     35  CD2 PHE A   1       5.710   3.906  14.406  0.00  0.00    +0.000 A 
ENDBRANCH  29  30
ENDBRANCH  25  29
ENDBRANCH   2  25
TORSDOF 13
ENDMDL
MODEL 2
REMARK VINA RESULT:      -7.1      1.469      2.015
REMARK  Name = 
REMARK  15 active torsions:
REMARK  status: ('A' for Active; 'I' for Inactive)
REMARK    1  A    between atoms: CD1_1  and  CG_2
REMARK    2  A    between atoms: CG_2  and  CD2_3
REMARK    3  A    between atoms: CG_2  and  CB_4
REMARK    4  A    between atoms: CB_4  and  CA_5
REMARK    5  A    between atoms: CA_5  and  C_6
REMARK    6  A    between atoms: CA_5  and  N_9
REMARK    7  A    between atoms: C_6  and  OXT_8
REMARK    8  A    between atoms: N_9  and  C_10
REMARK    9  A    between atoms: C_10  and  C_11
REMARK   10  A    between atoms: N_13  and  C_14
REMARK   11  A    between atoms: C_14  and  C_15
REMARK   12  A    between atoms: C_21  and  CA_23
REMARK   13  A    between atoms: CA_23  and  N_24
REMARK   14  A    between atoms: CA_23  and  CB_25
REMARK   15  A    between atoms: CB_25  and  CG_26
REMARK                            x       y       z     vdW  Elec       q    Type
REMARK                         _______ _______ _______ _____ _____    ______ ____
ROOT
ATOM      1  N   LEU A   2       3.937   4.718  18.305  0.00  0.00    +0.000 N 
ATOM      2  C   PHE A   1       4.890   4.179  17.433  0.00  0.00    +0.000 C 
ATOM      3  O   PHE A   1       4.808   2.981  17.124  0.00  0.00    +0.000 OA
ENDROOT
BRANCH   1   4
ATOM      4  CA  LEU A   2       2.992   3.719  18.927  0.00  0.00    +0.000 C 
BRANCH   4   5
ATOM      5  C   LEU A   2       1.922   3.442  17.872  0.00  0.00    +0.000 C 
ATOM      6  O   LEU A   2       1.239   4.303  17.333  0.00  0.00    +0.000 OA
BRANCH   5   7
ATOM      7  OXT LEU A   2       1.875   2.135  17.478  0.00  0.00    +0.000 OA
ATOM      8  HXT LEU A   2       2.771   1.764  17.286  0.00  0.00    +0.000 HD
ENDBRANCH   5   7
ENDBRANCH   4   5
BRANCH   4   9
ATOM      9  CB  LEU A   2       2.399   4.142  20.297  0.00  0.00    +0.000 C 
BRANCH   9  11
ATOM     10  CD1 LEU A   2       1.193   2.482  21.894  0.00  0.00    +0.000 C 
ATOM     11  CG  LEU A   2       2.490   3.200  21.522  0.00  0.00    +0.000 C 
ATOM     12  CD2 LEU A   2       3.561   2.137  21.214  0.00  0.00    +0.000 C 
ENDBRANCH   9  11
ENDBRANCH   4   9
ENDBRANCH   1   4
BRANCH   1  13
ATOM     13  C   UNK A   0       4.032   6.090  18.846  0.00  0.00    +0.000 C 
BRANCH  13  14
ATOM     14  C   UNK A   0       3.024   7.217  18.550  0.00  0.00    +0.000 C 
ATOM     15  O   UNK A   0       3.055   7.773  17.452  0.00  0.00    +0.000 OA
ATOM     16  N   UNK A   0       2.191   7.675  19.546  0.00  0.00    +0.000 N 
ATOM     17  H   UNK A   0       2.445   7.497  20.521  0.00  0.00    +0.000 HD
BRANCH  16  18
ATOM     18  C   UNK A   0       1.360   8.828  19.238  0.00  0.00    +0.000 C 
BRANCH  18  19
ATOM     19  C   UNK A   0       0.669   9.425  20.432  0.00  0.00    +0.000 A 
ATOM     20  C   UNK A   0       0.231   8.605  21.482  0.00  0.00    +0.000 A 
ATOM     21  C   UNK A   0      -0.405   9.158  22.596  0.00  0.00    +0.000 A 
ATOM     22  C   UNK A   0      -0.604  10.535  22.672  0.00  0.00    +0.000 A 
ATOM     23  C   UNK A   0      -0.157  11.362  21.643  0.00  0.00    +0.000 A 
ATOM     24  C   UNK A   0       0.478  10.810  20.528  0.00  0.00    +0.000 A 
ENDBRANCH  18  19
ENDBRANCH  16  18
ENDBRANCH  13  14
ENDBRANCH   1  13
BRANCH   2  25
ATOM     25  CA  PHE A   1       6.045   5.065  16.882  0.00  0.00    +0.000 C 
BRANCH  25  26
ATOM     26  N   PHE A   1       7.253   4.246  16.673  0.00  0.00    +0.000 NA
ATOM     27  H1  PHE A   1       7.741   4.100  17.555  0.00  0.00    +0.000 HD
ATOM     28  H2  PHE A   1       7.896   4.675  16.014  0.00  0.00    +0.000 HD
ENDBRANCH  25  26
BRANCH  25  29
ATOM     29  CB  PHE A   1       5.577   5.706  15.553  0.00  0.00    +0.000 C 
BRANCH  29  30
ATOM     30  CG  PHE A   1       6.074   5.018  14.300  0.00  0.00    +0.000 A 
ATOM     31  CD1 PHE A   1       7.295   5.400  13.724  0.00  0.00    +0.000 A 
ATOM     32  CE1 PHE A   1       7.773   4.767  12.576  0.00  0.00    +0.000 A 
ATOM     33  CZ  PHE A   1       7.027   3.737  11.992  0.00  0.00    +0.000 A 
ATOM     34  CE2 PHE A   1       5.815   3.347  12.556  0.00  0.00    +0.000 A 
ATOM     35  CD2 PHE A   1       5.343   3.982  13.706  0.00  0.00    +0.000 A 
ENDBRANCH  29  30
ENDBRANCH  25  29
ENDBRANCH   2  25
TORSDOF 13
ENDMDL
MODEL 3
REMARK VINA RESULT:      -6.9      1.793      2.532
REMARK  Name = 
REMARK  15 active torsions:
REMARK  status: ('A' for Active; 'I' for Inactive)
REMARK    1  A    between atoms: CD1_1  and  CG_2
REMARK    2  A    between atoms: CG_2  and  CD2_3
REMARK    3  A    between atoms: CG_2  and  CB_4
REMARK    4  A    between atoms: CB_4  and  CA_5
REMARK    5  A    between atoms: CA_5  and  C_6
REMARK    6  A    between atoms: CA_5  and  N_9
REMARK    7  A    between atoms: C_6  and  OXT_8
REMARK    8  A    between atoms: N_9  and  C_10
REMARK    9  A    between atoms: C_10  and  C_11
REMARK   10  A    between atoms: N_13  and  C_14
REMARK   11  A    between atoms: C_14  and  C_15
REMARK   12  A    between atoms: C_21  and  CA_23
REMARK   13  A    between atoms: CA_23  and  N_24
REMARK   14  A    between atoms: CA_23  and  CB_25
REMARK   15  A    between atoms: CB_25  and  CG_26
REMARK                            x       y       z     vdW  Elec       q    Type
REMARK                         _______ _______ _______ _____ _____    ______ ____
ROOT
ATOM      1  N   LEU A   2       4.227   5.273  19.039  0.00  0.00    +0.000 N 
ATOM      2  C   PHE A   1       5.523   4.746  19.080  0.00  0.00    +0.000 C 
ATOM      3  O   PHE A   1       5.670   3.515  19.063  0.00  0.00    +0.000 OA
ENDROOT
BRANCH   1   4
ATOM      4  CA  LEU A   2       3.114   4.261  19.158  0.00  0.00    +0.000 C 
BRANCH   4   5
ATOM      5  C   LEU A   2       2.560   4.082  17.745  0.00  0.00    +0.000 C 
ATOM      6  O   LEU A   2       1.452   4.455  17.382  0.00  0.00    +0.000 OA
BRANCH   5   7
ATOM      7  OXT LEU A   2       3.471   3.571  16.865  0.00  0.00    +0.000 OA
ATOM      8  HXT LEU A   2       4.401   3.805  17.104  0.00  0.00    +0.000 HD
ENDBRANCH   5   7
ENDBRANCH   4   5
BRANCH   4   9
ATOM      9  CB  LEU A   2       2.019   4.608  20.201  0.00  0.00    +0.000 C 
BRANCH   9  11
ATOM     10  CD1 LEU A   2       0.466   2.538  19.948  0.00  0.00    +0.000 C 
ATOM     11  CG  LEU A   2       1.203   3.488  20.891  0.00  0.00    +0.000 C 
ATOM     12  CD2 LEU A   2       2.179   2.660  21.748  0.00  0.00    +0.000 C 
ENDBRANCH   9  11
ENDBRANCH   4   9
ENDBRANCH   1   4
BRANCH   1  13
ATOM     13  C   UNK A   0       3.943   6.714  19.201  0.00  0.00    +0.000 C 
BRANCH  13  14
ATOM     14  C   UNK A   0       3.025   7.534  18.274  0.00  0.00    +0.000 C 
ATOM     15  O   UNK A   0       3.179   7.450  17.055  0.00  0.00    +0.000 OA
ATOM     16  N   UNK A   0       2.136   8.438  18.809  0.00  0.00    +0.000 N 
ATOM     17  H   UNK A   0       2.296   8.782  19.759  0.00  0.00    +0.000 HD
BRANCH  16  18
ATOM     18  C   UNK A   0       1.396   9.272  17.876  0.00  0.00    +0.000 C 
BRANCH  18  19
ATOM     19  C   UNK A   0       0.268  10.044  18.501  0.00  0.00    +0.000 A 
ATOM     20  C   UNK A   0       0.449  10.696  19.729  0.00  0.00    +0.000 A 
ATOM     21  C   UNK A   0      -0.595  11.420  20.309  0.00  0.00    +0.000 A 
ATOM     22  C   UNK A   0      -1.828  11.502  19.664  0.00  0.00    +0.000 A 
ATOM     23  C   UNK A   0      -2.015  10.872  18.435  0.00  0.00    +0.000 A 
ATOM     24  C   UNK A   0      -0.971  10.147  17.855  0.00  0.00    +0.000 A 
ENDBRANCH  18  19
ENDBRANCH  16  18
ENDBRANCH  13  14
ENDBRANCH   1  13
BRANCH   2  25
ATOM     25  CA  PHE A   1       6.756   5.692  19.170  0.00  0.00    +0.000 C 
BRANCH  25  26
ATOM     26  N   PHE A   1       7.507   5.427  20.411  0.00  0.00    +0.000 NA
ATOM     27  H1  PHE A   1       8.448   5.811  20.346  0.00  0.00    +0.000 HD
ATOM     28  H2  PHE A   1       7.576   4.433  20.611  0.00  0.00    +0.000 HD
ENDBRANCH  25  26
BRANCH  25  29
ATOM     29  CB  PHE A   1       7.646   5.454  17.926  0.00  0.00    +0.000 C 
BRANCH  29  30
ATOM     30  CG  PHE A   1       6.894   5.243  16.629  0.00  0.00    +0.000 A 
ATOM     31  CD1 PHE A   1       7.068   4.056  15.900  0.00  0.00    +0.000 A 
ATOM     32  CE1 PHE A   1       6.372   3.843  14.710  0.00  0.00    +0.000 A 
ATOM     33  CZ  PHE A   1       5.489   4.820  14.237  0.00  0.00    +0.000 A 
ATOM     34  CE2 PHE A   1       5.307   6.000  14.955  0.00  0.00    +0.000 A 
ATOM     35  CD2 PHE A   1       6.003   6.208  16.146  0.00  0.00    +0.000 A 
ENDBRANCH  29  30
ENDBRANCH  25  29
ENDBRANCH   2  25
TORSDOF 13
ENDMDL
MODEL 4
REMARK VINA RESULT:      -6.8      0.637      1.114
REMARK  Name = 
REMARK  15 active torsions:
REMARK  status: ('A' for Active; 'I' for Inactive)
REMARK    1  A    between atoms: CD1_1  and  CG_2
REMARK    2  A    between atoms: CG_2  and  CD2_3
REMARK    3  A    between atoms: CG_2  and  CB_4
REMARK    4  A    between atoms: CB_4  and  CA_5
REMARK    5  A    between atoms: CA_5  and  C_6
REMARK    6  A    between atoms: CA_5  and  N_9
REMARK    7  A    between atoms: C_6  and  OXT_8
REMARK    8  A    between atoms: N_9  and  C_10
REMARK    9  A    between atoms: C_10  and  C_11
REMARK   10  A    between atoms: N_13  and  C_14
REMARK   11  A    between atoms: C_14  and  C_15
REMARK   12  A    between atoms: C_21  and  CA_23
REMARK   13  A    between atoms: CA_23  and  N_24
REMARK   14  A    between atoms: CA_23  and  CB_25
REMARK   15  A    between atoms: CB_25  and  CG_26
REMARK                            x       y       z     vdW  Elec       q    Type
REMARK                         _______ _______ _______ _____ _____    ______ ____
ROOT
ATOM      1  N   LEU A   2       4.716   4.441  18.083  0.00  0.00    +0.000 N 
ATOM      2  C   PHE A   1       6.065   4.728  17.850  0.00  0.00    +0.000 C 
ATOM      3  O   PHE A   1       6.924   4.186  18.562  0.00  0.00    +0.000 OA
ENDROOT
BRANCH   1   4
ATOM      4  CA  LEU A   2       4.433   3.619  19.316  0.00  0.00    +0.000 C 
BRANCH   4   5
ATOM      5  C   LEU A   2       4.148   2.202  18.818  0.00  0.00    +0.000 C 
ATOM      6  O   LEU A   2       3.578   1.937  17.767  0.00  0.00    +0.000 OA
BRANCH   5   7
ATOM      7  OXT LEU A   2       4.706   1.230  19.599  0.00  0.00    +0.000 OA
ATOM      8  HXT LEU A   2       4.247   0.360  19.508  0.00  0.00    +0.000 HD
ENDBRANCH   5   7
ENDBRANCH   4   5
BRANCH   4   9
ATOM      9  CB  LEU A   2       3.312   4.176  20.234  0.00  0.00    +0.000 C 
BRANCH   9  11
ATOM     10  CD1 LEU A   2       1.888   2.730  21.859  0.00  0.00    +0.000 C 
ATOM     11  CG  LEU A   2       2.015   3.367  20.475  0.00  0.00    +0.000 C 
ATOM     12  CD2 LEU A   2       0.824   4.321  20.270  0.00  0.00    +0.000 C 
ENDBRANCH   9  11
ENDBRANCH   4   9
ENDBRANCH   1   4
BRANCH   1  13
ATOM     13  C   UNK A   0       3.616   5.144  17.389  0.00  0.00    +0.000 C 
BRANCH  13  14
ATOM     14  C   UNK A   0       3.437   6.674  17.359  0.00  0.00    +0.000 C 
ATOM     15  O   UNK A   0       4.193   7.350  16.660  0.00  0.00    +0.000 OA
ATOM     16  N   UNK A   0       2.529   7.277  18.200  0.00  0.00    +0.000 N 
ATOM     17  H   UNK A   0       2.214   6.769  19.030  0.00  0.00    +0.000 HD
BRANCH  16  18
ATOM     18  C   UNK A   0       2.506   8.731  18.216  0.00  0.00    +0.000 C 
BRANCH  18  19
ATOM     19  C   UNK A   0       1.315   9.319  18.921  0.00  0.00    +0.000 A 
ATOM     20  C   UNK A   0       1.241   9.305  20.321  0.00  0.00    +0.000 A 
ATOM     21  C   UNK A   0       0.140   9.858  20.978  0.00  0.00    +0.000 A 
ATOM     22  C   UNK A   0      -0.895  10.432  20.243  0.00  0.00    +0.000 A 
ATOM     23  C   UNK A   0      -0.824  10.468  18.851  0.00  0.00    +0.000 A 
ATOM     24  C   UNK A   0       0.277   9.914  18.193  0.00  0.00    +0.000 A 
ENDBRANCH  18  19
ENDBRANCH  16  18
ENDBRANCH  13  14
ENDBRANCH   1  13
BRANCH   2  25
ATOM     25  CA  PHE A   1       6.477   5.729  16.732  0.00  0.00    +0.000 C 
BRANCH  25  26
ATOM     26  N   PHE A   1       7.004   6.969  17.334  0.00  0.00    +0.000 NA
ATOM     27  H1  PHE A   1       7.995   6.868  17.546  0.00  0.00    +0.000 HD
ATOM     28  H2  PHE A   1       6.514   7.218  18.187  0.00  0.00    +0.000 HD
ENDBRANCH  25  26
BRANCH  25  29
ATOM     29  CB  PHE A   1       7.546   5.053  15.840  0.00  0.00    +0.000 C 
BRANCH  29  30
ATOM     30  CG  PHE A   1       7.055   4.598  14.483  0.00  0.00    +0.000 A 
ATOM     31  CD1 PHE A   1       7.756   4.963  13.323  0.00  0.00    +0.000 A 
ATOM     32  CE1 PHE A   1       7.322   4.540  12.066  0.00  0.00    +0.000 A 
ATOM     33  CZ  PHE A   1       6.177   3.743  11.958  0.00  0.00    +0.000 A 
ATOM     34  CE2 PHE A   1       5.476   3.373  13.103  0.00  0.00    +0.000 A 
ATOM     35  CD2 PHE A   1       5.915   3.795  14.359  0.00  0.00    +0.000 A 
ENDBRANCH  29  30
ENDBRANCH  25  29
ENDBRANCH   2  25
TORSDOF 13
ENDMDL
MODEL 5
REMARK VINA RESULT:      -6.7      3.812      6.510
REMARK  Name = 
REMARK  15 active torsions:
REMARK  status: ('A' for Active; 'I' for Inactive)
REMARK    1  A    between atoms: CD1_1  and  CG_2
REMARK    2  A    between atoms: CG_2  and  CD2_3
REMARK    3  A    between atoms: CG_2  and  CB_4
REMARK    4  A    between atoms: CB_4  and  CA_5
REMARK    5  A    between atoms: CA_5  and  C_6
REMARK    6  A    between atoms: CA_5  and  N_9
REMARK    7  A    between atoms: C_6  and  OXT_8
REMARK    8  A    between atoms: N_9  and  C_10
REMARK    9  A    between atoms: C_10  and  C_11
REMARK   10  A    between atoms: N_13  and  C_14
REMARK   11  A    between atoms: C_14  and  C_15
REMARK   12  A    between atoms: C_21  and  CA_23
REMARK   13  A    between atoms: CA_23  and  N_24
REMARK   14  A    between atoms: CA_23  and  CB_25
REMARK   15  A    between atoms: CB_25  and  CG_26
REMARK                            x       y       z     vdW  Elec       q    Type
REMARK                         _______ _______ _______ _____ _____    ______ ____
ROOT
ATOM      1  N   LEU A   2       1.479   8.802  19.180  0.00  0.00    +0.000 N 
ATOM      2  C   PHE A   1       2.265   8.042  18.308  0.00  0.00    +0.000 C 
ATOM      3  O   PHE A   1       2.384   8.413  17.131  0.00  0.00    +0.000 OA
ENDROOT
BRANCH   1   4
ATOM      4  CA  LEU A   2       0.700   9.924  18.537  0.00  0.00    +0.000 C 
BRANCH   4   5
ATOM      5  C   LEU A   2       1.540  11.185  18.738  0.00  0.00    +0.000 C 
ATOM      6  O   LEU A   2       1.514  11.884  19.742  0.00  0.00    +0.000 OA
BRANCH   5   7
ATOM      7  OXT LEU A   2       2.437  11.404  17.731  0.00  0.00    +0.000 OA
ATOM      8  HXT LEU A   2       3.202  11.961  18.018  0.00  0.00    +0.000 HD
ENDBRANCH   5   7
ENDBRANCH   4   5
BRANCH   4   9
ATOM      9  CB  LEU A   2      -0.760  10.082  19.039  0.00  0.00    +0.000 C 
BRANCH   9  11
ATOM     10  CD1 LEU A   2      -2.894   9.984  17.556  0.00  0.00    +0.000 C 
ATOM     11  CG  LEU A   2      -1.806  10.848  18.193  0.00  0.00    +0.000 C 
ATOM     12  CD2 LEU A   2      -2.484  11.881  19.113  0.00  0.00    +0.000 C 
ENDBRANCH   9  11
ENDBRANCH   4   9
ENDBRANCH   1   4
BRANCH   1  13
ATOM     13  C   UNK A   0       1.158   8.367  20.556  0.00  0.00    +0.000 C 
BRANCH  13  14
ATOM     14  C   UNK A   0       0.796   9.319  21.712  0.00  0.00    +0.000 C 
ATOM     15  O   UNK A   0       1.703   9.845  22.359  0.00  0.00    +0.000 OA
ATOM     16  N   UNK A   0      -0.518   9.475  22.090  0.00  0.00    +0.000 N 
ATOM     17  H   UNK A   0      -1.195   8.754  21.828  0.00  0.00    +0.000 HD
BRANCH  16  18
ATOM     18  C   UNK A   0      -0.776  10.283  23.271  0.00  0.00    +0.000 C 
BRANCH  18  19
ATOM     19  C   UNK A   0      -1.393  11.622  22.978  0.00  0.00    +0.000 A 
ATOM     20  C   UNK A   0      -2.716  11.893  23.358  0.00  0.00    +0.000 A 
ATOM     21  C   UNK A   0      -3.288  13.139  23.094  0.00  0.00    +0.000 A 
ATOM     22  C   UNK A   0      -2.543  14.127  22.452  0.00  0.00    +0.000 A 
ATOM     23  C   UNK A   0      -1.223  13.875  22.086  0.00  0.00    +0.000 A 
ATOM     24  C   UNK A   0      -0.649  12.629  22.349  0.00  0.00    +0.000 A 
ENDBRANCH  18  19
ENDBRANCH  16  18
ENDBRANCH  13  14
ENDBRANCH   1  13
BRANCH   2  25
ATOM     25  CA  PHE A   1       2.957   6.739  18.804  0.00  0.00    +0.000 C 
BRANCH  25  26
ATOM     26  N   PHE A   1       1.942   5.718  19.126  0.00  0.00    +0.000 NA
ATOM     27  H1  PHE A   1       2.364   4.792  19.152  0.00  0.00    +0.000 HD
ATOM     28  H2  PHE A   1       1.182   5.709  18.452  0.00  0.00    +0.000 HD
ENDBRANCH  25  26
BRANCH  25  29
ATOM     29  CB  PHE A   1       3.908   6.236  17.691  0.00  0.00    +0.000 C 
BRANCH  29  30
ATOM     30  CG  PHE A   1       5.383   6.334  18.015  0.00  0.00    +0.000 A 
ATOM     31  CD1 PHE A   1       5.936   5.534  19.026  0.00  0.00    +0.000 A 
ATOM     32  CE1 PHE A   1       7.297   5.604  19.328  0.00  0.00    +0.000 A 
ATOM     33  CZ  PHE A   1       8.121   6.480  18.613  0.00  0.00    +0.000 A 
ATOM     34  CE2 PHE A   1       7.583   7.278  17.606  0.00  0.00    +0.000 A 
ATOM     35  CD2 PHE A   1       6.223   7.202  17.306  0.00  0.00    +0.000 A 
ENDBRANCH  29  30
ENDBRANCH  25  29
ENDBRANCH   2  25
TORSDOF 13
ENDMDL
MODEL 6
REMARK VINA RESULT:      -6.7      3.594      7.685
REMARK  Name = 
REMARK  15 active torsions:
REMARK  status: ('A' for Active; 'I' for Inactive)
REMARK    1  A    between atoms: CD1_1  and  CG_2
REMARK    2  A    between atoms: CG_2  and  CD2_3
REMARK    3  A    between atoms: CG_2  and  CB_4
REMARK    4  A    between atoms: CB_4  and  CA_5
REMARK    5  A    between atoms: CA_5  and  C_6
REMARK    6  A    between atoms: CA_5  and  N_9
REMARK    7  A    between atoms: C_6  and  OXT_8
REMARK    8  A    between atoms: N_9  and  C_10
REMARK    9  A    between atoms: C_10  and  C_11
REMARK   10  A    between atoms: N_13  and  C_14
REMARK   11  A    between atoms: C_14  and  C_15
REMARK   12  A    between atoms: C_21  and  CA_23
REMARK   13  A    between atoms: CA_23  and  N_24
REMARK   14  A    between atoms: CA_23  and  CB_25
REMARK   15  A    between atoms: CB_25  and  CG_26
REMARK                            x       y       z     vdW  Elec       q    Type
REMARK                         _______ _______ _______ _____ _____    ______ ____
ROOT
ATOM      1  N   LEU A   2       5.205   6.206  17.027  0.00  0.00    +0.000 N 
ATOM      2  C   PHE A   1       3.914   6.202  17.567  0.00  0.00    +0.000 C 
ATOM      3  O   PHE A   1       3.229   5.172  17.474  0.00  0.00    +0.000 OA
ENDROOT
BRANCH   1   4
ATOM      4  CA  LEU A   2       5.571   4.985  16.219  0.00  0.00    +0.000 C 
BRANCH   4   5
ATOM      5  C   LEU A   2       6.813   4.398  16.888  0.00  0.00    +0.000 C 
ATOM      6  O   LEU A   2       7.938   4.421  16.405  0.00  0.00    +0.000 OA
BRANCH   5   7
ATOM      7  OXT LEU A   2       6.582   3.943  18.155  0.00  0.00    +0.000 OA
ATOM      8  HXT LEU A   2       6.997   4.516  18.845  0.00  0.00    +0.000 HD
ENDBRANCH   5   7
ENDBRANCH   4   5
BRANCH   4   9
ATOM      9  CB  LEU A   2       5.762   5.237  14.699  0.00  0.00    +0.000 C 
BRANCH   9  11
ATOM     10  CD1 LEU A   2       5.355   3.470  12.836  0.00  0.00    +0.000 C 
ATOM     11  CG  LEU A   2       6.351   4.136  13.785  0.00  0.00    +0.000 C 
ATOM     12  CD2 LEU A   2       7.469   4.777  12.941  0.00  0.00    +0.000 C 
ENDBRANCH   9  11
ENDBRANCH   4   9
ENDBRANCH   1   4
BRANCH   1  13
ATOM     13  C   UNK A   0       6.040   7.423  16.957  0.00  0.00    +0.000 C 
BRANCH  13  14
ATOM     14  C   UNK A   0       7.290   7.676  17.822  0.00  0.00    +0.000 C 
ATOM     15  O   UNK A   0       7.703   6.775  18.553  0.00  0.00    +0.000 OA
ATOM     16  N   UNK A   0       7.852   8.932  17.868  0.00  0.00    +0.000 N 
ATOM     17  H   UNK A   0       7.284   9.736  17.592  0.00  0.00    +0.000 HD
BRANCH  16  18
ATOM     18  C   UNK A   0       8.946   9.135  18.805  0.00  0.00    +0.000 C 
BRANCH  18  19
ATOM     19  C   UNK A   0       9.283  10.578  19.054  0.00  0.00    +0.000 A 
ATOM     20  C   UNK A   0       9.434  11.467  17.980  0.00  0.00    +0.000 A 
ATOM     21  C   UNK A   0       9.740  12.811  18.209  0.00  0.00    +0.000 A 
ATOM     22  C   UNK A   0       9.893  13.278  19.513  0.00  0.00    +0.000 A 
ATOM     23  C   UNK A   0       9.727  12.408  20.589  0.00  0.00    +0.000 A 
ATOM     24  C   UNK A   0       9.422  11.064  20.361  0.00  0.00    +0.000 A 
ENDBRANCH  18  19
ENDBRANCH  16  18
ENDBRANCH  13  14
ENDBRANCH   1  13
BRANCH   2  25
ATOM     25  CA  PHE A   1       3.341   7.478  18.249  0.00  0.00    +0.000 C 
BRANCH  25  26
ATOM     26  N   PHE A   1       2.751   8.371  17.234  0.00  0.00    +0.000 NA
ATOM     27  H1  PHE A   1       1.751   8.197  17.145  0.00  0.00    +0.000 HD
ATOM     28  H2  PHE A   1       3.183   8.253  16.323  0.00  0.00    +0.000 HD
ENDBRANCH  25  26
BRANCH  25  29
ATOM     29  CB  PHE A   1       2.276   7.043  19.284  0.00  0.00    +0.000 C 
BRANCH  29  30
ATOM     30  CG  PHE A   1       1.653   8.172  20.078  0.00  0.00    +0.000 A 
ATOM     31  CD1 PHE A   1       1.139   9.297  19.415  0.00  0.00    +0.000 A 
ATOM     32  CE1 PHE A   1       0.552  10.340  20.132  0.00  0.00    +0.000 A 
ATOM     33  CZ  PHE A   1       0.470  10.264  21.527  0.00  0.00    +0.000 A 
ATOM     34  CE2 PHE A   1       0.975   9.150  22.194  0.00  0.00    +0.000 A 
ATOM     35  CD2 PHE A   1       1.560   8.109  21.473  0.00  0.00    +0.000 A 
ENDBRANCH  29  30
ENDBRANCH  25  29
ENDBRANCH   2  25
TORSDOF 13
ENDMDL
MODEL 7
REMARK VINA RESULT:      -6.6      1.147      1.659
REMARK  Name = 
REMARK  15 active torsions:
REMARK  status: ('A' for Active; 'I' for Inactive)
REMARK    1  A    between atoms: CD1_1  and  CG_2
REMARK    2  A    between atoms: CG_2  and  CD2_3
REMARK    3  A    between atoms: CG_2  and  CB_4
REMARK    4  A    between atoms: CB_4  and  CA_5
REMARK    5  A    between atoms: CA_5  and  C_6
REMARK    6  A    between atoms: CA_5  and  N_9
REMARK    7  A    between atoms: C_6  and  OXT_8
REMARK    8  A    between atoms: N_9  and  C_10
REMARK    9  A    between atoms: C_10  and  C_11
REMARK   10  A    between atoms: N_13  and  C_14
REMARK   11  A    between atoms: C_14  and  C_15
REMARK   12  A    between atoms: C_21  and  CA_23
REMARK   13  A    between atoms: CA_23  and  N_24
REMARK   14  A    between atoms: CA_23  and  CB_25
REMARK   15  A    between atoms: CB_25  and  CG_26
REMARK                            x       y       z     vdW  Elec       q    Type
REMARK                         _______ _______ _______ _____ _____    ______ ____
ROOT
ATOM      1  N   LEU A   2       4.137   4.492  17.890  0.00  0.00    +0.000 N 
ATOM      2  C   PHE A   1       5.457   4.659  17.457  0.00  0.00    +0.000 C 
ATOM      3  O   PHE A   1       6.310   3.826  17.801  0.00  0.00    +0.000 OA
ENDROOT
BRANCH   1   4
ATOM      4  CA  LEU A   2       3.921   3.387  18.896  0.00  0.00    +0.000 C 
BRANCH   4   5
ATOM      5  C   LEU A   2       3.325   2.219  18.112  0.00  0.00    +0.000 C 
ATOM      6  O   LEU A   2       2.384   2.313  17.334  0.00  0.00    +0.000 OA
BRANCH   5   7
ATOM      7  OXT LEU A   2       4.024   1.054  18.259  0.00  0.00    +0.000 OA
ATOM      8  HXT LEU A   2       4.391   0.722  17.404  0.00  0.00    +0.000 HD
ENDBRANCH   5   7
ENDBRANCH   4   5
BRANCH   4   9
ATOM      9  CB  LEU A   2       3.074   3.783  20.135  0.00  0.00    +0.000 C 
BRANCH   9  11
ATOM     10  CD1 LEU A   2       1.653   2.604  21.965  0.00  0.00    +0.000 C 
ATOM     11  CG  LEU A   2       1.789   2.999  20.495  0.00  0.00    +0.000 C 
ATOM     12  CD2 LEU A   2       0.583   3.878  20.116  0.00  0.00    +0.000 C 
ENDBRANCH   9  11
ENDBRANCH   4   9
ENDBRANCH   1   4
BRANCH   1  13
ATOM     13  C   UNK A   0       3.084   5.502  17.657  0.00  0.00    +0.000 C 
BRANCH  13  14
ATOM     14  C   UNK A   0       2.928   6.805  18.463  0.00  0.00    +0.000 C 
ATOM     15  O   UNK A   0       3.596   6.957  19.487  0.00  0.00    +0.000 OA
ATOM     16  N   UNK A   0       1.966   7.724  18.108  0.00  0.00    +0.000 N 
ATOM     17  H   UNK A   0       1.179   7.415  17.532  0.00  0.00    +0.000 HD
BRANCH  16  18
ATOM     18  C   UNK A   0       1.784   8.867  18.989  0.00  0.00    +0.000 C 
BRANCH  18  19
ATOM     19  C   UNK A   0       0.486   9.598  18.788  0.00  0.00    +0.000 A 
ATOM     20  C   UNK A   0       0.028  10.508  19.751  0.00  0.00    +0.000 A 
ATOM     21  C   UNK A   0      -1.174  11.194  19.563  0.00  0.00    +0.000 A 
ATOM     22  C   UNK A   0      -1.926  10.980  18.410  0.00  0.00    +0.000 A 
ATOM     23  C   UNK A   0      -1.472  10.091  17.437  0.00  0.00    +0.000 A 
ATOM     24  C   UNK A   0      -0.270   9.404  17.624  0.00  0.00    +0.000 A 
ENDBRANCH  18  19
ENDBRANCH  16  18
ENDBRANCH  13  14
ENDBRANCH   1  13
BRANCH   2  25
ATOM     25  CA  PHE A   1       5.849   5.882  16.579  0.00  0.00    +0.000 C 
BRANCH  25  26
ATOM     26  N   PHE A   1       6.117   7.053  17.436  0.00  0.00    +0.000 NA
ATOM     27  H1  PHE A   1       7.035   7.443  17.228  0.00  0.00    +0.000 HD
ATOM     28  H2  PHE A   1       6.080   6.821  18.423  0.00  0.00    +0.000 HD
ENDBRANCH  25  26
BRANCH  25  29
ATOM     29  CB  PHE A   1       7.103   5.508  15.752  0.00  0.00    +0.000 C 
BRANCH  29  30
ATOM     30  CG  PHE A   1       6.819   4.866  14.411  0.00  0.00    +0.000 A 
ATOM     31  CD1 PHE A   1       7.675   5.099  13.324  0.00  0.00    +0.000 A 
ATOM     32  CE1 PHE A   1       7.433   4.505  12.085  0.00  0.00    +0.000 A 
ATOM     33  CZ  PHE A   1       6.326   3.665  11.923  0.00  0.00    +0.000 A 
ATOM     34  CE2 PHE A   1       5.471   3.425  12.996  0.00  0.00    +0.000 A 
ATOM     35  CD2 PHE A   1       5.718   4.019  14.234  0.00  0.00    +0.000 A 
ENDBRANCH  29  30
ENDBRANCH  25  29
ENDBRANCH   2  25
TORSDOF 13
ENDMDL
MODEL 8
REMARK VINA RESULT:      -6.6      1.418      1.563
REMARK  Name = 
REMARK  15 active torsions:
REMARK  status: ('A' for Active; 'I' for Inactive)
REMARK    1  A    between atoms: CD1_1  and  CG_2
REMARK    2  A    between atoms: CG_2  and  CD2_3
REMARK    3  A    between atoms: CG_2  and  CB_4
REMARK    4  A    between atoms: CB_4  and  CA_5
REMARK    5  A    between atoms: CA_5  and  C_6
REMARK    6  A    between atoms: CA_5  and  N_9
REMARK    7  A    between atoms: C_6  and  OXT_8
REMARK    8  A    between atoms: N_9  and  C_10
REMARK    9  A    between atoms: C_10  and  C_11
REMARK   10  A    between atoms: N_13  and  C_14
REMARK   11  A    between atoms: C_14  and  C_15
REMARK   12  A    between atoms: C_21  and  CA_23
REMARK   13  A    between atoms: CA_23  and  N_24
REMARK   14  A    between atoms: CA_23  and  CB_25
REMARK   15  A    between atoms: CB_25  and  CG_26
REMARK                            x       y       z     vdW  Elec       q    Type
REMARK                         _______ _______ _______ _____ _____    ______ ____
ROOT
ATOM      1  N   LEU A   2       4.336   4.291  18.015  0.00  0.00    +0.000 N 
ATOM      2  C   PHE A   1       5.325   4.049  17.057  0.00  0.00    +0.000 C 
ATOM      3  O   PHE A   1       5.543   2.881  16.702  0.00  0.00    +0.000 OA
ENDROOT
BRANCH   1   4
ATOM      4  CA  LEU A   2       3.744   3.060  18.658  0.00  0.00    +0.000 C 
BRANCH   4   5
ATOM      5  C   LEU A   2       2.536   2.681  17.802  0.00  0.00    +0.000 C 
ATOM      6  O   LEU A   2       2.163   3.301  16.815  0.00  0.00    +0.000 OA
BRANCH   5   7
ATOM      7  OXT LEU A   2       1.966   1.493  18.164  0.00  0.00    +0.000 OA
ATOM      8  HXT LEU A   2       1.663   0.966  17.386  0.00  0.00    +0.000 HD
ENDBRANCH   5   7
ENDBRANCH   4   5
BRANCH   4   9
ATOM      9  CB  LEU A   2       3.399   3.207  20.164  0.00  0.00    +0.000 C 
BRANCH   9  11
ATOM     10  CD1 LEU A   2       1.423   2.547  21.719  0.00  0.00    +0.000 C 
ATOM     11  CG  LEU A   2       1.944   3.471  20.618  0.00  0.00    +0.000 C 
ATOM     12  CD2 LEU A   2       1.868   4.922  21.128  0.00  0.00    +0.000 C 
ENDBRANCH   9  11
ENDBRANCH   4   9
ENDBRANCH   1   4
BRANCH   1  13
ATOM     13  C   UNK A   0       4.103   5.624  18.608  0.00  0.00    +0.000 C 
BRANCH  13  14
ATOM     14  C   UNK A   0       2.943   6.562  18.222  0.00  0.00    +0.000 C 
ATOM     15  O   UNK A   0       1.881   6.071  17.837  0.00  0.00    +0.000 OA
ATOM     16  N   UNK A   0       3.140   7.924  18.189  0.00  0.00    +0.000 N 
ATOM     17  H   UNK A   0       4.096   8.281  18.115  0.00  0.00    +0.000 HD
BRANCH  16  18
ATOM     18  C   UNK A   0       2.046   8.740  17.688  0.00  0.00    +0.000 C 
BRANCH  18  19
ATOM     19  C   UNK A   0       1.156   9.301  18.762  0.00  0.00    +0.000 A 
ATOM     20  C   UNK A   0       0.113  10.179  18.432  0.00  0.00    +0.000 A 
ATOM     21  C   UNK A   0      -0.721  10.696  19.426  0.00  0.00    +0.000 A 
ATOM     22  C   UNK A   0      -0.523  10.336  20.758  0.00  0.00    +0.000 A 
ATOM     23  C   UNK A   0       0.499   9.450  21.096  0.00  0.00    +0.000 A 
ATOM     24  C   UNK A   0       1.334   8.934  20.102  0.00  0.00    +0.000 A 
ENDBRANCH  18  19
ENDBRANCH  16  18
ENDBRANCH  13  14
ENDBRANCH   1  13
BRANCH   2  25
ATOM     25  CA  PHE A   1       6.154   5.227  16.465  0.00  0.00    +0.000 C 
BRANCH  25  26
ATOM     26  N   PHE A   1       7.556   4.810  16.270  0.00  0.00    +0.000 NA
ATOM     27  H1  PHE A   1       7.603   3.997  15.657  0.00  0.00    +0.000 HD
ATOM     28  H2  PHE A   1       8.012   4.580  17.148  0.00  0.00    +0.000 HD
ENDBRANCH  25  26
BRANCH  25  29
ATOM     29  CB  PHE A   1       5.514   5.649  15.121  0.00  0.00    +0.000 C 
BRANCH  29  30
ATOM     30  CG  PHE A   1       5.980   4.863  13.914  0.00  0.00    +0.000 A 
ATOM     31  CD1 PHE A   1       7.197   5.185  13.293  0.00  0.00    +0.000 A 
ATOM     32  CE1 PHE A   1       7.647   4.463  12.187  0.00  0.00    +0.000 A 
ATOM     33  CZ  PHE A   1       6.878   3.403  11.691  0.00  0.00    +0.000 A 
ATOM     34  CE2 PHE A   1       5.670   3.074  12.302  0.00  0.00    +0.000 A 
ATOM     35  CD2 PHE A   1       5.226   3.798  13.409  0.00  0.00    +0.000 A 
ENDBRANCH  29  30
ENDBRANCH  25  29
ENDBRANCH   2  25
TORSDOF 13
ENDMDL
MODEL 9
REMARK VINA RESULT:      -6.6      4.487      9.154
REMARK  Name = 
REMARK  15 active torsions:
REMARK  status: ('A' for Active; 'I' for Inactive)
REMARK    1  A    between atoms: CD1_1  and  CG_2
REMARK    2  A    between atoms: CG_2  and  CD2_3
REMARK    3  A    between atoms: CG_2  and  CB_4
REMARK    4  A    between atoms: CB_4  and  CA_5
REMARK    5  A    between atoms: CA_5  and  C_6
REMARK    6  A    between atoms: CA_5  and  N_9
REMARK    7  A    between atoms: C_6  and  OXT_8
REMARK    8  A    between atoms: N_9  and  C_10
REMARK    9  A    between atoms: C_10  and  C_11
REMARK   10  A    between atoms: N_13  and  C_14
REMARK   11  A    between atoms: C_14  and  C_15
REMARK   12  A    between atoms: C_21  and  CA_23
REMARK   13  A    between atoms: CA_23  and  N_24
REMARK   14  A    between atoms: CA_23  and  CB_25
REMARK   15  A    between atoms: CB_25  and  CG_26
REMARK                            x       y       z     vdW  Elec       q    Type
REMARK                         _______ _______ _______ _____ _____    ______ ____
ROOT
ATOM      1  N   LEU A   2       0.959  11.088  20.373  0.00  0.00    +0.000 N 
ATOM      2  C   PHE A   1       1.620  12.315  20.254  0.00  0.00    +0.000 C 
ATOM      3  O   PHE A   1       1.711  13.046  21.252  0.00  0.00    +0.000 OA
ENDROOT
BRANCH   1   4
ATOM      4  CA  LEU A   2       0.259  10.856  21.689  0.00  0.00    +0.000 C 
BRANCH   4   5
ATOM      5  C   LEU A   2       0.606   9.426  22.101  0.00  0.00    +0.000 C 
ATOM      6  O   LEU A   2      -0.147   8.468  21.983  0.00  0.00    +0.000 OA
BRANCH   5   7
ATOM      7  OXT LEU A   2       1.902   9.277  22.506  0.00  0.00    +0.000 OA
ATOM      8  HXT LEU A   2       2.109   9.806  23.315  0.00  0.00    +0.000 HD
ENDBRANCH   5   7
ENDBRANCH   4   5
BRANCH   4   9
ATOM      9  CB  LEU A   2      -1.268  11.131  21.679  0.00  0.00    +0.000 C 
BRANCH   9  11
ATOM     10  CD1 LEU A   2      -2.284  12.638  19.819  0.00  0.00    +0.000 C 
ATOM     11  CG  LEU A   2      -1.817  12.520  21.270  0.00  0.00    +0.000 C 
ATOM     12  CD2 LEU A   2      -3.009  12.841  22.191  0.00  0.00    +0.000 C 
ENDBRANCH   9  11
ENDBRANCH   4   9
ENDBRANCH   1   4
BRANCH   1  13
ATOM     13  C   UNK A   0       0.673  10.217  19.214  0.00  0.00    +0.000 C 
BRANCH  13  14
ATOM     14  C   UNK A   0       1.613   9.110  18.699  0.00  0.00    +0.000 C 
ATOM     15  O   UNK A   0       2.034   9.174  17.544  0.00  0.00    +0.000 OA
ATOM     16  N   UNK A   0       1.870   8.006  19.481  0.00  0.00    +0.000 N 
ATOM     17  H   UNK A   0       1.220   7.776  20.236  0.00  0.00    +0.000 HD
BRANCH  16  18
ATOM     18  C   UNK A   0       2.656   6.939  18.882  0.00  0.00    +0.000 C 
BRANCH  18  19
ATOM     19  C   UNK A   0       2.102   5.562  19.117  0.00  0.00    +0.000 A 
ATOM     20  C   UNK A   0       1.724   5.159  20.407  0.00  0.00    +0.000 A 
ATOM     21  C   UNK A   0       1.203   3.882  20.627  0.00  0.00    +0.000 A 
ATOM     22  C   UNK A   0       1.051   2.998  19.560  0.00  0.00    +0.000 A 
ATOM     23  C   UNK A   0       1.407   3.393  18.272  0.00  0.00    +0.000 A 
ATOM     24  C   UNK A   0       1.929   4.670  18.051  0.00  0.00    +0.000 A 
ENDBRANCH  18  19
ENDBRANCH  16  18
ENDBRANCH  13  14
ENDBRANCH   1  13
BRANCH   2  25
ATOM     25  CA  PHE A   1       2.210  12.764  18.885  0.00  0.00    +0.000 C 
BRANCH  25  26
ATOM     26  N   PHE A   1       1.118  13.094  17.949  0.00  0.00    +0.000 NA
ATOM     27  H1  PHE A   1       0.651  13.953  18.237  0.00  0.00    +0.000 HD
ATOM     28  H2  PHE A   1       0.427  12.353  17.891  0.00  0.00    +0.000 HD
ENDBRANCH  25  26
BRANCH  25  29
ATOM     29  CB  PHE A   1       3.120  13.992  19.124  0.00  0.00    +0.000 C 
BRANCH  29  30
ATOM     30  CG  PHE A   1       2.608  15.293  18.544  0.00  0.00    +0.000 A 
ATOM     31  CD1 PHE A   1       1.512  15.943  19.133  0.00  0.00    +0.000 A 
ATOM     32  CE1 PHE A   1       1.036  17.148  18.617  0.00  0.00    +0.000 A 
ATOM     33  CZ  PHE A   1       1.658  17.719  17.501  0.00  0.00    +0.000 A 
ATOM     34  CE2 PHE A   1       2.747  17.084  16.910  0.00  0.00    +0.000 A 
ATOM     35  CD2 PHE A   1       3.222  15.880  17.431  0.00  0.00    +0.000 A 
ENDBRANCH  29  30
ENDBRANCH  25  29
ENDBRANCH   2  25
TORSDOF 13
ENDMDL
