MODEL 1
REMARK VINA RESULT:      -6.7      0.000      0.000
REMARK  Name = 
REMARK  8 active torsions:
REMARK  status: ('A' for Active; 'I' for Inactive)
REMARK    1  A    between atoms: C_2  and  C_3
REMARK    2  A    between atoms: C_2  and  C_21
REMARK    3  A    between atoms: C_3  and  S_4
REMARK    4  A    between atoms: S_4  and  C_5
REMARK    5  A    between atoms: C_8  and  S_9
REMARK    6  A    between atoms: S_9  and  C_10
REMARK    7  A    between atoms: C_10  and  C_11
REMARK    8  A    between atoms: C_11  and  C_13
REMARK                            x       y       z     vdW  Elec       q    Type
REMARK                         _______ _______ _______ _____ _____    ______ ____
ROOT
ATOM      1  C   UNL     1       2.359   6.916  18.838  0.00  0.00    +0.000 A 
ATOM      2  N   UNL     1       2.288   6.790  20.149  0.00  0.00    +0.000 NA
ATOM      3  N   UNL     1       1.984   5.493  20.522  0.00  0.00    +0.000 NA
ATOM      4  C   UNL     1       1.829   4.707  19.476  0.00  0.00    +0.000 A 
ATOM      5  S   UNL     1       2.026   5.483  17.963  0.00  0.00    +0.000 S 
ENDROOT
BRANCH   1   6
ATOM      6  S   UNL     1       2.782   8.432  18.073  0.00  0.00    +0.000 S 
BRANCH   6   7
ATOM      7  C   UNL     1       1.126   9.010  17.584  0.00  0.00    +0.000 C 
BRANCH   7   9
ATOM      8  O   UNL     1       0.968  10.081  19.759  0.00  0.00    +0.000 OA
ATOM      9  C   UNL     1       0.447   9.829  18.670  0.00  0.00    +0.000 C 
BRANCH   9  10
ATOM     10  C   UNL     1      -0.915  10.389  18.401  0.00  0.00    +0.000 A 
ATOM     11  C   UNL     1      -1.627   9.884  17.299  0.00  0.00    +0.000 A 
ATOM     12  C   UNL     1      -2.909  10.353  17.000  0.00  0.00    +0.000 A 
ATOM     13  C   UNL     1      -3.487  11.333  17.800  0.00  0.00    +0.000 A 
ATOM     14 CL   UNL     1      -5.064  11.914  17.434  0.00  0.00    +0.000 Cl
ATOM     15  C   UNL     1      -2.794  11.845  18.896  0.00  0.00    +0.000 A 
ATOM     16  C   UNL     1      -1.508  11.376  19.198  0.00  0.00    +0.000 A 
ENDBRANCH   9  10
ENDBRANCH   7   9
ENDBRANCH   6   7
ENDBRANCH   1   6
BRANCH   4  17
ATOM     17  S   UNL     1       1.489   2.998  19.630  0.00  0.00    +0.000 S 
BRANCH  17  18
ATOM     18  C   UNL     1       2.892   2.294  18.716  0.00  0.00    +0.000 C 
BRANCH  18  19
ATOM     19  C   UNL     1       4.232   2.623  19.356  0.00  0.00    +0.000 C 
ATOM     20  O   UNL     1       4.694   2.013  20.321  0.00  0.00    +0.000 OA
BRANCH  19  21
ATOM     21  C   UNL     1       5.048   3.733  18.769  0.00  0.00    +0.000 A 
ATOM     22  C   UNL     1       5.671   4.716  19.547  0.00  0.00    +0.000 A 
ATOM     23  C   UNL     1       6.392   5.749  18.933  0.00  0.00    +0.000 A 
ATOM     24  C   UNL     1       6.496   5.798  17.544  0.00  0.00    +0.000 A 
ATOM     25 CL   UNL     1       7.373   7.073  16.795  0.00  0.00    +0.000 Cl
ATOM     26  C   UNL     1       5.888   4.822  16.759  0.00  0.00    +0.000 A 
ATOM     27  C   UNL     1       5.166   3.794  17.370  0.00  0.00    +0.000 A 
ENDBRANCH  19  21
ENDBRANCH  18  19
ENDBRANCH  17  18
ENDBRANCH   4  17
TORSDOF 8
ENDMDL
MODEL 2
REMARK VINA RESULT:      -6.7      2.548      9.328
REMARK  Name = 
REMARK  8 active torsions:
REMARK  status: ('A' for Active; 'I' for Inactive)
REMARK    1  A    between atoms: C_2  and  C_3
REMARK    2  A    between atoms: C_2  and  C_21
REMARK    3  A    between atoms: C_3  and  S_4
REMARK    4  A    between atoms: S_4  and  C_5
REMARK    5  A    between atoms: C_8  and  S_9
REMARK    6  A    between atoms: S_9  and  C_10
REMARK    7  A    between atoms: C_10  and  C_11
REMARK    8  A    between atoms: C_11  and  C_13
REMARK                            x       y       z     vdW  Elec       q    Type
REMARK                         _______ _______ _______ _____ _____    ______ ____
ROOT
ATOM      1  C   UNL     1       2.363   5.327  19.133  0.00  0.00    +0.000 A 
ATOM      2  N   UNL     1       2.591   6.416  18.426  0.00  0.00    +0.000 NA
ATOM      3  N   UNL     1       2.264   7.561  19.130  0.00  0.00    +0.000 NA
ATOM      4  C   UNL     1       1.794   7.281  20.328  0.00  0.00    +0.000 A 
ATOM      5  S   UNL     1       1.700   5.609  20.686  0.00  0.00    +0.000 S 
ENDROOT
BRANCH   1   6
ATOM      6  S   UNL     1       2.733   3.729  18.523  0.00  0.00    +0.000 S 
BRANCH   6   7
ATOM      7  C   UNL     1       4.536   3.706  18.774  0.00  0.00    +0.000 C 
BRANCH   7   9
ATOM      8  O   UNL     1       5.232   3.717  16.446  0.00  0.00    +0.000 OA
ATOM      9  C   UNL     1       5.302   4.225  17.567  0.00  0.00    +0.000 C 
BRANCH   9  10
ATOM     10  C   UNL     1       6.167   5.436  17.733  0.00  0.00    +0.000 A 
ATOM     11  C   UNL     1       5.844   6.583  16.988  0.00  0.00    +0.000 A 
ATOM     12  C   UNL     1       6.602   7.750  17.107  0.00  0.00    +0.000 A 
ATOM     13  C   UNL     1       7.691   7.778  17.971  0.00  0.00    +0.000 A 
ATOM     14 CL   UNL     1       8.627   9.213  18.120  0.00  0.00    +0.000 Cl
ATOM     15  C   UNL     1       8.026   6.649  18.718  0.00  0.00    +0.000 A 
ATOM     16  C   UNL     1       7.266   5.476  18.600  0.00  0.00    +0.000 A 
ENDBRANCH   9  10
ENDBRANCH   7   9
ENDBRANCH   6   7
ENDBRANCH   1   6
BRANCH   4  17
ATOM     17  S   UNL     1       1.341   8.524  21.472  0.00  0.00    +0.000 S 
BRANCH  17  18
ATOM     18  C   UNL     1       0.645   9.773  20.352  0.00  0.00    +0.000 C 
BRANCH  18  19
ATOM     19  C   UNL     1       0.574  11.154  20.985  0.00  0.00    +0.000 C 
ATOM     20  O   UNL     1       1.546  11.900  21.103  0.00  0.00    +0.000 OA
BRANCH  19  21
ATOM     21  C   UNL     1      -0.754  11.645  21.473  0.00  0.00    +0.000 A 
ATOM     22  C   UNL     1      -1.174  11.516  22.802  0.00  0.00    +0.000 A 
ATOM     23  C   UNL     1      -2.444  11.966  23.186  0.00  0.00    +0.000 A 
ATOM     24  C   UNL     1      -3.292  12.550  22.247  0.00  0.00    +0.000 A 
ATOM     25 CL   UNL     1      -4.854  13.092  22.722  0.00  0.00    +0.000 Cl
ATOM     26  C   UNL     1      -2.883  12.692  20.924  0.00  0.00    +0.000 A 
ATOM     27  C   UNL     1      -1.619  12.241  20.539  0.00  0.00    +0.000 A 
ENDBRANCH  19  21
ENDBRANCH  18  19
ENDBRANCH  17  18
ENDBRANCH   4  17
TORSDOF 8
ENDMDL
MODEL 3
REMARK VINA RESULT:      -6.7      2.063      2.929
REMARK  Name = 
REMARK  8 active torsions:
REMARK  status: ('A' for Active; 'I' for Inactive)
REMARK    1  A    between atoms: C_2  and  C_3
REMARK    2  A    between atoms: C_2  and  C_21
REMARK    3  A    between atoms: C_3  and  S_4
REMARK    4  A    between atoms: S_4  and  C_5
REMARK    5  A    between atoms: C_8  and  S_9
REMARK    6  A    between atoms: S_9  and  C_10
REMARK    7  A    between atoms: C_10  and  C_11
REMARK    8  A    between atoms: C_11  and  C_13
REMARK                            x       y       z     vdW  Elec       q    Type
REMARK                         _______ _______ _______ _____ _____    ______ ____
ROOT
ATOM      1  C   UNL     1       1.618   9.102  18.983  0.00  0.00    +0.000 A 
ATOM      2  N   UNL     1       2.145   8.548  17.909  0.00  0.00    +0.000 NA
ATOM      3  N   UNL     1       2.580   7.260  18.158  0.00  0.00    +0.000 NA
ATOM      4  C   UNL     1       2.372   6.906  19.410  0.00  0.00    +0.000 A 
ATOM      5  S   UNL     1       1.646   8.115  20.382  0.00  0.00    +0.000 S 
ENDROOT
BRANCH   1   6
ATOM      6  S   UNL     1       0.931  10.711  18.958  0.00  0.00    +0.000 S 
BRANCH   6   7
ATOM      7  C   UNL     1      -0.802  10.320  19.354  0.00  0.00    +0.000 C 
BRANCH   7   9
ATOM      8  O   UNL     1      -1.390   9.951  17.026  0.00  0.00    +0.000 OA
ATOM      9  C   UNL     1      -1.710  10.382  18.136  0.00  0.00    +0.000 C 
BRANCH   9  10
ATOM     10  C   UNL     1      -3.078  10.970  18.291  0.00  0.00    +0.000 A 
ATOM     11  C   UNL     1      -3.268  11.939  19.291  0.00  0.00    +0.000 A 
ATOM     12  C   UNL     1      -4.516  12.538  19.479  0.00  0.00    +0.000 A 
ATOM     13  C   UNL     1      -5.585  12.170  18.669  0.00  0.00    +0.000 A 
ATOM     14 CL   UNL     1      -7.123  12.904  18.898  0.00  0.00    +0.000 Cl
ATOM     15  C   UNL     1      -5.413  11.210  17.672  0.00  0.00    +0.000 A 
ATOM     16  C   UNL     1      -4.162  10.608  17.482  0.00  0.00    +0.000 A 
ENDBRANCH   9  10
ENDBRANCH   7   9
ENDBRANCH   6   7
ENDBRANCH   1   6
BRANCH   4  17
ATOM     17  S   UNL     1       2.770   5.314  20.014  0.00  0.00    +0.000 S 
BRANCH  17  18
ATOM     18  C   UNL     1       3.227   4.475  18.469  0.00  0.00    +0.000 C 
BRANCH  18  19
ATOM     19  C   UNL     1       4.718   4.191  18.375  0.00  0.00    +0.000 C 
ATOM     20  O   UNL     1       5.390   3.761  19.313  0.00  0.00    +0.000 OA
BRANCH  19  21
ATOM     21  C   UNL     1       5.405   4.425  17.066  0.00  0.00    +0.000 A 
ATOM     22  C   UNL     1       4.816   4.128  15.831  0.00  0.00    +0.000 A 
ATOM     23  C   UNL     1       5.527   4.339  14.642  0.00  0.00    +0.000 A 
ATOM     24  C   UNL     1       6.823   4.850  14.685  0.00  0.00    +0.000 A 
ATOM     25 CL   UNL     1       7.695   5.097  13.223  0.00  0.00    +0.000 Cl
ATOM     26  C   UNL     1       7.418   5.157  15.905  0.00  0.00    +0.000 A 
ATOM     27  C   UNL     1       6.711   4.945  17.091  0.00  0.00    +0.000 A 
ENDBRANCH  19  21
ENDBRANCH  18  19
ENDBRANCH  17  18
ENDBRANCH   4  17
TORSDOF 8
ENDMDL
MODEL 4
REMARK VINA RESULT:      -6.6      2.844      3.889
REMARK  Name = 
REMARK  8 active torsions:
REMARK  status: ('A' for Active; 'I' for Inactive)
REMARK    1  A    between atoms: C_2  and  C_3
REMARK    2  A    between atoms: C_2  and  C_21
REMARK    3  A    between atoms: C_3  and  S_4
REMARK    4  A    between atoms: S_4  and  C_5
REMARK    5  A    between atoms: C_8  and  S_9
REMARK    6  A    between atoms: S_9  and  C_10
REMARK    7  A    between atoms: C_10  and  C_11
REMARK    8  A    between atoms: C_11  and  C_13
REMARK                            x       y       z     vdW  Elec       q    Type
REMARK                         _______ _______ _______ _____ _____    ______ ____
ROOT
ATOM      1  C   UNL     1       0.123  11.069  21.283  0.00  0.00    +0.000 A 
ATOM      2  N   UNL     1       0.837  11.006  20.176  0.00  0.00    +0.000 NA
ATOM      3  N   UNL     1       1.304   9.726  19.941  0.00  0.00    +0.000 NA
ATOM      4  C   UNL     1       0.932   8.888  20.886  0.00  0.00    +0.000 A 
ATOM      5  S   UNL     1      -0.001   9.592  22.138  0.00  0.00    +0.000 S 
ENDROOT
BRANCH   1   6
ATOM      6  S   UNL     1      -0.645  12.550  21.810  0.00  0.00    +0.000 S 
BRANCH   6   7
ATOM      7  C   UNL     1      -1.399  13.089  20.243  0.00  0.00    +0.000 C 
BRANCH   7   9
ATOM      8  O   UNL     1      -3.652  12.346  20.767  0.00  0.00    +0.000 OA
ATOM      9  C   UNL     1      -2.722  12.394  19.959  0.00  0.00    +0.000 C 
BRANCH   9  10
ATOM     10  C   UNL     1      -2.924  11.756  18.620  0.00  0.00    +0.000 A 
ATOM     11  C   UNL     1      -4.162  11.944  17.983  0.00  0.00    +0.000 A 
ATOM     12  C   UNL     1      -4.411  11.388  16.726  0.00  0.00    +0.000 A 
ATOM     13  C   UNL     1      -3.423  10.637  16.097  0.00  0.00    +0.000 A 
ATOM     14 CL   UNL     1      -3.726   9.950  14.550  0.00  0.00    +0.000 Cl
ATOM     15  C   UNL     1      -2.189  10.441  16.716  0.00  0.00    +0.000 A 
ATOM     16  C   UNL     1      -1.937  10.998  17.978  0.00  0.00    +0.000 A 
ENDBRANCH   9  10
ENDBRANCH   7   9
ENDBRANCH   6   7
ENDBRANCH   1   6
BRANCH   4  17
ATOM     17  S   UNL     1       1.328   7.185  20.839  0.00  0.00    +0.000 S 
BRANCH  17  18
ATOM     18  C   UNL     1       2.458   7.143  19.418  0.00  0.00    +0.000 C 
BRANCH  18  19
ATOM     19  C   UNL     1       3.192   5.817  19.292  0.00  0.00    +0.000 C 
ATOM     20  O   UNL     1       3.184   4.949  20.165  0.00  0.00    +0.000 OA
BRANCH  19  21
ATOM     21  C   UNL     1       3.948   5.540  18.029  0.00  0.00    +0.000 A 
ATOM     22  C   UNL     1       4.213   4.245  17.568  0.00  0.00    +0.000 A 
ATOM     23  C   UNL     1       4.956   4.053  16.396  0.00  0.00    +0.000 A 
ATOM     24  C   UNL     1       5.430   5.153  15.681  0.00  0.00    +0.000 A 
ATOM     25 CL   UNL     1       6.350   4.912  14.248  0.00  0.00    +0.000 Cl
ATOM     26  C   UNL     1       5.166   6.445  16.125  0.00  0.00    +0.000 A 
ATOM     27  C   UNL     1       4.428   6.637  17.295  0.00  0.00    +0.000 A 
ENDBRANCH  19  21
ENDBRANCH  18  19
ENDBRANCH  17  18
ENDBRANCH   4  17
TORSDOF 8
ENDMDL
MODEL 5
REMARK VINA RESULT:      -6.6      2.368      3.077
REMARK  Name = 
REMARK  8 active torsions:
REMARK  status: ('A' for Active; 'I' for Inactive)
REMARK    1  A    between atoms: C_2  and  C_3
REMARK    2  A    between atoms: C_2  and  C_21
REMARK    3  A    between atoms: C_3  and  S_4
REMARK    4  A    between atoms: S_4  and  C_5
REMARK    5  A    between atoms: C_8  and  S_9
REMARK    6  A    between atoms: S_9  and  C_10
REMARK    7  A    between atoms: C_10  and  C_11
REMARK    8  A    between atoms: C_11  and  C_13
REMARK                            x       y       z     vdW  Elec       q    Type
REMARK                         _______ _______ _______ _____ _____    ______ ____
ROOT
ATOM      1  C   UNL     1       1.594   9.515  18.895  0.00  0.00    +0.000 A 
ATOM      2  N   UNL     1       2.129   9.428  17.693  0.00  0.00    +0.000 NA
ATOM      3  N   UNL     1       2.561   8.144  17.418  0.00  0.00    +0.000 NA
ATOM      4  C   UNL     1       2.343   7.327  18.428  0.00  0.00    +0.000 A 
ATOM      5  S   UNL     1       1.611   8.057  19.792  0.00  0.00    +0.000 S 
ENDROOT
BRANCH   1   6
ATOM      6  S   UNL     1       0.908  11.006  19.501  0.00  0.00    +0.000 S 
BRANCH   6   7
ATOM      7  C   UNL     1      -0.703  10.395  20.090  0.00  0.00    +0.000 C 
BRANCH   7   9
ATOM      8  O   UNL     1      -2.358  12.166  20.262  0.00  0.00    +0.000 OA
ATOM      9  C   UNL     1      -1.866  11.247  19.605  0.00  0.00    +0.000 C 
BRANCH   9  10
ATOM     10  C   UNL     1      -2.431  10.980  18.244  0.00  0.00    +0.000 A 
ATOM     11  C   UNL     1      -1.723  10.108  17.398  0.00  0.00    +0.000 A 
ATOM     12  C   UNL     1      -2.202   9.806  16.121  0.00  0.00    +0.000 A 
ATOM     13  C   UNL     1      -3.392  10.374  15.680  0.00  0.00    +0.000 A 
ATOM     14 CL   UNL     1      -3.985  10.005  14.108  0.00  0.00    +0.000 Cl
ATOM     15  C   UNL     1      -4.107  11.241  16.507  0.00  0.00    +0.000 A 
ATOM     16  C   UNL     1      -3.627  11.546  17.788  0.00  0.00    +0.000 A 
ENDBRANCH   9  10
ENDBRANCH   7   9
ENDBRANCH   6   7
ENDBRANCH   1   6
BRANCH   4  17
ATOM     17  S   UNL     1       2.737   5.624  18.359  0.00  0.00    +0.000 S 
BRANCH  17  18
ATOM     18  C   UNL     1       4.053   5.534  19.607  0.00  0.00    +0.000 C 
BRANCH  18  19
ATOM     19  C   UNL     1       5.415   5.228  19.002  0.00  0.00    +0.000 C 
ATOM     20  O   UNL     1       6.453   5.160  19.660  0.00  0.00    +0.000 OA
BRANCH  19  21
ATOM     21  C   UNL     1       5.497   4.973  17.528  0.00  0.00    +0.000 A 
ATOM     22  C   UNL     1       5.789   5.975  16.595  0.00  0.00    +0.000 A 
ATOM     23  C   UNL     1       5.816   5.677  15.227  0.00  0.00    +0.000 A 
ATOM     24  C   UNL     1       5.558   4.378  14.789  0.00  0.00    +0.000 A 
ATOM     25 CL   UNL     1       5.583   4.020  13.107  0.00  0.00    +0.000 Cl
ATOM     26  C   UNL     1       5.274   3.371  15.707  0.00  0.00    +0.000 A 
ATOM     27  C   UNL     1       5.243   3.668  17.071  0.00  0.00    +0.000 A 
ENDBRANCH  19  21
ENDBRANCH  18  19
ENDBRANCH  17  18
ENDBRANCH   4  17
TORSDOF 8
ENDMDL
MODEL 6
REMARK VINA RESULT:      -6.5      1.829      9.077
REMARK  Name = 
REMARK  8 active torsions:
REMARK  status: ('A' for Active; 'I' for Inactive)
REMARK    1  A    between atoms: C_2  and  C_3
REMARK    2  A    between atoms: C_2  and  C_21
REMARK    3  A    between atoms: C_3  and  S_4
REMARK    4  A    between atoms: S_4  and  C_5
REMARK    5  A    between atoms: C_8  and  S_9
REMARK    6  A    between atoms: S_9  and  C_10
REMARK    7  A    between atoms: C_10  and  C_11
REMARK    8  A    between atoms: C_11  and  C_13
REMARK                            x       y       z     vdW  Elec       q    Type
REMARK                         _______ _______ _______ _____ _____    ______ ____
ROOT
ATOM      1  C   UNL     1       2.410   4.966  19.042  0.00  0.00    +0.000 A 
ATOM      2  N   UNL     1       2.534   6.009  18.245  0.00  0.00    +0.000 NA
ATOM      3  N   UNL     1       2.194   7.186  18.885  0.00  0.00    +0.000 NA
ATOM      4  C   UNL     1       1.818   6.975  20.130  0.00  0.00    +0.000 A 
ATOM      5  S   UNL     1       1.836   5.332  20.612  0.00  0.00    +0.000 S 
ENDROOT
BRANCH   1   6
ATOM      6  S   UNL     1       2.824   3.347  18.525  0.00  0.00    +0.000 S 
BRANCH   6   7
ATOM      7  C   UNL     1       4.497   3.208  19.229  0.00  0.00    +0.000 C 
BRANCH   7   9
ATOM      8  O   UNL     1       5.696   5.261  19.733  0.00  0.00    +0.000 OA
ATOM      9  C   UNL     1       5.371   4.409  18.903  0.00  0.00    +0.000 C 
BRANCH   9  10
ATOM     10  C   UNL     1       5.894   4.557  17.508  0.00  0.00    +0.000 A 
ATOM     11  C   UNL     1       5.253   3.835  16.485  0.00  0.00    +0.000 A 
ATOM     12  C   UNL     1       5.682   3.939  15.160  0.00  0.00    +0.000 A 
ATOM     13  C   UNL     1       6.757   4.764  14.847  0.00  0.00    +0.000 A 
ATOM     14 CL   UNL     1       7.288   4.894  13.216  0.00  0.00    +0.000 Cl
ATOM     15  C   UNL     1       7.404   5.487  15.849  0.00  0.00    +0.000 A 
ATOM     16  C   UNL     1       6.975   5.384  17.180  0.00  0.00    +0.000 A 
ENDBRANCH   9  10
ENDBRANCH   7   9
ENDBRANCH   6   7
ENDBRANCH   1   6
BRANCH   4  17
ATOM     17  S   UNL     1       1.376   8.277  21.211  0.00  0.00    +0.000 S 
BRANCH  17  18
ATOM     18  C   UNL     1       1.186   9.643  20.028  0.00  0.00    +0.000 C 
BRANCH  18  19
ATOM     19  C   UNL     1       0.273  10.744  20.546  0.00  0.00    +0.000 C 
ATOM     20  O   UNL     1       0.513  11.409  21.554  0.00  0.00    +0.000 OA
BRANCH  19  21
ATOM     21  C   UNL     1      -0.975  11.053  19.778  0.00  0.00    +0.000 A 
ATOM     22  C   UNL     1      -1.892  12.034  20.175  0.00  0.00    +0.000 A 
ATOM     23  C   UNL     1      -3.059  12.251  19.431  0.00  0.00    +0.000 A 
ATOM     24  C   UNL     1      -3.308  11.493  18.287  0.00  0.00    +0.000 A 
ATOM     25 CL   UNL     1      -4.747  11.756  17.382  0.00  0.00    +0.000 Cl
ATOM     26  C   UNL     1      -2.401  10.520  17.877  0.00  0.00    +0.000 A 
ATOM     27  C   UNL     1      -1.240  10.301  18.620  0.00  0.00    +0.000 A 
ENDBRANCH  19  21
ENDBRANCH  18  19
ENDBRANCH  17  18
ENDBRANCH   4  17
TORSDOF 8
ENDMDL
MODEL 7
REMARK VINA RESULT:      -6.5      3.142      3.877
REMARK  Name = 
REMARK  8 active torsions:
REMARK  status: ('A' for Active; 'I' for Inactive)
REMARK    1  A    between atoms: C_2  and  C_3
REMARK    2  A    between atoms: C_2  and  C_21
REMARK    3  A    between atoms: C_3  and  S_4
REMARK    4  A    between atoms: S_4  and  C_5
REMARK    5  A    between atoms: C_8  and  S_9
REMARK    6  A    between atoms: S_9  and  C_10
REMARK    7  A    between atoms: C_10  and  C_11
REMARK    8  A    between atoms: C_11  and  C_13
REMARK                            x       y       z     vdW  Elec       q    Type
REMARK                         _______ _______ _______ _____ _____    ______ ____
ROOT
ATOM      1  C   UNL     1       1.803   7.199  20.142  0.00  0.00    +0.000 A 
ATOM      2  N   UNL     1       2.284   7.521  18.958  0.00  0.00    +0.000 NA
ATOM      3  N   UNL     1       2.669   6.403  18.241  0.00  0.00    +0.000 NA
ATOM      4  C   UNL     1       2.471   5.293  18.921  0.00  0.00    +0.000 A 
ATOM      5  S   UNL     1       1.817   5.522  20.487  0.00  0.00    +0.000 S 
ENDROOT
BRANCH   1   6
ATOM      6  S   UNL     1       1.185   8.401  21.253  0.00  0.00    +0.000 S 
BRANCH   6   7
ATOM      7  C   UNL     1       0.836   9.756  20.088  0.00  0.00    +0.000 C 
BRANCH   7   9
ATOM      8  O   UNL     1       0.505  11.323  21.916  0.00  0.00    +0.000 OA
ATOM      9  C   UNL     1       0.866  11.123  20.753  0.00  0.00    +0.000 C 
BRANCH   9  10
ATOM     10  C   UNL     1       1.386  12.290  19.973  0.00  0.00    +0.000 A 
ATOM     11  C   UNL     1       1.316  13.562  20.566  0.00  0.00    +0.000 A 
ATOM     12  C   UNL     1       1.796  14.690  19.897  0.00  0.00    +0.000 A 
ATOM     13  C   UNL     1       2.349  14.555  18.628  0.00  0.00    +0.000 A 
ATOM     14 CL   UNL     1       2.941  15.942  17.801  0.00  0.00    +0.000 Cl
ATOM     15  C   UNL     1       2.425  13.300  18.025  0.00  0.00    +0.000 A 
ATOM     16  C   UNL     1       1.944  12.166  18.694  0.00  0.00    +0.000 A 
ENDBRANCH   9  10
ENDBRANCH   7   9
ENDBRANCH   6   7
ENDBRANCH   1   6
BRANCH   4  17
ATOM     17  S   UNL     1       2.813   3.711  18.257  0.00  0.00    +0.000 S 
BRANCH  17  18
ATOM     18  C   UNL     1       4.606   3.614  18.532  0.00  0.00    +0.000 C 
BRANCH  18  19
ATOM     19  C   UNL     1       5.408   4.181  17.370  0.00  0.00    +0.000 C 
ATOM     20  O   UNL     1       5.447   3.664  16.253  0.00  0.00    +0.000 OA
BRANCH  19  21
ATOM     21  C   UNL     1       6.175   5.449  17.587  0.00  0.00    +0.000 A 
ATOM     22  C   UNL     1       5.884   6.641  16.913  0.00  0.00    +0.000 A 
ATOM     23  C   UNL     1       6.663   7.784  17.136  0.00  0.00    +0.000 A 
ATOM     24  C   UNL     1       7.727   7.740  18.035  0.00  0.00    +0.000 A 
ATOM     25 CL   UNL     1       8.686   9.143  18.297  0.00  0.00    +0.000 Cl
ATOM     26  C   UNL     1       8.022   6.563  18.717  0.00  0.00    +0.000 A 
ATOM     27  C   UNL     1       7.249   5.422  18.494  0.00  0.00    +0.000 A 
ENDBRANCH  19  21
ENDBRANCH  18  19
ENDBRANCH  17  18
ENDBRANCH   4  17
TORSDOF 8
ENDMDL
MODEL 8
REMARK VINA RESULT:      -6.5      1.778      2.338
REMARK  Name = 
REMARK  8 active torsions:
REMARK  status: ('A' for Active; 'I' for Inactive)
REMARK    1  A    between atoms: C_2  and  C_3
REMARK    2  A    between atoms: C_2  and  C_21
REMARK    3  A    between atoms: C_3  and  S_4
REMARK    4  A    between atoms: S_4  and  C_5
REMARK    5  A    between atoms: C_8  and  S_9
REMARK    6  A    between atoms: S_9  and  C_10
REMARK    7  A    between atoms: C_10  and  C_11
REMARK    8  A    between atoms: C_11  and  C_13
REMARK                            x       y       z     vdW  Elec       q    Type
REMARK                         _______ _______ _______ _____ _____    ______ ____
ROOT
ATOM      1  C   UNL     1       2.044   8.142  18.510  0.00  0.00    +0.000 A 
ATOM      2  N   UNL     1       2.306   7.298  17.532  0.00  0.00    +0.000 NA
ATOM      3  N   UNL     1       2.569   6.027  18.009  0.00  0.00    +0.000 NA
ATOM      4  C   UNL     1       2.503   5.975  19.324  0.00  0.00    +0.000 A 
ATOM      5  S   UNL     1       2.133   7.467  20.080  0.00  0.00    +0.000 S 
ENDROOT
BRANCH   1   6
ATOM      6  S   UNL     1       1.620   9.813  18.207  0.00  0.00    +0.000 S 
BRANCH   6   7
ATOM      7  C   UNL     1       0.475  10.103  19.593  0.00  0.00    +0.000 C 
BRANCH   7   9
ATOM      8  O   UNL     1       0.183  12.515  19.651  0.00  0.00    +0.000 OA
ATOM      9  C   UNL     1      -0.305  11.401  19.447  0.00  0.00    +0.000 C 
BRANCH   9  10
ATOM     10  C   UNL     1      -1.733  11.333  19.003  0.00  0.00    +0.000 A 
ATOM     11  C   UNL     1      -2.650  12.212  19.603  0.00  0.00    +0.000 A 
ATOM     12  C   UNL     1      -3.995  12.211  19.225  0.00  0.00    +0.000 A 
ATOM     13  C   UNL     1      -4.433  11.327  18.245  0.00  0.00    +0.000 A 
ATOM     14 CL   UNL     1      -6.088  11.321  17.777  0.00  0.00    +0.000 Cl
ATOM     15  C   UNL     1      -3.536  10.447  17.639  0.00  0.00    +0.000 A 
ATOM     16  C   UNL     1      -2.186  10.448  18.017  0.00  0.00    +0.000 A 
ENDBRANCH   9  10
ENDBRANCH   7   9
ENDBRANCH   6   7
ENDBRANCH   1   6
BRANCH   4  17
ATOM     17  S   UNL     1       2.738   4.490  20.217  0.00  0.00    +0.000 S 
BRANCH  17  18
ATOM     18  C   UNL     1       3.835   3.588  19.085  0.00  0.00    +0.000 C 
BRANCH  18  19
ATOM     19  C   UNL     1       5.187   4.263  18.918  0.00  0.00    +0.000 C 
ATOM     20  O   UNL     1       5.855   4.693  19.859  0.00  0.00    +0.000 OA
BRANCH  19  21
ATOM     21  C   UNL     1       5.752   4.394  17.537  0.00  0.00    +0.000 A 
ATOM     22  C   UNL     1       7.081   4.754  17.287  0.00  0.00    +0.000 A 
ATOM     23  C   UNL     1       7.537   4.893  15.969  0.00  0.00    +0.000 A 
ATOM     24  C   UNL     1       6.670   4.667  14.902  0.00  0.00    +0.000 A 
ATOM     25 CL   UNL     1       7.232   4.849  13.287  0.00  0.00    +0.000 Cl
ATOM     26  C   UNL     1       5.347   4.300  15.137  0.00  0.00    +0.000 A 
ATOM     27  C   UNL     1       4.891   4.165  16.449  0.00  0.00    +0.000 A 
ENDBRANCH  19  21
ENDBRANCH  18  19
ENDBRANCH  17  18
ENDBRANCH   4  17
TORSDOF 8
ENDMDL
MODEL 9
REMARK VINA RESULT:      -6.5      1.078      1.513
REMARK  Name = 
REMARK  8 active torsions:
REMARK  status: ('A' for Active; 'I' for Inactive)
REMARK    1  A    between atoms: C_2  and  C_3
REMARK    2  A    between atoms: C_2  and  C_21
REMARK    3  A    between atoms: C_3  and  S_4
REMARK    4  A    between atoms: S_4  and  C_5
REMARK    5  A    between atoms: C_8  and  S_9
REMARK    6  A    between atoms: S_9  and  C_10
REMARK    7  A    between atoms: C_10  and  C_11
REMARK    8  A    between atoms: C_11  and  C_13
REMARK                            x       y       z     vdW  Elec       q    Type
REMARK                         _______ _______ _______ _____ _____    ______ ____
ROOT
ATOM      1  C   UNL     1       1.926   6.049  19.850  0.00  0.00    +0.000 A 
ATOM      2  N   UNL     1       1.903   5.296  20.931  0.00  0.00    +0.000 NA
ATOM      3  N   UNL     1       1.805   3.953  20.617  0.00  0.00    +0.000 NA
ATOM      4  C   UNL     1       1.747   3.758  19.315  0.00  0.00    +0.000 A 
ATOM      5  S   UNL     1       1.792   5.189  18.376  0.00  0.00    +0.000 S 
ENDROOT
BRANCH   1   6
ATOM      6  S   UNL     1       2.101   7.788  19.933  0.00  0.00    +0.000 S 
BRANCH   6   7
ATOM      7  C   UNL     1       1.669   8.230  18.220  0.00  0.00    +0.000 C 
BRANCH   7   9
ATOM      8  O   UNL     1       2.391  10.478  17.647  0.00  0.00    +0.000 OA
ATOM      9  C   UNL     1       1.490   9.728  18.029  0.00  0.00    +0.000 C 
BRANCH   9  10
ATOM     10  C   UNL     1       0.143  10.328  18.288  0.00  0.00    +0.000 A 
ATOM     11  C   UNL     1      -0.949   9.832  17.555  0.00  0.00    +0.000 A 
ATOM     12  C   UNL     1      -2.235  10.338  17.758  0.00  0.00    +0.000 A 
ATOM     13  C   UNL     1      -2.438  11.347  18.694  0.00  0.00    +0.000 A 
ATOM     14 CL   UNL     1      -4.020  11.974  18.946  0.00  0.00    +0.000 Cl
ATOM     15  C   UNL     1      -1.365  11.851  19.429  0.00  0.00    +0.000 A 
ATOM     16  C   UNL     1      -0.074  11.344  19.227  0.00  0.00    +0.000 A 
ENDBRANCH   9  10
ENDBRANCH   7   9
ENDBRANCH   6   7
ENDBRANCH   1   6
BRANCH   4  17
ATOM     17  S   UNL     1       1.670   2.159  18.609  0.00  0.00    +0.000 S 
BRANCH  17  18
ATOM     18  C   UNL     1       3.365   1.990  17.978  0.00  0.00    +0.000 C 
BRANCH  18  19
ATOM     19  C   UNL     1       4.398   2.619  18.900  0.00  0.00    +0.000 C 
ATOM     20  O   UNL     1       4.671   2.179  20.017  0.00  0.00    +0.000 OA
BRANCH  19  21
ATOM     21  C   UNL     1       5.142   3.826  18.417  0.00  0.00    +0.000 A 
ATOM     22  C   UNL     1       5.280   4.145  17.061  0.00  0.00    +0.000 A 
ATOM     23  C   UNL     1       6.019   5.270  16.674  0.00  0.00    +0.000 A 
ATOM     24  C   UNL     1       6.614   6.081  17.639  0.00  0.00    +0.000 A 
ATOM     25 CL   UNL     1       7.528   7.456  17.158  0.00  0.00    +0.000 Cl
ATOM     26  C   UNL     1       6.477   5.780  18.991  0.00  0.00    +0.000 A 
ATOM     27  C   UNL     1       5.744   4.656  19.378  0.00  0.00    +0.000 A 
ENDBRANCH  19  21
ENDBRANCH  18  19
ENDBRANCH  17  18
ENDBRANCH   4  17
TORSDOF 8
ENDMDL
