MODEL 1
REMARK VINA RESULT:      -7.7      0.000      0.000
REMARK  Name = 
REMARK  10 active torsions:
REMARK  status: ('A' for Active; 'I' for Inactive)
REMARK    1  A    between atoms: C_1  and  S_2
REMARK    2  A    between atoms: S_2  and  C_3
REMARK    3  A    between atoms: C_8  and  O_9
REMARK    4  A    between atoms: O_9  and  C_10
REMARK    5  A    between atoms: C_10  and  C_11
REMARK    6  A    between atoms: C_13  and  C_14
REMARK    7  A    between atoms: N_16  and  C_17
REMARK    8  A    between atoms: N_16  and  C_18
REMARK    9  A    between atoms: C_18  and  C_19
REMARK   10  A    between atoms: C_22  and  C_23
REMARK                            x       y       z     vdW  Elec       q    Type
REMARK                         _______ _______ _______ _____ _____    ______ ____
ROOT
ATOM      1  C   UNL     1       8.144   8.392  17.981  0.00  0.00    +0.000 A 
ATOM      2  C   UNL     1       7.454   7.700  17.021  0.00  0.00    +0.000 A 
ATOM      3  C   UNL     1       7.393   6.364  17.494  0.00  0.00    +0.000 A 
ATOM      4  N   UNL     1       7.988   6.280  18.699  0.00  0.00    +0.000 NA
ATOM      5  O   UNL     1       8.467   7.546  18.990  0.00  0.00    +0.000 OA
ENDROOT
BRANCH   3   6
ATOM      6  C   UNL     1       6.715   5.200  16.892  0.00  0.00    +0.000 C 
ATOM      7  O   UNL     1       7.365   4.285  16.381  0.00  0.00    +0.000 OA
ATOM      8  N   UNL     1       5.315   5.119  16.967  0.00  0.00    +0.000 N 
ATOM      9  C   UNL     1       4.416   6.210  17.311  0.00  0.00    +0.000 C 
BRANCH   8  10
ATOM     10  C   UNL     1       4.715   3.795  16.850  0.00  0.00    +0.000 C 
BRANCH  10  11
ATOM     11  C   UNL     1       4.053   3.442  18.135  0.00  0.00    +0.000 A 
ATOM     12  C   UNL     1       4.546   3.156  19.389  0.00  0.00    +0.000 A 
ATOM     13  C   UNL     1       3.426   2.918  20.219  0.00  0.00    +0.000 A 
ATOM     14  C   UNL     1       2.312   3.072  19.421  0.00  0.00    +0.000 A 
ATOM     15  C   UNL     1       0.865   2.958  19.679  0.00  0.00    +0.000 C 
ATOM     16  O   UNL     1       2.686   3.389  18.148  0.00  0.00    +0.000 OA
ENDBRANCH  10  11
ENDBRANCH   8  10
ENDBRANCH   3   6
BRANCH   1  17
ATOM     17  C   UNL     1       8.519   9.818  18.114  0.00  0.00    +0.000 C 
BRANCH  17  18
ATOM     18  O   UNL     1       9.168   9.951  19.369  0.00  0.00    +0.000 OA
BRANCH  18  24
ATOM     19  C   UNL     1       9.796  11.966  20.760  0.00  0.00    +0.000 A 
ATOM     20  C   UNL     1      10.665  13.077  20.798  0.00  0.00    +0.000 A 
ATOM     21  C   UNL     1      11.595  13.319  19.786  0.00  0.00    +0.000 A 
ATOM     22  C   UNL     1      11.668  12.458  18.703  0.00  0.00    +0.000 A 
ATOM     23  C   UNL     1      10.820  11.351  18.648  0.00  0.00    +0.000 A 
ATOM     24  C   UNL     1       9.882  11.084  19.664  0.00  0.00    +0.000 A 
BRANCH  19  26
ATOM     25  C   UNL     1       7.853  13.550  21.962  0.00  0.00    +0.000 C 
ATOM     26  S   UNL     1       8.582  11.895  22.083  0.00  0.00    +0.000 S 
ENDBRANCH  19  26
ENDBRANCH  18  24
ENDBRANCH  17  18
ENDBRANCH   1  17
TORSDOF 7
ENDMDL
MODEL 2
REMARK VINA RESULT:      -7.6      1.203      1.908
REMARK  Name = 
REMARK  10 active torsions:
REMARK  status: ('A' for Active; 'I' for Inactive)
REMARK    1  A    between atoms: C_1  and  S_2
REMARK    2  A    between atoms: S_2  and  C_3
REMARK    3  A    between atoms: C_8  and  O_9
REMARK    4  A    between atoms: O_9  and  C_10
REMARK    5  A    between atoms: C_10  and  C_11
REMARK    6  A    between atoms: C_13  and  C_14
REMARK    7  A    between atoms: N_16  and  C_17
REMARK    8  A    between atoms: N_16  and  C_18
REMARK    9  A    between atoms: C_18  and  C_19
REMARK   10  A    between atoms: C_22  and  C_23
REMARK                            x       y       z     vdW  Elec       q    Type
REMARK                         _______ _______ _______ _____ _____    ______ ____
ROOT
ATOM      1  C   UNL     1       8.255   8.495  18.071  0.00  0.00    +0.000 A 
ATOM      2  C   UNL     1       7.575   7.840  17.079  0.00  0.00    +0.000 A 
ATOM      3  C   UNL     1       7.476   6.495  17.519  0.00  0.00    +0.000 A 
ATOM      4  N   UNL     1       8.039   6.371  18.735  0.00  0.00    +0.000 NA
ATOM      5  O   UNL     1       8.535   7.620  19.068  0.00  0.00    +0.000 OA
ENDROOT
BRANCH   3   6
ATOM      6  C   UNL     1       6.790   5.359  16.873  0.00  0.00    +0.000 C 
ATOM      7  O   UNL     1       7.425   4.371  16.493  0.00  0.00    +0.000 OA
ATOM      8  N   UNL     1       5.392   5.393  16.754  0.00  0.00    +0.000 N 
ATOM      9  C   UNL     1       4.550   6.566  16.927  0.00  0.00    +0.000 C 
BRANCH   8  10
ATOM     10  C   UNL     1       4.704   4.115  16.605  0.00  0.00    +0.000 C 
BRANCH  10  11
ATOM     11  C   UNL     1       4.081   3.740  17.904  0.00  0.00    +0.000 A 
ATOM     12  C   UNL     1       4.614   3.391  19.125  0.00  0.00    +0.000 A 
ATOM     13  C   UNL     1       3.521   3.164  19.993  0.00  0.00    +0.000 A 
ATOM     14  C   UNL     1       2.382   3.388  19.248  0.00  0.00    +0.000 A 
ATOM     15  C   UNL     1       0.943   3.318  19.564  0.00  0.00    +0.000 C 
ATOM     16  O   UNL     1       2.715   3.737  17.972  0.00  0.00    +0.000 OA
ENDBRANCH  10  11
ENDBRANCH   8  10
ENDBRANCH   3   6
BRANCH   1  17
ATOM     17  C   UNL     1       8.655   9.910  18.247  0.00  0.00    +0.000 C 
BRANCH  17  18
ATOM     18  O   UNL     1       9.322   9.990  19.497  0.00  0.00    +0.000 OA
BRANCH  18  24
ATOM     19  C   UNL     1      10.514  12.219  19.545  0.00  0.00    +0.000 A 
ATOM     20  C   UNL     1      10.683  13.385  20.322  0.00  0.00    +0.000 A 
ATOM     21  C   UNL     1      10.029  13.557  21.542  0.00  0.00    +0.000 A 
ATOM     22  C   UNL     1       9.197  12.557  22.021  0.00  0.00    +0.000 A 
ATOM     23  C   UNL     1       9.014  11.398  21.267  0.00  0.00    +0.000 A 
ATOM     24  C   UNL     1       9.658  11.209  20.028  0.00  0.00    +0.000 A 
BRANCH  19  26
ATOM     25  C   UNL     1      10.922  13.547  17.137  0.00  0.00    +0.000 C 
ATOM     26  S   UNL     1      11.539  12.123  18.072  0.00  0.00    +0.000 S 
ENDBRANCH  19  26
ENDBRANCH  18  24
ENDBRANCH  17  18
ENDBRANCH   1  17
TORSDOF 7
ENDMDL
MODEL 3
REMARK VINA RESULT:      -7.6      1.460      2.207
REMARK  Name = 
REMARK  10 active torsions:
REMARK  status: ('A' for Active; 'I' for Inactive)
REMARK    1  A    between atoms: C_1  and  S_2
REMARK    2  A    between atoms: S_2  and  C_3
REMARK    3  A    between atoms: C_8  and  O_9
REMARK    4  A    between atoms: O_9  and  C_10
REMARK    5  A    between atoms: C_10  and  C_11
REMARK    6  A    between atoms: C_13  and  C_14
REMARK    7  A    between atoms: N_16  and  C_17
REMARK    8  A    between atoms: N_16  and  C_18
REMARK    9  A    between atoms: C_18  and  C_19
REMARK   10  A    between atoms: C_22  and  C_23
REMARK                            x       y       z     vdW  Elec       q    Type
REMARK                         _______ _______ _______ _____ _____    ______ ____
ROOT
ATOM      1  C   UNL     1       8.090   8.469  18.087  0.00  0.00    +0.000 A 
ATOM      2  C   UNL     1       7.142   7.862  17.307  0.00  0.00    +0.000 A 
ATOM      3  C   UNL     1       7.131   6.504  17.720  0.00  0.00    +0.000 A 
ATOM      4  N   UNL     1       8.007   6.329  18.727  0.00  0.00    +0.000 NA
ATOM      5  O   UNL     1       8.612   7.556  18.941  0.00  0.00    +0.000 OA
ENDROOT
BRANCH   3   6
ATOM      6  C   UNL     1       6.260   5.405  17.262  0.00  0.00    +0.000 C 
ATOM      7  O   UNL     1       6.446   4.865  16.168  0.00  0.00    +0.000 OA
ATOM      8  N   UNL     1       5.251   4.939  18.120  0.00  0.00    +0.000 N 
ATOM      9  C   UNL     1       4.763   5.620  19.309  0.00  0.00    +0.000 C 
BRANCH   8  10
ATOM     10  C   UNL     1       4.761   3.583  17.899  0.00  0.00    +0.000 C 
BRANCH  10  11
ATOM     11  C   UNL     1       3.332   3.506  18.308  0.00  0.00    +0.000 A 
ATOM     12  C   UNL     1       2.157   3.763  17.638  0.00  0.00    +0.000 A 
ATOM     13  C   UNL     1       1.106   3.488  18.543  0.00  0.00    +0.000 A 
ATOM     14  C   UNL     1       1.703   3.080  19.717  0.00  0.00    +0.000 A 
ATOM     15  C   UNL     1       1.168   2.659  21.025  0.00  0.00    +0.000 C 
ATOM     16  O   UNL     1       3.061   3.091  19.582  0.00  0.00    +0.000 OA
ENDBRANCH  10  11
ENDBRANCH   8  10
ENDBRANCH   3   6
BRANCH   1  17
ATOM     17  C   UNL     1       8.563   9.869  18.182  0.00  0.00    +0.000 C 
BRANCH  17  18
ATOM     18  O   UNL     1       9.332   9.957  19.371  0.00  0.00    +0.000 OA
BRANCH  18  24
ATOM     19  C   UNL     1      10.590  12.149  19.344  0.00  0.00    +0.000 A 
ATOM     20  C   UNL     1      10.803  13.330  20.087  0.00  0.00    +0.000 A 
ATOM     21  C   UNL     1      10.170  13.555  21.309  0.00  0.00    +0.000 A 
ATOM     22  C   UNL     1       9.315  12.594  21.825  0.00  0.00    +0.000 A 
ATOM     23  C   UNL     1       9.089  11.421  21.105  0.00  0.00    +0.000 A 
ATOM     24  C   UNL     1       9.710  11.179  19.864  0.00  0.00    +0.000 A 
BRANCH  19  26
ATOM     25  C   UNL     1      11.197  13.532  17.010  0.00  0.00    +0.000 C 
ATOM     26  S   UNL     1      11.593  11.983  17.863  0.00  0.00    +0.000 S 
ENDBRANCH  19  26
ENDBRANCH  18  24
ENDBRANCH  17  18
ENDBRANCH   1  17
TORSDOF 7
ENDMDL
MODEL 4
REMARK VINA RESULT:      -7.4      4.869      7.799
REMARK  Name = 
REMARK  10 active torsions:
REMARK  status: ('A' for Active; 'I' for Inactive)
REMARK    1  A    between atoms: C_1  and  S_2
REMARK    2  A    between atoms: S_2  and  C_3
REMARK    3  A    between atoms: C_8  and  O_9
REMARK    4  A    between atoms: O_9  and  C_10
REMARK    5  A    between atoms: C_10  and  C_11
REMARK    6  A    between atoms: C_13  and  C_14
REMARK    7  A    between atoms: N_16  and  C_17
REMARK    8  A    between atoms: N_16  and  C_18
REMARK    9  A    between atoms: C_18  and  C_19
REMARK   10  A    between atoms: C_22  and  C_23
REMARK                            x       y       z     vdW  Elec       q    Type
REMARK                         _______ _______ _______ _____ _____    ______ ____
ROOT
ATOM      1  C   UNL     1       2.580   7.880  18.149  0.00  0.00    +0.000 A 
ATOM      2  C   UNL     1       3.659   7.254  17.583  0.00  0.00    +0.000 A 
ATOM      3  C   UNL     1       4.051   6.263  18.519  0.00  0.00    +0.000 A 
ATOM      4  N   UNL     1       3.214   6.278  19.574  0.00  0.00    +0.000 NA
ATOM      5  O   UNL     1       2.308   7.299  19.343  0.00  0.00    +0.000 OA
ENDROOT
BRANCH   3   6
ATOM      6  C   UNL     1       5.119   5.253  18.403  0.00  0.00    +0.000 C 
ATOM      7  O   UNL     1       4.905   4.071  18.689  0.00  0.00    +0.000 OA
ATOM      8  N   UNL     1       6.370   5.645  17.902  0.00  0.00    +0.000 N 
ATOM      9  C   UNL     1       6.839   7.014  17.757  0.00  0.00    +0.000 C 
BRANCH   8  10
ATOM     10  C   UNL     1       7.213   4.605  17.322  0.00  0.00    +0.000 C 
BRANCH  10  11
ATOM     11  C   UNL     1       6.895   4.467  15.875  0.00  0.00    +0.000 A 
ATOM     12  C   UNL     1       5.908   3.783  15.200  0.00  0.00    +0.000 A 
ATOM     13  C   UNL     1       6.100   4.048  13.824  0.00  0.00    +0.000 A 
ATOM     14  C   UNL     1       7.198   4.879  13.740  0.00  0.00    +0.000 A 
ATOM     15  C   UNL     1       7.902   5.504  12.605  0.00  0.00    +0.000 C 
ATOM     16  O   UNL     1       7.689   5.136  14.986  0.00  0.00    +0.000 OA
ENDBRANCH  10  11
ENDBRANCH   8  10
ENDBRANCH   3   6
BRANCH   1  17
ATOM     17  C   UNL     1       1.693   8.969  17.681  0.00  0.00    +0.000 C 
BRANCH  17  18
ATOM     18  O   UNL     1       0.995   9.443  18.822  0.00  0.00    +0.000 OA
BRANCH  18  24
ATOM     19  C   UNL     1      -0.577  11.326  19.430  0.00  0.00    +0.000 A 
ATOM     20  C   UNL     1      -1.788  11.943  19.053  0.00  0.00    +0.000 A 
ATOM     21  C   UNL     1      -2.536  11.493  17.964  0.00  0.00    +0.000 A 
ATOM     22  C   UNL     1      -2.093  10.402  17.233  0.00  0.00    +0.000 A 
ATOM     23  C   UNL     1      -0.896   9.780  17.588  0.00  0.00    +0.000 A 
ATOM     24  C   UNL     1      -0.121  10.225  18.677  0.00  0.00    +0.000 A 
BRANCH  19  26
ATOM     25  C   UNL     1       1.701  12.679  20.274  0.00  0.00    +0.000 C 
ATOM     26  S   UNL     1       0.173  11.963  20.934  0.00  0.00    +0.000 S 
ENDBRANCH  19  26
ENDBRANCH  18  24
ENDBRANCH  17  18
ENDBRANCH   1  17
TORSDOF 7
ENDMDL
MODEL 5
REMARK VINA RESULT:      -7.3      5.212      7.742
REMARK  Name = 
REMARK  10 active torsions:
REMARK  status: ('A' for Active; 'I' for Inactive)
REMARK    1  A    between atoms: C_1  and  S_2
REMARK    2  A    between atoms: S_2  and  C_3
REMARK    3  A    between atoms: C_8  and  O_9
REMARK    4  A    between atoms: O_9  and  C_10
REMARK    5  A    between atoms: C_10  and  C_11
REMARK    6  A    between atoms: C_13  and  C_14
REMARK    7  A    between atoms: N_16  and  C_17
REMARK    8  A    between atoms: N_16  and  C_18
REMARK    9  A    between atoms: C_18  and  C_19
REMARK   10  A    between atoms: C_22  and  C_23
REMARK                            x       y       z     vdW  Elec       q    Type
REMARK                         _______ _______ _______ _____ _____    ______ ____
ROOT
ATOM      1  C   UNL     1       2.558   7.844  18.099  0.00  0.00    +0.000 A 
ATOM      2  C   UNL     1       3.637   7.215  17.538  0.00  0.00    +0.000 A 
ATOM      3  C   UNL     1       4.063   6.268  18.505  0.00  0.00    +0.000 A 
ATOM      4  N   UNL     1       3.246   6.311  19.574  0.00  0.00    +0.000 NA
ATOM      5  O   UNL     1       2.317   7.306  19.320  0.00  0.00    +0.000 OA
ENDROOT
BRANCH   3   6
ATOM      6  C   UNL     1       5.147   5.273  18.410  0.00  0.00    +0.000 C 
ATOM      7  O   UNL     1       4.956   4.097  18.732  0.00  0.00    +0.000 OA
ATOM      8  N   UNL     1       6.388   5.670  17.885  0.00  0.00    +0.000 N 
ATOM      9  C   UNL     1       6.832   7.042  17.696  0.00  0.00    +0.000 C 
BRANCH   8  10
ATOM     10  C   UNL     1       7.243   4.628  17.328  0.00  0.00    +0.000 C 
BRANCH  10  11
ATOM     11  C   UNL     1       6.931   4.459  15.883  0.00  0.00    +0.000 A 
ATOM     12  C   UNL     1       5.967   3.736  15.216  0.00  0.00    +0.000 A 
ATOM     13  C   UNL     1       6.155   3.987  13.837  0.00  0.00    +0.000 A 
ATOM     14  C   UNL     1       7.226   4.849  13.743  0.00  0.00    +0.000 A 
ATOM     15  C   UNL     1       7.914   5.479  12.601  0.00  0.00    +0.000 C 
ATOM     16  O   UNL     1       7.707   5.140  14.986  0.00  0.00    +0.000 OA
ENDBRANCH  10  11
ENDBRANCH   8  10
ENDBRANCH   3   6
BRANCH   1  17
ATOM     17  C   UNL     1       1.644   8.898  17.605  0.00  0.00    +0.000 C 
BRANCH  17  18
ATOM     18  O   UNL     1       0.972   9.418  18.741  0.00  0.00    +0.000 OA
BRANCH  18  24
ATOM     19  C   UNL     1      -0.921  11.038  18.318  0.00  0.00    +0.000 A 
ATOM     20  C   UNL     1      -1.255  12.409  18.355  0.00  0.00    +0.000 A 
ATOM     21  C   UNL     1      -0.335  13.380  18.750  0.00  0.00    +0.000 A 
ATOM     22  C   UNL     1       0.951  13.002  19.106  0.00  0.00    +0.000 A 
ATOM     23  C   UNL     1       1.299  11.652  19.079  0.00  0.00    +0.000 A 
ATOM     24  C   UNL     1       0.381  10.654  18.694  0.00  0.00    +0.000 A 
BRANCH  19  26
ATOM     25  C   UNL     1      -2.668  10.862  16.162  0.00  0.00    +0.000 C 
ATOM     26  S   UNL     1      -2.195   9.956  17.659  0.00  0.00    +0.000 S 
ENDBRANCH  19  26
ENDBRANCH  18  24
ENDBRANCH  17  18
ENDBRANCH   1  17
TORSDOF 7
ENDMDL
MODEL 6
REMARK VINA RESULT:      -7.3      1.198      1.453
REMARK  Name = 
REMARK  10 active torsions:
REMARK  status: ('A' for Active; 'I' for Inactive)
REMARK    1  A    between atoms: C_1  and  S_2
REMARK    2  A    between atoms: S_2  and  C_3
REMARK    3  A    between atoms: C_8  and  O_9
REMARK    4  A    between atoms: O_9  and  C_10
REMARK    5  A    between atoms: C_10  and  C_11
REMARK    6  A    between atoms: C_13  and  C_14
REMARK    7  A    between atoms: N_16  and  C_17
REMARK    8  A    between atoms: N_16  and  C_18
REMARK    9  A    between atoms: C_18  and  C_19
REMARK   10  A    between atoms: C_22  and  C_23
REMARK                            x       y       z     vdW  Elec       q    Type
REMARK                         _______ _______ _______ _____ _____    ______ ____
ROOT
ATOM      1  C   UNL     1       8.045   7.888  18.324  0.00  0.00    +0.000 A 
ATOM      2  C   UNL     1       7.706   6.567  18.450  0.00  0.00    +0.000 A 
ATOM      3  C   UNL     1       6.776   6.318  17.407  0.00  0.00    +0.000 A 
ATOM      4  N   UNL     1       6.605   7.435  16.674  0.00  0.00    +0.000 NA
ATOM      5  O   UNL     1       7.389   8.414  17.261  0.00  0.00    +0.000 OA
ENDROOT
BRANCH   3   6
ATOM      6  C   UNL     1       6.128   5.048  17.030  0.00  0.00    +0.000 C 
ATOM      7  O   UNL     1       6.746   4.185  16.400  0.00  0.00    +0.000 OA
ATOM      8  N   UNL     1       4.811   4.809  17.454  0.00  0.00    +0.000 N 
ATOM      9  C   UNL     1       3.890   5.806  17.978  0.00  0.00    +0.000 C 
BRANCH   8  10
ATOM     10  C   UNL     1       4.376   3.418  17.531  0.00  0.00    +0.000 C 
BRANCH  10  11
ATOM     11  C   UNL     1       3.126   3.340  18.334  0.00  0.00    +0.000 A 
ATOM     12  C   UNL     1       1.793   3.382  17.988  0.00  0.00    +0.000 A 
ATOM     13  C   UNL     1       1.059   3.235  19.187  0.00  0.00    +0.000 A 
ATOM     14  C   UNL     1       1.989   3.112  20.198  0.00  0.00    +0.000 A 
ATOM     15  C   UNL     1       1.872   2.936  21.657  0.00  0.00    +0.000 C 
ATOM     16  O   UNL     1       3.251   3.178  19.686  0.00  0.00    +0.000 OA
ENDBRANCH  10  11
ENDBRANCH   8  10
ENDBRANCH   3   6
BRANCH   1  17
ATOM     17  C   UNL     1       8.983   8.757  19.069  0.00  0.00    +0.000 C 
BRANCH  17  18
ATOM     18  O   UNL     1       8.821  10.068  18.551  0.00  0.00    +0.000 OA
BRANCH  18  24
ATOM     19  C   UNL     1       9.943  11.772  20.042  0.00  0.00    +0.000 A 
ATOM     20  C   UNL     1      10.958  12.752  20.060  0.00  0.00    +0.000 A 
ATOM     21  C   UNL     1      11.744  13.019  18.939  0.00  0.00    +0.000 A 
ATOM     22  C   UNL     1      11.522  12.318  17.764  0.00  0.00    +0.000 A 
ATOM     23  C   UNL     1      10.526  11.343  17.726  0.00  0.00    +0.000 A 
ATOM     24  C   UNL     1       9.728  11.051  18.851  0.00  0.00    +0.000 A 
BRANCH  19  26
ATOM     25  C   UNL     1       9.098  13.360  22.162  0.00  0.00    +0.000 C 
ATOM     26  S   UNL     1       8.953  11.665  21.538  0.00  0.00    +0.000 S 
ENDBRANCH  19  26
ENDBRANCH  18  24
ENDBRANCH  17  18
ENDBRANCH   1  17
TORSDOF 7
ENDMDL
MODEL 7
REMARK VINA RESULT:      -7.3      1.983      2.105
REMARK  Name = 
REMARK  10 active torsions:
REMARK  status: ('A' for Active; 'I' for Inactive)
REMARK    1  A    between atoms: C_1  and  S_2
REMARK    2  A    between atoms: S_2  and  C_3
REMARK    3  A    between atoms: C_8  and  O_9
REMARK    4  A    between atoms: O_9  and  C_10
REMARK    5  A    between atoms: C_10  and  C_11
REMARK    6  A    between atoms: C_13  and  C_14
REMARK    7  A    between atoms: N_16  and  C_17
REMARK    8  A    between atoms: N_16  and  C_18
REMARK    9  A    between atoms: C_18  and  C_19
REMARK   10  A    between atoms: C_22  and  C_23
REMARK                            x       y       z     vdW  Elec       q    Type
REMARK                         _______ _______ _______ _____ _____    ______ ____
ROOT
ATOM      1  C   UNL     1       8.196   8.443  18.233  0.00  0.00    +0.000 A 
ATOM      2  C   UNL     1       8.113   7.121  18.580  0.00  0.00    +0.000 A 
ATOM      3  C   UNL     1       7.186   6.553  17.669  0.00  0.00    +0.000 A 
ATOM      4  N   UNL     1       6.772   7.491  16.797  0.00  0.00    +0.000 NA
ATOM      5  O   UNL     1       7.395   8.672  17.164  0.00  0.00    +0.000 OA
ENDROOT
BRANCH   3   6
ATOM      6  C   UNL     1       6.760   5.146  17.539  0.00  0.00    +0.000 C 
ATOM      7  O   UNL     1       7.081   4.308  18.387  0.00  0.00    +0.000 OA
ATOM      8  N   UNL     1       5.928   4.787  16.467  0.00  0.00    +0.000 N 
ATOM      9  C   UNL     1       5.672   5.590  15.281  0.00  0.00    +0.000 C 
BRANCH   8  10
ATOM     10  C   UNL     1       5.121   3.582  16.623  0.00  0.00    +0.000 C 
BRANCH  10  11
ATOM     11  C   UNL     1       3.854   3.928  17.324  0.00  0.00    +0.000 A 
ATOM     12  C   UNL     1       3.301   5.129  17.709  0.00  0.00    +0.000 A 
ATOM     13  C   UNL     1       2.062   4.827  18.319  0.00  0.00    +0.000 A 
ATOM     14  C   UNL     1       1.931   3.455  18.272  0.00  0.00    +0.000 A 
ATOM     15  C   UNL     1       0.883   2.527  18.735  0.00  0.00    +0.000 C 
ATOM     16  O   UNL     1       3.022   2.899  17.669  0.00  0.00    +0.000 OA
ENDBRANCH  10  11
ENDBRANCH   8  10
ENDBRANCH   3   6
BRANCH   1  17
ATOM     17  C   UNL     1       9.002   9.569  18.759  0.00  0.00    +0.000 C 
BRANCH  17  18
ATOM     18  O   UNL     1       8.568  10.733  18.074  0.00  0.00    +0.000 OA
BRANCH  18  24
ATOM     19  C   UNL     1       9.104  13.195  17.870  0.00  0.00    +0.000 A 
ATOM     20  C   UNL     1      10.175  14.104  17.744  0.00  0.00    +0.000 A 
ATOM     21  C   UNL     1      11.503  13.676  17.704  0.00  0.00    +0.000 A 
ATOM     22  C   UNL     1      11.788  12.321  17.776  0.00  0.00    +0.000 A 
ATOM     23  C   UNL     1      10.743  11.406  17.905  0.00  0.00    +0.000 A 
ATOM     24  C   UNL     1       9.397  11.819  17.958  0.00  0.00    +0.000 A 
BRANCH  19  26
ATOM     25  C   UNL     1       7.370  14.765  19.373  0.00  0.00    +0.000 C 
ATOM     26  S   UNL     1       7.464  13.923  17.771  0.00  0.00    +0.000 S 
ENDBRANCH  19  26
ENDBRANCH  18  24
ENDBRANCH  17  18
ENDBRANCH   1  17
TORSDOF 7
ENDMDL
MODEL 8
REMARK VINA RESULT:      -7.1      1.492      1.728
REMARK  Name = 
REMARK  10 active torsions:
REMARK  status: ('A' for Active; 'I' for Inactive)
REMARK    1  A    between atoms: C_1  and  S_2
REMARK    2  A    between atoms: S_2  and  C_3
REMARK    3  A    between atoms: C_8  and  O_9
REMARK    4  A    between atoms: O_9  and  C_10
REMARK    5  A    between atoms: C_10  and  C_11
REMARK    6  A    between atoms: C_13  and  C_14
REMARK    7  A    between atoms: N_16  and  C_17
REMARK    8  A    between atoms: N_16  and  C_18
REMARK    9  A    between atoms: C_18  and  C_19
REMARK   10  A    between atoms: C_22  and  C_23
REMARK                            x       y       z     vdW  Elec       q    Type
REMARK                         _______ _______ _______ _____ _____    ______ ____
ROOT
ATOM      1  C   UNL     1       8.238   8.857  17.963  0.00  0.00    +0.000 A 
ATOM      2  C   UNL     1       7.501   7.993  17.198  0.00  0.00    +0.000 A 
ATOM      3  C   UNL     1       7.599   6.738  17.852  0.00  0.00    +0.000 A 
ATOM      4  N   UNL     1       8.329   6.866  18.976  0.00  0.00    +0.000 NA
ATOM      5  O   UNL     1       8.737   8.188  19.032  0.00  0.00    +0.000 OA
ENDROOT
BRANCH   3   6
ATOM      6  C   UNL     1       6.951   5.460  17.501  0.00  0.00    +0.000 C 
ATOM      7  O   UNL     1       7.580   4.570  16.922  0.00  0.00    +0.000 OA
ATOM      8  N   UNL     1       5.620   5.245  17.894  0.00  0.00    +0.000 N 
ATOM      9  C   UNL     1       4.693   6.267  18.354  0.00  0.00    +0.000 C 
BRANCH   8  10
ATOM     10  C   UNL     1       5.172   3.862  18.008  0.00  0.00    +0.000 C 
BRANCH  10  11
ATOM     11  C   UNL     1       3.694   3.839  18.184  0.00  0.00    +0.000 A 
ATOM     12  C   UNL     1       2.649   3.918  17.291  0.00  0.00    +0.000 A 
ATOM     13  C   UNL     1       1.460   3.816  18.050  0.00  0.00    +0.000 A 
ATOM     14  C   UNL     1       1.850   3.682  19.365  0.00  0.00    +0.000 A 
ATOM     15  C   UNL     1       1.102   3.536  20.628  0.00  0.00    +0.000 C 
ATOM     16  O   UNL     1       3.212   3.697  19.456  0.00  0.00    +0.000 OA
ENDBRANCH  10  11
ENDBRANCH   8  10
ENDBRANCH   3   6
BRANCH   1  17
ATOM     17  C   UNL     1       8.513  10.308  17.855  0.00  0.00    +0.000 C 
BRANCH  17  18
ATOM     18  O   UNL     1       8.929  10.739  19.141  0.00  0.00    +0.000 OA
BRANCH  18  24
ATOM     19  C   UNL     1       9.689  13.150  19.144  0.00  0.00    +0.000 A 
ATOM     20  C   UNL     1      10.824  13.969  19.323  0.00  0.00    +0.000 A 
ATOM     21  C   UNL     1      12.079  13.434  19.619  0.00  0.00    +0.000 A 
ATOM     22  C   UNL     1      12.228  12.060  19.730  0.00  0.00    +0.000 A 
ATOM     23  C   UNL     1      11.118  11.234  19.560  0.00  0.00    +0.000 A 
ATOM     24  C   UNL     1       9.841  11.755  19.271  0.00  0.00    +0.000 A 
BRANCH  19  26
ATOM     25  C   UNL     1       8.897  15.520  17.923  0.00  0.00    +0.000 C 
ATOM     26  S   UNL     1       8.194  14.010  18.639  0.00  0.00    +0.000 S 
ENDBRANCH  19  26
ENDBRANCH  18  24
ENDBRANCH  17  18
ENDBRANCH   1  17
TORSDOF 7
ENDMDL
MODEL 9
REMARK VINA RESULT:      -7.0      1.766      1.856
REMARK  Name = 
REMARK  10 active torsions:
REMARK  status: ('A' for Active; 'I' for Inactive)
REMARK    1  A    between atoms: C_1  and  S_2
REMARK    2  A    between atoms: S_2  and  C_3
REMARK    3  A    between atoms: C_8  and  O_9
REMARK    4  A    between atoms: O_9  and  C_10
REMARK    5  A    between atoms: C_10  and  C_11
REMARK    6  A    between atoms: C_13  and  C_14
REMARK    7  A    between atoms: N_16  and  C_17
REMARK    8  A    between atoms: N_16  and  C_18
REMARK    9  A    between atoms: C_18  and  C_19
REMARK   10  A    between atoms: C_22  and  C_23
REMARK                            x       y       z     vdW  Elec       q    Type
REMARK                         _______ _______ _______ _____ _____    ______ ____
ROOT
ATOM      1  C   UNL     1       8.399   8.613  18.470  0.00  0.00    +0.000 A 
ATOM      2  C   UNL     1       8.191   7.317  18.861  0.00  0.00    +0.000 A 
ATOM      3  C   UNL     1       7.432   6.729  17.816  0.00  0.00    +0.000 A 
ATOM      4  N   UNL     1       7.236   7.629  16.834  0.00  0.00    +0.000 NA
ATOM      5  O   UNL     1       7.830   8.807  17.255  0.00  0.00    +0.000 OA
ENDROOT
BRANCH   3   6
ATOM      6  C   UNL     1       6.976   5.333  17.677  0.00  0.00    +0.000 C 
ATOM      7  O   UNL     1       7.745   4.393  17.895  0.00  0.00    +0.000 OA
ATOM      8  N   UNL     1       5.632   5.089  17.354  0.00  0.00    +0.000 N 
ATOM      9  C   UNL     1       4.688   6.069  16.839  0.00  0.00    +0.000 C 
BRANCH   8  10
ATOM     10  C   UNL     1       5.084   3.787  17.715  0.00  0.00    +0.000 C 
BRANCH  10  11
ATOM     11  C   UNL     1       3.993   3.973  18.711  0.00  0.00    +0.000 A 
ATOM     12  C   UNL     1       3.867   4.792  19.811  0.00  0.00    +0.000 A 
ATOM     13  C   UNL     1       2.587   4.542  20.357  0.00  0.00    +0.000 A 
ATOM     14  C   UNL     1       2.005   3.581  19.556  0.00  0.00    +0.000 A 
ATOM     15  C   UNL     1       0.699   2.899  19.589  0.00  0.00    +0.000 C 
ATOM     16  O   UNL     1       2.858   3.227  18.552  0.00  0.00    +0.000 OA
ENDBRANCH  10  11
ENDBRANCH   8  10
ENDBRANCH   3   6
BRANCH   1  17
ATOM     17  C   UNL     1       9.138   9.739  19.085  0.00  0.00    +0.000 C 
BRANCH  17  18
ATOM     18  O   UNL     1       9.466  10.633  18.033  0.00  0.00    +0.000 OA
BRANCH  18  24
ATOM     19  C   UNL     1       9.599  13.140  18.327  0.00  0.00    +0.000 A 
ATOM     20  C   UNL     1      10.494  14.188  18.628  0.00  0.00    +0.000 A 
ATOM     21  C   UNL     1      11.842  13.951  18.897  0.00  0.00    +0.000 A 
ATOM     22  C   UNL     1      12.331  12.655  18.858  0.00  0.00    +0.000 A 
ATOM     23  C   UNL     1      11.462  11.604  18.566  0.00  0.00    +0.000 A 
ATOM     24  C   UNL     1      10.095  11.821  18.301  0.00  0.00    +0.000 A 
BRANCH  19  26
ATOM     25  C   UNL     1       8.071  15.450  18.084  0.00  0.00    +0.000 C 
ATOM     26  S   UNL     1       7.936  13.654  17.881  0.00  0.00    +0.000 S 
ENDBRANCH  19  26
ENDBRANCH  18  24
ENDBRANCH  17  18
ENDBRANCH   1  17
TORSDOF 7
ENDMDL
