MODEL 1
REMARK VINA RESULT:      -6.2      0.000      0.000
REMARK  Name = 
REMARK  3 active torsions:
REMARK  status: ('A' for Active; 'I' for Inactive)
REMARK    1  A    between atoms: C_1  and  C_2
REMARK    2  A    between atoms: C_4  and  N_5
REMARK    3  A    between atoms: C_8  and  N_9
REMARK                            x       y       z     vdW  Elec       q    Type
REMARK                         _______ _______ _______ _____ _____    ______ ____
ROOT
ATOM      1  C   UNL     1       1.581   2.695  21.489  0.00  0.00    +0.000 C 
ATOM      2  C   UNL     1       2.171   3.709  20.558  0.00  0.00    +0.000 A 
ATOM      3  C   UNL     1       1.945   5.063  20.742  0.00  0.00    +0.000 A 
ATOM      4  C   UNL     1       2.452   5.974  19.814  0.00  0.00    +0.000 A 
ATOM      5  C   UNL     1       3.285   5.497  18.771  0.00  0.00    +0.000 A 
ATOM      6  C   UNL     1       3.911   6.331  17.807  0.00  0.00    +0.000 A 
ATOM      7  C   UNL     1       4.700   5.809  16.780  0.00  0.00    +0.000 A 
ATOM      8  C   UNL     1       4.817   4.429  16.678  0.00  0.00    +0.000 A 
ATOM      9  C   UNL     1       4.231   3.598  17.637  0.00  0.00    +0.000 A 
ATOM     10  C   UNL     1       3.468   4.102  18.678  0.00  0.00    +0.000 A 
ATOM     11  N   UNL     1       2.921   3.232  19.542  0.00  0.00    +0.000 NA
ENDROOT
BRANCH   4  12
ATOM     12  N   UNL     1       2.285   7.353  20.076  0.00  0.00    +0.000 N 
ATOM     13  H   UNL     1       3.118   7.793  20.454  0.00  0.00    +0.000 HD
ATOM     14  H   UNL     1       1.470   7.562  20.642  0.00  0.00    +0.000 HD
ENDBRANCH   4  12
BRANCH   7  15
ATOM     15  N   UNL     1       5.150   6.637  15.747  0.00  0.00    +0.000 N 
ATOM     16  H   UNL     1       5.394   7.577  16.043  0.00  0.00    +0.000 HD
ATOM     17  H   UNL     1       5.867   6.219  15.163  0.00  0.00    +0.000 HD
ENDBRANCH   7  15
TORSDOF 2
ENDMDL
MODEL 2
REMARK VINA RESULT:      -6.0      1.774      4.361
REMARK  Name = 
REMARK  3 active torsions:
REMARK  status: ('A' for Active; 'I' for Inactive)
REMARK    1  A    between atoms: C_1  and  C_2
REMARK    2  A    between atoms: C_4  and  N_5
REMARK    3  A    between atoms: C_8  and  N_9
REMARK                            x       y       z     vdW  Elec       q    Type
REMARK                         _______ _______ _______ _____ _____    ______ ____
ROOT
ATOM      1  C   UNL     1       6.563   4.772  15.446  0.00  0.00    +0.000 C 
ATOM      2  C   UNL     1       5.361   4.792  16.339  0.00  0.00    +0.000 A 
ATOM      3  C   UNL     1       4.817   5.988  16.777  0.00  0.00    +0.000 A 
ATOM      4  C   UNL     1       3.741   5.967  17.664  0.00  0.00    +0.000 A 
ATOM      5  C   UNL     1       3.157   4.721  18.003  0.00  0.00    +0.000 A 
ATOM      6  C   UNL     1       2.021   4.575  18.842  0.00  0.00    +0.000 A 
ATOM      7  C   UNL     1       1.500   3.321  19.169  0.00  0.00    +0.000 A 
ATOM      8  C   UNL     1       2.160   2.193  18.701  0.00  0.00    +0.000 A 
ATOM      9  C   UNL     1       3.261   2.322  17.848  0.00  0.00    +0.000 A 
ATOM     10  C   UNL     1       3.773   3.559  17.493  0.00  0.00    +0.000 A 
ATOM     11  N   UNL     1       4.849   3.593  16.690  0.00  0.00    +0.000 NA
ENDROOT
BRANCH   4  12
ATOM     12  N   UNL     1       3.149   7.200  18.021  0.00  0.00    +0.000 N 
ATOM     13  H   UNL     1       2.272   7.378  17.542  0.00  0.00    +0.000 HD
ATOM     14  H   UNL     1       3.778   7.990  17.940  0.00  0.00    +0.000 HD
ENDBRANCH   4  12
BRANCH   7  15
ATOM     15  N   UNL     1       0.499   3.205  20.138  0.00  0.00    +0.000 N 
ATOM     16  H   UNL     1      -0.088   2.382  20.034  0.00  0.00    +0.000 HD
ATOM     17  H   UNL     1       0.827   3.325  21.091  0.00  0.00    +0.000 HD
ENDBRANCH   7  15
TORSDOF 2
ENDMDL
MODEL 3
REMARK VINA RESULT:      -6.0      1.483      2.853
REMARK  Name = 
REMARK  3 active torsions:
REMARK  status: ('A' for Active; 'I' for Inactive)
REMARK    1  A    between atoms: C_1  and  C_2
REMARK    2  A    between atoms: C_4  and  N_5
REMARK    3  A    between atoms: C_8  and  N_9
REMARK                            x       y       z     vdW  Elec       q    Type
REMARK                         _______ _______ _______ _____ _____    ______ ____
ROOT
ATOM      1  C   UNL     1       1.066   4.327  20.489  0.00  0.00    +0.000 C 
ATOM      2  C   UNL     1       2.139   4.218  19.448  0.00  0.00    +0.000 A 
ATOM      3  C   UNL     1       2.660   2.987  19.087  0.00  0.00    +0.000 A 
ATOM      4  C   UNL     1       3.706   2.930  18.166  0.00  0.00    +0.000 A 
ATOM      5  C   UNL     1       4.131   4.127  17.536  0.00  0.00    +0.000 A 
ATOM      6  C   UNL     1       5.138   4.189  16.539  0.00  0.00    +0.000 A 
ATOM      7  C   UNL     1       5.541   5.398  15.969  0.00  0.00    +0.000 A 
ATOM      8  C   UNL     1       4.972   6.571  16.446  0.00  0.00    +0.000 A 
ATOM      9  C   UNL     1       3.956   6.523  17.406  0.00  0.00    +0.000 A 
ATOM     10  C   UNL     1       3.527   5.329  17.961  0.00  0.00    +0.000 A 
ATOM     11  N   UNL     1       2.564   5.374  18.896  0.00  0.00    +0.000 NA
ENDROOT
BRANCH   4  12
ATOM     12  N   UNL     1       4.155   1.657  17.747  0.00  0.00    +0.000 N 
ATOM     13  H   UNL     1       5.119   1.467  18.004  0.00  0.00    +0.000 HD
ATOM     14  H   UNL     1       3.996   1.475  16.763  0.00  0.00    +0.000 HD
ENDBRANCH   4  12
BRANCH   7  15
ATOM     15  N   UNL     1       6.656   5.444  15.126  0.00  0.00    +0.000 N 
ATOM     16  H   UNL     1       7.321   6.177  15.356  0.00  0.00    +0.000 HD
ATOM     17  H   UNL     1       7.107   4.546  14.985  0.00  0.00    +0.000 HD
ENDBRANCH   7  15
TORSDOF 2
ENDMDL
MODEL 4
REMARK VINA RESULT:      -5.9      1.576      5.034
REMARK  Name = 
REMARK  3 active torsions:
REMARK  status: ('A' for Active; 'I' for Inactive)
REMARK    1  A    between atoms: C_1  and  C_2
REMARK    2  A    between atoms: C_4  and  N_5
REMARK    3  A    between atoms: C_8  and  N_9
REMARK                            x       y       z     vdW  Elec       q    Type
REMARK                         _______ _______ _______ _____ _____    ______ ____
ROOT
ATOM      1  C   UNL     1       5.133   5.910  16.078  0.00  0.00    +0.000 C 
ATOM      2  C   UNL     1       4.483   5.014  17.088  0.00  0.00    +0.000 A 
ATOM      3  C   UNL     1       4.575   3.636  16.982  0.00  0.00    +0.000 A 
ATOM      4  C   UNL     1       3.899   2.833  17.901  0.00  0.00    +0.000 A 
ATOM      5  C   UNL     1       3.230   3.449  18.988  0.00  0.00    +0.000 A 
ATOM      6  C   UNL     1       2.562   2.738  20.020  0.00  0.00    +0.000 A 
ATOM      7  C   UNL     1       1.892   3.393  21.054  0.00  0.00    +0.000 A 
ATOM      8  C   UNL     1       1.836   4.781  21.026  0.00  0.00    +0.000 A 
ATOM      9  C   UNL     1       2.514   5.495  20.033  0.00  0.00    +0.000 A 
ATOM     10  C   UNL     1       3.206   4.859  19.015  0.00  0.00    +0.000 A 
ATOM     11  N   UNL     1       3.809   5.620  18.088  0.00  0.00    +0.000 NA
ENDROOT
BRANCH   4  12
ATOM     12  N   UNL     1       4.086   1.434  17.825  0.00  0.00    +0.000 N 
ATOM     13  H   UNL     1       3.888   1.052  16.905  0.00  0.00    +0.000 HD
ATOM     14  H   UNL     1       3.596   0.920  18.549  0.00  0.00    +0.000 HD
ENDBRANCH   4  12
BRANCH   7  15
ATOM     15  N   UNL     1       1.096   2.670  21.948  0.00  0.00    +0.000 N 
ATOM     16  H   UNL     1       1.575   1.898  22.401  0.00  0.00    +0.000 HD
ATOM     17  H   UNL     1       0.584   3.247  22.608  0.00  0.00    +0.000 HD
ENDBRANCH   7  15
TORSDOF 2
ENDMDL
MODEL 5
REMARK VINA RESULT:      -5.9      2.156      4.732
REMARK  Name = 
REMARK  3 active torsions:
REMARK  status: ('A' for Active; 'I' for Inactive)
REMARK    1  A    between atoms: C_1  and  C_2
REMARK    2  A    between atoms: C_4  and  N_5
REMARK    3  A    between atoms: C_8  and  N_9
REMARK                            x       y       z     vdW  Elec       q    Type
REMARK                         _______ _______ _______ _____ _____    ______ ____
ROOT
ATOM      1  C   UNL     1       6.628   4.067  14.611  0.00  0.00    +0.000 C 
ATOM      2  C   UNL     1       6.094   4.385  15.974  0.00  0.00    +0.000 A 
ATOM      3  C   UNL     1       6.948   4.703  17.018  0.00  0.00    +0.000 A 
ATOM      4  C   UNL     1       6.420   4.924  18.290  0.00  0.00    +0.000 A 
ATOM      5  C   UNL     1       5.012   4.931  18.457  0.00  0.00    +0.000 A 
ATOM      6  C   UNL     1       4.356   5.207  19.685  0.00  0.00    +0.000 A 
ATOM      7  C   UNL     1       2.966   5.173  19.804  0.00  0.00    +0.000 A 
ATOM      8  C   UNL     1       2.220   4.799  18.694  0.00  0.00    +0.000 A 
ATOM      9  C   UNL     1       2.851   4.555  17.469  0.00  0.00    +0.000 A 
ATOM     10  C   UNL     1       4.228   4.611  17.329  0.00  0.00    +0.000 A 
ATOM     11  N   UNL     1       4.753   4.338  16.124  0.00  0.00    +0.000 NA
ENDROOT
BRANCH   4  12
ATOM     12  N   UNL     1       7.303   5.337  19.314  0.00  0.00    +0.000 N 
ATOM     13  H   UNL     1       7.245   6.330  19.518  0.00  0.00    +0.000 HD
ATOM     14  H   UNL     1       8.263   5.050  19.162  0.00  0.00    +0.000 HD
ENDBRANCH   4  12
BRANCH   7  15
ATOM     15  N   UNL     1       2.363   5.269  21.062  0.00  0.00    +0.000 N 
ATOM     16  H   UNL     1       2.649   6.082  21.599  0.00  0.00    +0.000 HD
ATOM     17  H   UNL     1       1.355   5.152  21.050  0.00  0.00    +0.000 HD
ENDBRANCH   7  15
TORSDOF 2
ENDMDL
MODEL 6
REMARK VINA RESULT:      -5.9      1.348      1.434
REMARK  Name = 
REMARK  3 active torsions:
REMARK  status: ('A' for Active; 'I' for Inactive)
REMARK    1  A    between atoms: C_1  and  C_2
REMARK    2  A    between atoms: C_4  and  N_5
REMARK    3  A    between atoms: C_8  and  N_9
REMARK                            x       y       z     vdW  Elec       q    Type
REMARK                         _______ _______ _______ _____ _____    ______ ____
ROOT
ATOM      1  C   UNL     1       0.754   2.237  18.863  0.00  0.00    +0.000 C 
ATOM      2  C   UNL     1       1.748   3.339  18.659  0.00  0.00    +0.000 A 
ATOM      3  C   UNL     1       1.717   4.482  19.440  0.00  0.00    +0.000 A 
ATOM      4  C   UNL     1       2.613   5.517  19.175  0.00  0.00    +0.000 A 
ATOM      5  C   UNL     1       3.610   5.324  18.186  0.00  0.00    +0.000 A 
ATOM      6  C   UNL     1       4.616   6.275  17.871  0.00  0.00    +0.000 A 
ATOM      7  C   UNL     1       5.559   6.048  16.867  0.00  0.00    +0.000 A 
ATOM      8  C   UNL     1       5.460   4.879  16.124  0.00  0.00    +0.000 A 
ATOM      9  C   UNL     1       4.494   3.920  16.444  0.00  0.00    +0.000 A 
ATOM     10  C   UNL     1       3.568   4.118  17.455  0.00  0.00    +0.000 A 
ATOM     11  N   UNL     1       2.659   3.157  17.679  0.00  0.00    +0.000 NA
ENDROOT
BRANCH   4  12
ATOM     12  N   UNL     1       2.620   6.631  20.045  0.00  0.00    +0.000 N 
ATOM     13  H   UNL     1       2.005   7.380  19.744  0.00  0.00    +0.000 HD
ATOM     14  H   UNL     1       3.550   6.980  20.250  0.00  0.00    +0.000 HD
ENDBRANCH   4  12
BRANCH   7  15
ATOM     15  N   UNL     1       6.417   7.075  16.461  0.00  0.00    +0.000 N 
ATOM     16  H   UNL     1       6.789   7.632  17.224  0.00  0.00    +0.000 HD
ATOM     17  H   UNL     1       7.140   6.780  15.812  0.00  0.00    +0.000 HD
ENDBRANCH   7  15
TORSDOF 2
ENDMDL
MODEL 7
REMARK VINA RESULT:      -5.9      2.120      2.939
REMARK  Name = 
REMARK  3 active torsions:
REMARK  status: ('A' for Active; 'I' for Inactive)
REMARK    1  A    between atoms: C_1  and  C_2
REMARK    2  A    between atoms: C_4  and  N_5
REMARK    3  A    between atoms: C_8  and  N_9
REMARK                            x       y       z     vdW  Elec       q    Type
REMARK                         _______ _______ _______ _____ _____    ______ ____
ROOT
ATOM      1  C   UNL     1       0.440   2.607  18.801  0.00  0.00    +0.000 C 
ATOM      2  C   UNL     1       1.869   3.057  18.820  0.00  0.00    +0.000 A 
ATOM      3  C   UNL     1       2.846   2.301  19.446  0.00  0.00    +0.000 A 
ATOM      4  C   UNL     1       4.153   2.785  19.505  0.00  0.00    +0.000 A 
ATOM      5  C   UNL     1       4.471   3.985  18.820  0.00  0.00    +0.000 A 
ATOM      6  C   UNL     1       5.774   4.544  18.753  0.00  0.00    +0.000 A 
ATOM      7  C   UNL     1       6.030   5.745  18.089  0.00  0.00    +0.000 A 
ATOM      8  C   UNL     1       4.957   6.431  17.535  0.00  0.00    +0.000 A 
ATOM      9  C   UNL     1       3.673   5.878  17.567  0.00  0.00    +0.000 A 
ATOM     10  C   UNL     1       3.408   4.674  18.199  0.00  0.00    +0.000 A 
ATOM     11  N   UNL     1       2.142   4.227  18.205  0.00  0.00    +0.000 NA
ENDROOT
BRANCH   4  12
ATOM     12  N   UNL     1       5.147   1.953  20.068  0.00  0.00    +0.000 N 
ATOM     13  H   UNL     1       4.952   1.688  21.029  0.00  0.00    +0.000 HD
ATOM     14  H   UNL     1       6.086   2.321  19.972  0.00  0.00    +0.000 HD
ENDBRANCH   4  12
BRANCH   7  15
ATOM     15  N   UNL     1       7.283   6.357  18.196  0.00  0.00    +0.000 N 
ATOM     16  H   UNL     1       7.296   7.174  18.799  0.00  0.00    +0.000 HD
ATOM     17  H   UNL     1       8.042   5.715  18.401  0.00  0.00    +0.000 HD
ENDBRANCH   7  15
TORSDOF 2
ENDMDL
MODEL 8
REMARK VINA RESULT:      -5.8      1.603      2.663
REMARK  Name = 
REMARK  3 active torsions:
REMARK  status: ('A' for Active; 'I' for Inactive)
REMARK    1  A    between atoms: C_1  and  C_2
REMARK    2  A    between atoms: C_4  and  N_5
REMARK    3  A    between atoms: C_8  and  N_9
REMARK                            x       y       z     vdW  Elec       q    Type
REMARK                         _______ _______ _______ _____ _____    ______ ____
ROOT
ATOM      1  C   UNL     1       0.690   4.139  20.364  0.00  0.00    +0.000 C 
ATOM      2  C   UNL     1       2.057   4.226  19.756  0.00  0.00    +0.000 A 
ATOM      3  C   UNL     1       3.004   3.241  19.986  0.00  0.00    +0.000 A 
ATOM      4  C   UNL     1       4.288   3.390  19.462  0.00  0.00    +0.000 A 
ATOM      5  C   UNL     1       4.556   4.491  18.609  0.00  0.00    +0.000 A 
ATOM      6  C   UNL     1       5.801   4.715  17.965  0.00  0.00    +0.000 A 
ATOM      7  C   UNL     1       6.024   5.831  17.156  0.00  0.00    +0.000 A 
ATOM      8  C   UNL     1       5.008   6.770  17.037  0.00  0.00    +0.000 A 
ATOM      9  C   UNL     1       3.766   6.547  17.640  0.00  0.00    +0.000 A 
ATOM     10  C   UNL     1       3.521   5.431  18.423  0.00  0.00    +0.000 A 
ATOM     11  N   UNL     1       2.308   5.306  18.987  0.00  0.00    +0.000 NA
ENDROOT
BRANCH   4  12
ATOM     12  N   UNL     1       5.205   2.329  19.634  0.00  0.00    +0.000 N 
ATOM     13  H   UNL     1       5.357   2.084  20.608  0.00  0.00    +0.000 HD
ATOM     14  H   UNL     1       6.084   2.469  19.150  0.00  0.00    +0.000 HD
ENDBRANCH   4  12
BRANCH   7  15
ATOM     15  N   UNL     1       7.310   6.116  16.687  0.00  0.00    +0.000 N 
ATOM     16  H   UNL     1       7.374   6.205  15.677  0.00  0.00    +0.000 HD
ATOM     17  H   UNL     1       7.769   6.881  17.170  0.00  0.00    +0.000 HD
ENDBRANCH   7  15
TORSDOF 2
ENDMDL
MODEL 9
REMARK VINA RESULT:      -5.8      1.164      2.672
REMARK  Name = 
REMARK  3 active torsions:
REMARK  status: ('A' for Active; 'I' for Inactive)
REMARK    1  A    between atoms: C_1  and  C_2
REMARK    2  A    between atoms: C_4  and  N_5
REMARK    3  A    between atoms: C_8  and  N_9
REMARK                            x       y       z     vdW  Elec       q    Type
REMARK                         _______ _______ _______ _____ _____    ______ ____
ROOT
ATOM      1  C   UNL     1       1.466   3.042  21.569  0.00  0.00    +0.000 C 
ATOM      2  C   UNL     1       2.280   3.362  20.353  0.00  0.00    +0.000 A 
ATOM      3  C   UNL     1       2.862   2.356  19.599  0.00  0.00    +0.000 A 
ATOM      4  C   UNL     1       3.670   2.694  18.514  0.00  0.00    +0.000 A 
ATOM      5  C   UNL     1       3.781   4.057  18.140  0.00  0.00    +0.000 A 
ATOM      6  C   UNL     1       4.519   4.519  17.019  0.00  0.00    +0.000 A 
ATOM      7  C   UNL     1       4.621   5.877  16.710  0.00  0.00    +0.000 A 
ATOM      8  C   UNL     1       4.026   6.792  17.567  0.00  0.00    +0.000 A 
ATOM      9  C   UNL     1       3.269   6.351  18.658  0.00  0.00    +0.000 A 
ATOM     10  C   UNL     1       3.137   5.006  18.962  0.00  0.00    +0.000 A 
ATOM     11  N   UNL     1       2.413   4.669  20.042  0.00  0.00    +0.000 NA
ENDROOT
BRANCH   4  12
ATOM     12  N   UNL     1       4.176   1.648  17.709  0.00  0.00    +0.000 N 
ATOM     13  H   UNL     1       3.850   1.688  16.748  0.00  0.00    +0.000 HD
ATOM     14  H   UNL     1       4.034   0.727  18.106  0.00  0.00    +0.000 HD
ENDBRANCH   4  12
BRANCH   7  15
ATOM     15  N   UNL     1       5.500   6.309  15.712  0.00  0.00    +0.000 N 
ATOM     16  H   UNL     1       5.076   6.394  14.793  0.00  0.00    +0.000 HD
ATOM     17  H   UNL     1       6.042   7.129  15.963  0.00  0.00    +0.000 HD
ENDBRANCH   7  15
TORSDOF 2
ENDMDL
