MODEL 1
REMARK VINA RESULT:      -8.6      0.000      0.000
REMARK  Name = 
REMARK  4 active torsions:
REMARK  status: ('A' for Active; 'I' for Inactive)
REMARK    1  A    between atoms: C_1  and  C_2
REMARK    2  A    between atoms: C_2  and  N_3
REMARK    3  A    between atoms: C_8  and  C_9
REMARK    4  A    between atoms: C_16  and  C_17
REMARK                            x       y       z     vdW  Elec       q    Type
REMARK                         _______ _______ _______ _____ _____    ______ ____
ROOT
ATOM      1  C   UNL     1       2.205   6.258  19.843  0.00  0.00    +0.000 A 
ATOM      2  C   UNL     1       1.670   5.430  20.761  0.00  0.00    +0.000 A 
ATOM      3  C   UNL     1       2.004   3.975  20.718  0.00  0.00    +0.000 A 
ATOM      4  O   UNL     1       1.572   3.163  21.521  0.00  0.00    +0.000 OA
ATOM      5  N   UNL     1       2.835   3.612  19.642  0.00  0.00    +0.000 N 
ATOM      6  N   UNL     1       3.156   2.318  19.343  0.00  0.00    +0.000 NA
ATOM      7  C   UNL     1       3.889   2.426  18.227  0.00  0.00    +0.000 A 
ATOM      8  C   UNL     1       4.078   3.760  17.828  0.00  0.00    +0.000 A 
ATOM      9  C   UNL     1       3.372   4.504  18.734  0.00  0.00    +0.000 A 
ATOM     10  N   UNL     1       3.088   5.826  18.878  0.00  0.00    +0.000 N 
ATOM     11  H   UNL     1       3.417   6.513  18.196  0.00  0.00    +0.000 HD
ENDROOT
BRANCH   1  17
ATOM     12  N   UNL     1       0.706  11.609  20.111  0.00  0.00    +0.000 N 
ATOM     13  N   UNL     1       0.415  11.701  21.422  0.00  0.00    +0.000 NA
ATOM     14  N   UNL     1       0.627  10.506  21.962  0.00  0.00    +0.000 NA
ATOM     15  C   UNL     1       1.053   9.661  20.973  0.00  0.00    +0.000 A 
ATOM     16  C   UNL     1       1.406   8.304  21.015  0.00  0.00    +0.000 A 
ATOM     17  C   UNL     1       1.811   7.677  19.822  0.00  0.00    +0.000 A 
ATOM     18  C   UNL     1       1.856   8.399  18.620  0.00  0.00    +0.000 A 
ATOM     19  C   UNL     1       1.512   9.756  18.566  0.00  0.00    +0.000 A 
ATOM     20  C   UNL     1       1.114  10.348  19.766  0.00  0.00    +0.000 A 
BRANCH  12  22
ATOM     21  C   UNL     1      -0.757  12.721  18.480  0.00  0.00    +0.000 C 
ATOM     22  C   UNL     1       0.550  12.760  19.249  0.00  0.00    +0.000 C 
ENDBRANCH  12  22
ENDBRANCH   1  17
BRANCH   8  23
ATOM     23  C   UNL     1       4.841   4.273  16.674  0.00  0.00    +0.000 A 
ATOM     24  N   UNL     1       4.815   5.542  16.293  0.00  0.00    +0.000 NA
ATOM     25  C   UNL     1       5.681   5.594  15.233  0.00  0.00    +0.000 A 
ATOM     26  C   UNL     1       6.140   4.336  14.947  0.00  0.00    +0.000 A 
ATOM     27  O   UNL     1       5.653   3.486  15.892  0.00  0.00    +0.000 OA
ENDBRANCH   8  23
TORSDOF 3
ENDMDL
MODEL 2
REMARK VINA RESULT:      -8.6      1.855      1.955
REMARK  Name = 
REMARK  4 active torsions:
REMARK  status: ('A' for Active; 'I' for Inactive)
REMARK    1  A    between atoms: C_1  and  C_2
REMARK    2  A    between atoms: C_2  and  N_3
REMARK    3  A    between atoms: C_8  and  C_9
REMARK    4  A    between atoms: C_16  and  C_17
REMARK                            x       y       z     vdW  Elec       q    Type
REMARK                         _______ _______ _______ _____ _____    ______ ____
ROOT
ATOM      1  C   UNL     1       1.902   6.453  20.419  0.00  0.00    +0.000 A 
ATOM      2  C   UNL     1       1.052   5.424  20.602  0.00  0.00    +0.000 A 
ATOM      3  C   UNL     1       1.525   4.030  20.355  0.00  0.00    +0.000 A 
ATOM      4  O   UNL     1       0.823   3.044  20.511  0.00  0.00    +0.000 OA
ATOM      5  N   UNL     1       2.850   3.952  19.887  0.00  0.00    +0.000 N 
ATOM      6  N   UNL     1       3.436   2.788  19.478  0.00  0.00    +0.000 NA
ATOM      7  C   UNL     1       4.645   3.176  19.053  0.00  0.00    +0.000 A 
ATOM      8  C   UNL     1       4.862   4.554  19.218  0.00  0.00    +0.000 A 
ATOM      9  C   UNL     1       3.689   5.039  19.730  0.00  0.00    +0.000 A 
ATOM     10  N   UNL     1       3.216   6.273  20.047  0.00  0.00    +0.000 N 
ATOM     11  H   UNL     1       3.782   7.111  19.893  0.00  0.00    +0.000 HD
ENDROOT
BRANCH   1  17
ATOM     12  N   UNL     1       0.063  11.622  21.344  0.00  0.00    +0.000 N 
ATOM     13  N   UNL     1      -0.245  11.525  22.651  0.00  0.00    +0.000 NA
ATOM     14  N   UNL     1       0.037  10.287  23.037  0.00  0.00    +0.000 NA
ATOM     15  C   UNL     1       0.525   9.603  21.955  0.00  0.00    +0.000 A 
ATOM     16  C   UNL     1       0.964   8.277  21.829  0.00  0.00    +0.000 A 
ATOM     17  C   UNL     1       1.419   7.835  20.574  0.00  0.00    +0.000 A 
ATOM     18  C   UNL     1       1.428   8.708  19.475  0.00  0.00    +0.000 A 
ATOM     19  C   UNL     1       0.999  10.036  19.588  0.00  0.00    +0.000 A 
ATOM     20  C   UNL     1       0.553  10.443  20.848  0.00  0.00    +0.000 A 
BRANCH  12  22
ATOM     21  C   UNL     1      -1.573  12.962  20.093  0.00  0.00    +0.000 C 
ATOM     22  C   UNL     1      -0.159  12.861  20.634  0.00  0.00    +0.000 C 
ENDBRANCH  12  22
ENDBRANCH   1  17
BRANCH   8  23
ATOM     23  C   UNL     1       6.069   5.339  18.893  0.00  0.00    +0.000 A 
ATOM     24  N   UNL     1       7.119   5.422  19.699  0.00  0.00    +0.000 NA
ATOM     25  C   UNL     1       8.014   6.195  19.007  0.00  0.00    +0.000 A 
ATOM     26  C   UNL     1       7.446   6.629  17.839  0.00  0.00    +0.000 A 
ATOM     27  O   UNL     1       6.220   6.048  17.726  0.00  0.00    +0.000 OA
ENDBRANCH   8  23
TORSDOF 3
ENDMDL
MODEL 3
REMARK VINA RESULT:      -8.3      0.924      1.533
REMARK  Name = 
REMARK  4 active torsions:
REMARK  status: ('A' for Active; 'I' for Inactive)
REMARK    1  A    between atoms: C_1  and  C_2
REMARK    2  A    between atoms: C_2  and  N_3
REMARK    3  A    between atoms: C_8  and  C_9
REMARK    4  A    between atoms: C_16  and  C_17
REMARK                            x       y       z     vdW  Elec       q    Type
REMARK                         _______ _______ _______ _____ _____    ______ ____
ROOT
ATOM      1  C   UNL     1       2.181   5.804  19.884  0.00  0.00    +0.000 A 
ATOM      2  C   UNL     1       1.607   4.902  20.705  0.00  0.00    +0.000 A 
ATOM      3  C   UNL     1       1.918   3.452  20.532  0.00  0.00    +0.000 A 
ATOM      4  O   UNL     1       1.452   2.576  21.242  0.00  0.00    +0.000 OA
ATOM      5  N   UNL     1       2.774   3.177  19.448  0.00  0.00    +0.000 N 
ATOM      6  N   UNL     1       3.081   1.912  19.036  0.00  0.00    +0.000 NA
ATOM      7  C   UNL     1       3.847   2.111  17.955  0.00  0.00    +0.000 A 
ATOM      8  C   UNL     1       4.068   3.473  17.690  0.00  0.00    +0.000 A 
ATOM      9  C   UNL     1       3.350   4.141  18.644  0.00  0.00    +0.000 A 
ATOM     10  N   UNL     1       3.083   5.448  18.906  0.00  0.00    +0.000 N 
ATOM     11  H   UNL     1       3.442   6.191  18.301  0.00  0.00    +0.000 HD
ENDROOT
BRANCH   1  17
ATOM     12  N   UNL     1       0.857  11.207  19.942  0.00  0.00    +0.000 N 
ATOM     13  N   UNL     1       1.273  11.559  18.711  0.00  0.00    +0.000 NA
ATOM     14  N   UNL     1       1.771  10.472  18.133  0.00  0.00    +0.000 NA
ATOM     15  C   UNL     1       1.665   9.432  19.017  0.00  0.00    +0.000 A 
ATOM     16  C   UNL     1       2.041   8.086  18.900  0.00  0.00    +0.000 A 
ATOM     17  C   UNL     1       1.812   7.225  19.989  0.00  0.00    +0.000 A 
ATOM     18  C   UNL     1       1.221   7.712  21.165  0.00  0.00    +0.000 A 
ATOM     19  C   UNL     1       0.835   9.052  21.294  0.00  0.00    +0.000 A 
ATOM     20  C   UNL     1       1.077   9.879  20.194  0.00  0.00    +0.000 A 
BRANCH  12  22
ATOM     21  C   UNL     1      -1.235  12.162  20.808  0.00  0.00    +0.000 C 
ATOM     22  C   UNL     1       0.282  12.197  20.825  0.00  0.00    +0.000 C 
ENDBRANCH  12  22
ENDBRANCH   1  17
BRANCH   8  23
ATOM     23  C   UNL     1       4.872   4.079  16.610  0.00  0.00    +0.000 A 
ATOM     24  N   UNL     1       4.837   5.372  16.318  0.00  0.00    +0.000 NA
ATOM     25  C   UNL     1       5.748   5.512  15.305  0.00  0.00    +0.000 A 
ATOM     26  C   UNL     1       6.244   4.285  14.953  0.00  0.00    +0.000 A 
ATOM     27  O   UNL     1       5.733   3.363  15.814  0.00  0.00    +0.000 OA
ENDBRANCH   8  23
TORSDOF 3
ENDMDL
MODEL 4
REMARK VINA RESULT:      -8.1      1.963      2.354
REMARK  Name = 
REMARK  4 active torsions:
REMARK  status: ('A' for Active; 'I' for Inactive)
REMARK    1  A    between atoms: C_1  and  C_2
REMARK    2  A    between atoms: C_2  and  N_3
REMARK    3  A    between atoms: C_8  and  C_9
REMARK    4  A    between atoms: C_16  and  C_17
REMARK                            x       y       z     vdW  Elec       q    Type
REMARK                         _______ _______ _______ _____ _____    ______ ____
ROOT
ATOM      1  C   UNL     1       1.918   6.450  20.367  0.00  0.00    +0.000 A 
ATOM      2  C   UNL     1       1.046   5.439  20.540  0.00  0.00    +0.000 A 
ATOM      3  C   UNL     1       1.493   4.035  20.297  0.00  0.00    +0.000 A 
ATOM      4  O   UNL     1       0.768   3.064  20.444  0.00  0.00    +0.000 OA
ATOM      5  N   UNL     1       2.821   3.930  19.843  0.00  0.00    +0.000 N 
ATOM      6  N   UNL     1       3.386   2.755  19.438  0.00  0.00    +0.000 NA
ATOM      7  C   UNL     1       4.608   3.118  19.027  0.00  0.00    +0.000 A 
ATOM      8  C   UNL     1       4.851   4.492  19.196  0.00  0.00    +0.000 A 
ATOM      9  C   UNL     1       3.684   5.000  19.696  0.00  0.00    +0.000 A 
ATOM     10  N   UNL     1       3.233   6.243  20.009  0.00  0.00    +0.000 N 
ATOM     11  H   UNL     1       3.818   7.069  19.861  0.00  0.00    +0.000 HD
ENDROOT
BRANCH   1  17
ATOM     12  N   UNL     1       0.214  11.741  20.592  0.00  0.00    +0.000 N 
ATOM     13  N   UNL     1       0.419  12.103  19.311  0.00  0.00    +0.000 NA
ATOM     14  N   UNL     1       0.908  11.047  18.672  0.00  0.00    +0.000 NA
ATOM     15  C   UNL     1       1.010  10.016  19.567  0.00  0.00    +0.000 A 
ATOM     16  C   UNL     1       1.466   8.700  19.403  0.00  0.00    +0.000 A 
ATOM     17  C   UNL     1       1.462   7.842  20.518  0.00  0.00    +0.000 A 
ATOM     18  C   UNL     1       1.014   8.302  21.765  0.00  0.00    +0.000 A 
ATOM     19  C   UNL     1       0.551   9.612  21.942  0.00  0.00    +0.000 A 
ATOM     20  C   UNL     1       0.568  10.438  20.816  0.00  0.00    +0.000 A 
BRANCH  12  22
ATOM     21  C   UNL     1      -1.783  12.508  21.801  0.00  0.00    +0.000 C 
ATOM     22  C   UNL     1      -0.299  12.699  21.545  0.00  0.00    +0.000 C 
ENDBRANCH  12  22
ENDBRANCH   1  17
BRANCH   8  23
ATOM     23  C   UNL     1       6.078   5.252  18.884  0.00  0.00    +0.000 A 
ATOM     24  N   UNL     1       7.096   5.362  19.726  0.00  0.00    +0.000 NA
ATOM     25  C   UNL     1       8.025   6.096  19.037  0.00  0.00    +0.000 A 
ATOM     26  C   UNL     1       7.507   6.483  17.829  0.00  0.00    +0.000 A 
ATOM     27  O   UNL     1       6.281   5.908  17.694  0.00  0.00    +0.000 OA
ENDBRANCH   8  23
TORSDOF 3
ENDMDL
MODEL 5
REMARK VINA RESULT:      -7.7      3.357      7.965
REMARK  Name = 
REMARK  4 active torsions:
REMARK  status: ('A' for Active; 'I' for Inactive)
REMARK    1  A    between atoms: C_1  and  C_2
REMARK    2  A    between atoms: C_2  and  N_3
REMARK    3  A    between atoms: C_8  and  C_9
REMARK    4  A    between atoms: C_16  and  C_17
REMARK                            x       y       z     vdW  Elec       q    Type
REMARK                         _______ _______ _______ _____ _____    ______ ____
ROOT
ATOM      1  C   UNL     1       0.806   9.302  19.762  0.00  0.00    +0.000 A 
ATOM      2  C   UNL     1       0.969   9.820  20.994  0.00  0.00    +0.000 A 
ATOM      3  C   UNL     1       0.006  10.847  21.491  0.00  0.00    +0.000 A 
ATOM      4  O   UNL     1       0.076  11.355  22.599  0.00  0.00    +0.000 OA
ATOM      5  N   UNL     1      -0.976  11.210  20.550  0.00  0.00    +0.000 N 
ATOM      6  N   UNL     1      -1.873  12.221  20.751  0.00  0.00    +0.000 NA
ATOM      7  C   UNL     1      -2.555  12.270  19.600  0.00  0.00    +0.000 A 
ATOM      8  C   UNL     1      -2.143  11.289  18.682  0.00  0.00    +0.000 A 
ATOM      9  C   UNL     1      -1.111  10.636  19.300  0.00  0.00    +0.000 A 
ATOM     10  N   UNL     1      -0.245   9.652  18.942  0.00  0.00    +0.000 N 
ATOM     11  H   UNL     1      -0.272   9.239  18.007  0.00  0.00    +0.000 HD
ENDROOT
BRANCH   1  17
ATOM     12  N   UNL     1       4.476   5.508  18.004  0.00  0.00    +0.000 N 
ATOM     13  N   UNL     1       4.402   4.628  19.021  0.00  0.00    +0.000 NA
ATOM     14  N   UNL     1       3.520   5.101  19.894  0.00  0.00    +0.000 NA
ATOM     15  C   UNL     1       3.042   6.292  19.415  0.00  0.00    +0.000 A 
ATOM     16  C   UNL     1       2.104   7.186  19.951  0.00  0.00    +0.000 A 
ATOM     17  C   UNL     1       1.801   8.356  19.230  0.00  0.00    +0.000 A 
ATOM     18  C   UNL     1       2.430   8.616  18.003  0.00  0.00    +0.000 A 
ATOM     19  C   UNL     1       3.364   7.729  17.454  0.00  0.00    +0.000 A 
ATOM     20  C   UNL     1       3.643   6.578  18.195  0.00  0.00    +0.000 A 
BRANCH  12  22
ATOM     21  C   UNL     1       4.999   4.029  16.113  0.00  0.00    +0.000 C 
ATOM     22  C   UNL     1       5.379   5.269  16.901  0.00  0.00    +0.000 C 
ENDBRANCH  12  22
ENDBRANCH   1  17
BRANCH   8  23
ATOM     23  C   UNL     1      -2.670  11.017  17.330  0.00  0.00    +0.000 A 
ATOM     24  N   UNL     1      -3.810  11.523  16.881  0.00  0.00    +0.000 NA
ATOM     25  C   UNL     1      -3.898  11.066  15.593  0.00  0.00    +0.000 A 
ATOM     26  C   UNL     1      -2.850  10.224  15.328  0.00  0.00    +0.000 A 
ATOM     27  O   UNL     1      -2.027  10.223  16.412  0.00  0.00    +0.000 OA
ENDBRANCH   8  23
TORSDOF 3
ENDMDL
MODEL 6
REMARK VINA RESULT:      -7.6      1.904      4.013
REMARK  Name = 
REMARK  4 active torsions:
REMARK  status: ('A' for Active; 'I' for Inactive)
REMARK    1  A    between atoms: C_1  and  C_2
REMARK    2  A    between atoms: C_2  and  N_3
REMARK    3  A    between atoms: C_8  and  C_9
REMARK    4  A    between atoms: C_16  and  C_17
REMARK                            x       y       z     vdW  Elec       q    Type
REMARK                         _______ _______ _______ _____ _____    ______ ____
ROOT
ATOM      1  C   UNL     1       2.230   7.768  18.956  0.00  0.00    +0.000 A 
ATOM      2  C   UNL     1       2.965   8.166  17.900  0.00  0.00    +0.000 A 
ATOM      3  C   UNL     1       3.848   7.181  17.208  0.00  0.00    +0.000 A 
ATOM      4  O   UNL     1       4.532   7.459  16.236  0.00  0.00    +0.000 OA
ATOM      5  N   UNL     1       3.851   5.904  17.799  0.00  0.00    +0.000 N 
ATOM      6  N   UNL     1       4.683   4.895  17.405  0.00  0.00    +0.000 NA
ATOM      7  C   UNL     1       4.407   3.906  18.265  0.00  0.00    +0.000 A 
ATOM      8  C   UNL     1       3.391   4.245  19.175  0.00  0.00    +0.000 A 
ATOM      9  C   UNL     1       3.065   5.540  18.876  0.00  0.00    +0.000 A 
ATOM     10  N   UNL     1       2.227   6.467  19.410  0.00  0.00    +0.000 N 
ATOM     11  H   UNL     1       1.670   6.258  20.242  0.00  0.00    +0.000 HD
ENDROOT
BRANCH   1  17
ATOM     12  N   UNL     1      -0.683  11.352  22.058  0.00  0.00    +0.000 N 
ATOM     13  N   UNL     1      -0.460  10.833  23.280  0.00  0.00    +0.000 NA
ATOM     14  N   UNL     1       0.315   9.766  23.124  0.00  0.00    +0.000 NA
ATOM     15  C   UNL     1       0.575   9.619  21.787  0.00  0.00    +0.000 A 
ATOM     16  C   UNL     1       1.333   8.659  21.100  0.00  0.00    +0.000 A 
ATOM     17  C   UNL     1       1.426   8.752  19.700  0.00  0.00    +0.000 A 
ATOM     18  C   UNL     1       0.770   9.784  19.012  0.00  0.00    +0.000 A 
ATOM     19  C   UNL     1       0.015  10.752  19.686  0.00  0.00    +0.000 A 
ATOM     20  C   UNL     1      -0.058  10.631  21.076  0.00  0.00    +0.000 A 
BRANCH  12  22
ATOM     21  C   UNL     1      -2.724  12.483  22.830  0.00  0.00    +0.000 C 
ATOM     22  C   UNL     1      -1.519  12.521  21.907  0.00  0.00    +0.000 C 
ENDBRANCH  12  22
ENDBRANCH   1  17
BRANCH   8  23
ATOM     23  C   UNL     1       2.804   3.415  20.245  0.00  0.00    +0.000 A 
ATOM     24  N   UNL     1       3.451   2.413  20.823  0.00  0.00    +0.000 NA
ATOM     25  C   UNL     1       2.578   1.952  21.773  0.00  0.00    +0.000 A 
ATOM     26  C   UNL     1       1.393   2.633  21.683  0.00  0.00    +0.000 A 
ATOM     27  O   UNL     1       1.539   3.608  20.745  0.00  0.00    +0.000 OA
ENDBRANCH   8  23
TORSDOF 3
ENDMDL
MODEL 7
REMARK VINA RESULT:      -7.5      1.722      3.780
REMARK  Name = 
REMARK  4 active torsions:
REMARK  status: ('A' for Active; 'I' for Inactive)
REMARK    1  A    between atoms: C_1  and  C_2
REMARK    2  A    between atoms: C_2  and  N_3
REMARK    3  A    between atoms: C_8  and  C_9
REMARK    4  A    between atoms: C_16  and  C_17
REMARK                            x       y       z     vdW  Elec       q    Type
REMARK                         _______ _______ _______ _____ _____    ______ ____
ROOT
ATOM      1  C   UNL     1       2.609   7.621  18.345  0.00  0.00    +0.000 A 
ATOM      2  C   UNL     1       3.465   7.884  17.339  0.00  0.00    +0.000 A 
ATOM      3  C   UNL     1       4.361   6.800  16.838  0.00  0.00    +0.000 A 
ATOM      4  O   UNL     1       5.154   6.953  15.922  0.00  0.00    +0.000 OA
ATOM      5  N   UNL     1       4.240   5.588  17.542  0.00  0.00    +0.000 N 
ATOM      6  N   UNL     1       5.054   4.512  17.333  0.00  0.00    +0.000 NA
ATOM      7  C   UNL     1       4.643   3.623  18.247  0.00  0.00    +0.000 A 
ATOM      8  C   UNL     1       3.560   4.091  19.010  0.00  0.00    +0.000 A 
ATOM      9  C   UNL     1       3.333   5.363  18.560  0.00  0.00    +0.000 A 
ATOM     10  N   UNL     1       2.493   6.372  18.915  0.00  0.00    +0.000 N 
ATOM     11  H   UNL     1       1.846   6.268  19.700  0.00  0.00    +0.000 HD
ENDROOT
BRANCH   1  17
ATOM     12  N   UNL     1      -0.458  11.576  20.774  0.00  0.00    +0.000 N 
ATOM     13  N   UNL     1      -0.564  11.057  22.012  0.00  0.00    +0.000 NA
ATOM     14  N   UNL     1       0.096   9.905  22.019  0.00  0.00    +0.000 NA
ATOM     15  C   UNL     1       0.616   9.704  20.768  0.00  0.00    +0.000 A 
ATOM     16  C   UNL     1       1.385   8.650  20.253  0.00  0.00    +0.000 A 
ATOM     17  C   UNL     1       1.786   8.706  18.905  0.00  0.00    +0.000 A 
ATOM     18  C   UNL     1       1.417   9.794  18.100  0.00  0.00    +0.000 A 
ATOM     19  C   UNL     1       0.655  10.855  18.603  0.00  0.00    +0.000 A 
ATOM     20  C   UNL     1       0.273  10.769  19.944  0.00  0.00    +0.000 A 
BRANCH  12  22
ATOM     21  C   UNL     1      -2.533  12.637  19.994  0.00  0.00    +0.000 C 
ATOM     22  C   UNL     1      -1.100  12.831  20.456  0.00  0.00    +0.000 C 
ENDBRANCH  12  22
ENDBRANCH   1  17
BRANCH   8  23
ATOM     23  C   UNL     1       2.827   3.395  20.086  0.00  0.00    +0.000 A 
ATOM     24  N   UNL     1       1.541   3.600  20.337  0.00  0.00    +0.000 NA
ATOM     25  C   UNL     1       1.257   2.737  21.362  0.00  0.00    +0.000 A 
ATOM     26  C   UNL     1       2.401   2.097  21.760  0.00  0.00    +0.000 A 
ATOM     27  O   UNL     1       3.404   2.468  20.919  0.00  0.00    +0.000 OA
ENDBRANCH   8  23
TORSDOF 3
ENDMDL
MODEL 8
REMARK VINA RESULT:      -7.5      2.942      7.726
REMARK  Name = 
REMARK  4 active torsions:
REMARK  status: ('A' for Active; 'I' for Inactive)
REMARK    1  A    between atoms: C_1  and  C_2
REMARK    2  A    between atoms: C_2  and  N_3
REMARK    3  A    between atoms: C_8  and  C_9
REMARK    4  A    between atoms: C_16  and  C_17
REMARK                            x       y       z     vdW  Elec       q    Type
REMARK                         _______ _______ _______ _____ _____    ______ ____
ROOT
ATOM      1  C   UNL     1       1.340   8.319  20.194  0.00  0.00    +0.000 A 
ATOM      2  C   UNL     1       1.544   8.614  21.492  0.00  0.00    +0.000 A 
ATOM      3  C   UNL     1       0.690   9.646  22.152  0.00  0.00    +0.000 A 
ATOM      4  O   UNL     1       0.802   9.960  23.326  0.00  0.00    +0.000 OA
ATOM      5  N   UNL     1      -0.238  10.256  21.288  0.00  0.00    +0.000 N 
ATOM      6  N   UNL     1      -1.025  11.311  21.653  0.00  0.00    +0.000 NA
ATOM      7  C   UNL     1      -1.687  11.614  20.529  0.00  0.00    +0.000 A 
ATOM      8  C   UNL     1      -1.371  10.753  19.464  0.00  0.00    +0.000 A 
ATOM      9  C   UNL     1      -0.421   9.905  19.963  0.00  0.00    +0.000 A 
ATOM     10  N   UNL     1       0.340   8.904  19.447  0.00  0.00    +0.000 N 
ATOM     11  H   UNL     1       0.279   8.651  18.459  0.00  0.00    +0.000 HD
ENDROOT
BRANCH   1  17
ATOM     12  N   UNL     1       4.618   4.489  17.840  0.00  0.00    +0.000 N 
ATOM     13  N   UNL     1       4.486   3.492  18.734  0.00  0.00    +0.000 NA
ATOM     14  N   UNL     1       3.668   3.920  19.690  0.00  0.00    +0.000 NA
ATOM     15  C   UNL     1       3.289   5.200  19.386  0.00  0.00    +0.000 A 
ATOM     16  C   UNL     1       2.446   6.093  20.064  0.00  0.00    +0.000 A 
ATOM     17  C   UNL     1       2.235   7.370  19.511  0.00  0.00    +0.000 A 
ATOM     18  C   UNL     1       2.860   7.735  18.310  0.00  0.00    +0.000 A 
ATOM     19  C   UNL     1       3.699   6.851  17.620  0.00  0.00    +0.000 A 
ATOM     20  C   UNL     1       3.889   5.592  18.195  0.00  0.00    +0.000 A 
BRANCH  12  22
ATOM     21  C   UNL     1       6.903   4.740  16.973  0.00  0.00    +0.000 C 
ATOM     22  C   UNL     1       5.473   4.322  16.686  0.00  0.00    +0.000 C 
ENDBRANCH  12  22
ENDBRANCH   1  17
BRANCH   8  23
ATOM     23  C   UNL     1      -1.910  10.758  18.090  0.00  0.00    +0.000 A 
ATOM     24  N   UNL     1      -2.731  11.695  17.636  0.00  0.00    +0.000 NA
ATOM     25  C   UNL     1      -2.945  11.349  16.328  0.00  0.00    +0.000 A 
ATOM     26  C   UNL     1      -2.317  10.164  16.052  0.00  0.00    +0.000 A 
ATOM     27  O   UNL     1      -1.607   9.798  17.154  0.00  0.00    +0.000 OA
ENDBRANCH   8  23
TORSDOF 3
ENDMDL
MODEL 9
REMARK VINA RESULT:      -7.4      3.300      8.040
REMARK  Name = 
REMARK  4 active torsions:
REMARK  status: ('A' for Active; 'I' for Inactive)
REMARK    1  A    between atoms: C_1  and  C_2
REMARK    2  A    between atoms: C_2  and  N_3
REMARK    3  A    between atoms: C_8  and  C_9
REMARK    4  A    between atoms: C_16  and  C_17
REMARK                            x       y       z     vdW  Elec       q    Type
REMARK                         _______ _______ _______ _____ _____    ______ ____
ROOT
ATOM      1  C   UNL     1       0.669   9.193  20.094  0.00  0.00    +0.000 A 
ATOM      2  C   UNL     1       0.846   9.797  21.285  0.00  0.00    +0.000 A 
ATOM      3  C   UNL     1      -0.036  10.941  21.664  0.00  0.00    +0.000 A 
ATOM      4  O   UNL     1       0.051  11.532  22.729  0.00  0.00    +0.000 OA
ATOM      5  N   UNL     1      -0.957  11.307  20.666  0.00  0.00    +0.000 N 
ATOM      6  N   UNL     1      -1.766  12.404  20.755  0.00  0.00    +0.000 NA
ATOM      7  C   UNL     1      -2.413  12.414  19.582  0.00  0.00    +0.000 A 
ATOM      8  C   UNL     1      -2.065  11.328  18.761  0.00  0.00    +0.000 A 
ATOM      9  C   UNL     1      -1.111  10.644  19.463  0.00  0.00    +0.000 A 
ATOM     10  N   UNL     1      -0.326   9.562  19.215  0.00  0.00    +0.000 N 
ATOM     11  H   UNL     1      -0.366   9.076  18.316  0.00  0.00    +0.000 HD
ENDROOT
BRANCH   1  17
ATOM     12  N   UNL     1       4.262   5.364  18.255  0.00  0.00    +0.000 N 
ATOM     13  N   UNL     1       4.673   5.961  17.120  0.00  0.00    +0.000 NA
ATOM     14  N   UNL     1       4.031   7.120  17.024  0.00  0.00    +0.000 NA
ATOM     15  C   UNL     1       3.208   7.243  18.112  0.00  0.00    +0.000 A 
ATOM     16  C   UNL     1       2.324   8.267  18.482  0.00  0.00    +0.000 A 
ATOM     17  C   UNL     1       1.589   8.124  19.674  0.00  0.00    +0.000 A 
ATOM     18  C   UNL     1       1.741   6.977  20.467  0.00  0.00    +0.000 A 
ATOM     19  C   UNL     1       2.624   5.949  20.112  0.00  0.00    +0.000 A 
ATOM     20  C   UNL     1       3.338   6.122  18.924  0.00  0.00    +0.000 A 
BRANCH  12  22
ATOM     21  C   UNL     1       3.864   2.941  18.168  0.00  0.00    +0.000 C 
ATOM     22  C   UNL     1       4.778   4.065  18.620  0.00  0.00    +0.000 C 
ENDBRANCH  12  22
ENDBRANCH   1  17
BRANCH   8  23
ATOM     23  C   UNL     1      -2.580  10.990  17.419  0.00  0.00    +0.000 A 
ATOM     24  N   UNL     1      -3.680  11.525  16.909  0.00  0.00    +0.000 NA
ATOM     25  C   UNL     1      -3.768  10.982  15.654  0.00  0.00    +0.000 A 
ATOM     26  C   UNL     1      -2.766  10.066  15.474  0.00  0.00    +0.000 A 
ATOM     27  O   UNL     1      -1.966  10.097  16.575  0.00  0.00    +0.000 OA
ENDBRANCH   8  23
TORSDOF 3
ENDMDL
