MODEL 1
REMARK VINA RESULT:      -7.0      0.000      0.000
REMARK  Name = 
REMARK  9 active torsions:
REMARK  status: ('A' for Active; 'I' for Inactive)
REMARK    1  A    between atoms: C_1  and  C_2
REMARK    2  A    between atoms: C_3  and  S_4
REMARK    3  A    between atoms: S_4  and  C_5
REMARK    4  A    between atoms: C_8  and  O_9
REMARK    5  A    between atoms: N_12  and  C_13
REMARK    6  A    between atoms: C_13  and  O_14
REMARK    7  A    between atoms: O_14  and  C_15
REMARK    8  A    between atoms: C_15  and  C_16
REMARK    9  A    between atoms: C_16  and  O_17
REMARK                            x       y       z     vdW  Elec       q    Type
REMARK                         _______ _______ _______ _____ _____    ______ ____
ROOT
ATOM      1  C   UNL     1       1.092   4.506  17.277  0.00  0.00    +0.000 C 
ATOM      2  C   UNL     1       2.258   4.062  18.119  0.00  0.00    +0.000 A 
ATOM      3  C   UNL     1       3.460   4.668  18.255  0.00  0.00    +0.000 A 
ATOM      4  N   UNL     1       4.469   4.100  19.048  0.00  0.00    +0.000 N 
ATOM      5  C   UNL     1       4.277   2.890  19.714  0.00  0.00    +0.000 A 
ATOM      6  O   UNL     1       5.133   2.325  20.388  0.00  0.00    +0.000 OA
ATOM      7  N   UNL     1       3.047   2.327  19.599  0.00  0.00    +0.000 N 
ATOM      8  C   UNL     1       2.009   2.811  18.873  0.00  0.00    +0.000 A 
ATOM      9  O   UNL     1       0.927   2.234  18.851  0.00  0.00    +0.000 OA
ATOM     10  H   UNL     1       2.889   1.472  20.108  0.00  0.00    +0.000 HD
ENDROOT
BRANCH   3  11
ATOM     11  S   UNL     1       3.686   6.249  17.537  0.00  0.00    +0.000 S 
BRANCH  11  12
ATOM     12  C   UNL     1       2.676   7.355  18.504  0.00  0.00    +0.000 A 
ATOM     13  C   UNL     1       2.324   7.145  19.841  0.00  0.00    +0.000 A 
ATOM     14  C   UNL     1       1.472   8.035  20.502  0.00  0.00    +0.000 A 
ATOM     15  C   UNL     1       0.988   9.154  19.831  0.00  0.00    +0.000 A 
ATOM     16  C   UNL     1       1.372   9.415  18.523  0.00  0.00    +0.000 A 
ATOM     17  C   UNL     1       2.210   8.514  17.861  0.00  0.00    +0.000 A 
BRANCH  15  18
ATOM     18  O   UNL     1       0.120  10.017  20.425  0.00  0.00    +0.000 OA
ATOM     19  H   UNL     1       0.364  10.924  20.177  0.00  0.00    +0.000 HD
ENDBRANCH  15  18
ENDBRANCH  11  12
ENDBRANCH   3  11
BRANCH   4  20
ATOM     20  C   UNL     1       5.809   4.668  19.177  0.00  0.00    +0.000 C 
BRANCH  20  21
ATOM     21  O   UNL     1       6.725   4.140  18.219  0.00  0.00    +0.000 OA
BRANCH  21  22
ATOM     22  C   UNL     1       7.226   5.132  17.318  0.00  0.00    +0.000 C 
BRANCH  22  23
ATOM     23  C   UNL     1       6.915   4.666  15.900  0.00  0.00    +0.000 C 
BRANCH  23  24
ATOM     24  O   UNL     1       7.668   5.426  14.956  0.00  0.00    +0.000 OA
ATOM     25  H   UNL     1       7.462   6.361  15.155  0.00  0.00    +0.000 HD
ENDBRANCH  23  24
ENDBRANCH  22  23
ENDBRANCH  21  22
ENDBRANCH  20  21
ENDBRANCH   4  20
TORSDOF 8
ENDMDL
MODEL 2
REMARK VINA RESULT:      -6.9      0.246      1.054
REMARK  Name = 
REMARK  9 active torsions:
REMARK  status: ('A' for Active; 'I' for Inactive)
REMARK    1  A    between atoms: C_1  and  C_2
REMARK    2  A    between atoms: C_3  and  S_4
REMARK    3  A    between atoms: S_4  and  C_5
REMARK    4  A    between atoms: C_8  and  O_9
REMARK    5  A    between atoms: N_12  and  C_13
REMARK    6  A    between atoms: C_13  and  O_14
REMARK    7  A    between atoms: O_14  and  C_15
REMARK    8  A    between atoms: C_15  and  C_16
REMARK    9  A    between atoms: C_16  and  O_17
REMARK                            x       y       z     vdW  Elec       q    Type
REMARK                         _______ _______ _______ _____ _____    ______ ____
ROOT
ATOM      1  C   UNL     1       1.166   4.433  17.191  0.00  0.00    +0.000 C 
ATOM      2  C   UNL     1       2.307   4.011  18.076  0.00  0.00    +0.000 A 
ATOM      3  C   UNL     1       3.490   4.641  18.259  0.00  0.00    +0.000 A 
ATOM      4  N   UNL     1       4.480   4.092  19.089  0.00  0.00    +0.000 N 
ATOM      5  C   UNL     1       4.288   2.877  19.745  0.00  0.00    +0.000 A 
ATOM      6  O   UNL     1       5.130   2.328  20.451  0.00  0.00    +0.000 OA
ATOM      7  N   UNL     1       3.076   2.289  19.582  0.00  0.00    +0.000 N 
ATOM      8  C   UNL     1       2.057   2.753  18.817  0.00  0.00    +0.000 A 
ATOM      9  O   UNL     1       0.988   2.154  18.753  0.00  0.00    +0.000 OA
ATOM     10  H   UNL     1       2.916   1.429  20.083  0.00  0.00    +0.000 HD
ENDROOT
BRANCH   3  11
ATOM     11  S   UNL     1       3.711   6.229  17.554  0.00  0.00    +0.000 S 
BRANCH  11  12
ATOM     12  C   UNL     1       2.649   7.312  18.490  0.00  0.00    +0.000 A 
ATOM     13  C   UNL     1       2.061   8.478  17.988  0.00  0.00    +0.000 A 
ATOM     14  C   UNL     1       1.293   9.303  18.816  0.00  0.00    +0.000 A 
ATOM     15  C   UNL     1       1.091   8.948  20.146  0.00  0.00    +0.000 A 
ATOM     16  C   UNL     1       1.613   7.766  20.650  0.00  0.00    +0.000 A 
ATOM     17  C   UNL     1       2.394   6.953  19.824  0.00  0.00    +0.000 A 
BRANCH  15  18
ATOM     18  O   UNL     1       0.389   9.749  20.994  0.00  0.00    +0.000 OA
ATOM     19  H   UNL     1       0.023  10.492  20.487  0.00  0.00    +0.000 HD
ENDBRANCH  15  18
ENDBRANCH  11  12
ENDBRANCH   3  11
BRANCH   4  20
ATOM     20  C   UNL     1       5.802   4.688  19.272  0.00  0.00    +0.000 C 
BRANCH  20  21
ATOM     21  O   UNL     1       6.791   4.102  18.426  0.00  0.00    +0.000 OA
BRANCH  21  22
ATOM     22  C   UNL     1       7.396   5.043  17.536  0.00  0.00    +0.000 C 
BRANCH  22  23
ATOM     23  C   UNL     1       7.027   4.636  16.113  0.00  0.00    +0.000 C 
BRANCH  23  24
ATOM     24  O   UNL     1       7.458   5.635  15.189  0.00  0.00    +0.000 OA
ATOM     25  H   UNL     1       8.371   5.384  14.946  0.00  0.00    +0.000 HD
ENDBRANCH  23  24
ENDBRANCH  22  23
ENDBRANCH  21  22
ENDBRANCH  20  21
ENDBRANCH   4  20
TORSDOF 8
ENDMDL
MODEL 3
REMARK VINA RESULT:      -6.7      0.947      1.600
REMARK  Name = 
REMARK  9 active torsions:
REMARK  status: ('A' for Active; 'I' for Inactive)
REMARK    1  A    between atoms: C_1  and  C_2
REMARK    2  A    between atoms: C_3  and  S_4
REMARK    3  A    between atoms: S_4  and  C_5
REMARK    4  A    between atoms: C_8  and  O_9
REMARK    5  A    between atoms: N_12  and  C_13
REMARK    6  A    between atoms: C_13  and  O_14
REMARK    7  A    between atoms: O_14  and  C_15
REMARK    8  A    between atoms: C_15  and  C_16
REMARK    9  A    between atoms: C_16  and  O_17
REMARK                            x       y       z     vdW  Elec       q    Type
REMARK                         _______ _______ _______ _____ _____    ______ ____
ROOT
ATOM      1  C   UNL     1       1.135   4.447  17.209  0.00  0.00    +0.000 C 
ATOM      2  C   UNL     1       2.260   3.973  18.089  0.00  0.00    +0.000 A 
ATOM      3  C   UNL     1       3.458   4.567  18.294  0.00  0.00    +0.000 A 
ATOM      4  N   UNL     1       4.428   3.972  19.115  0.00  0.00    +0.000 N 
ATOM      5  C   UNL     1       4.200   2.747  19.739  0.00  0.00    +0.000 A 
ATOM      6  O   UNL     1       5.023   2.158  20.436  0.00  0.00    +0.000 OA
ATOM      7  N   UNL     1       2.974   2.195  19.556  0.00  0.00    +0.000 N 
ATOM      8  C   UNL     1       1.971   2.704  18.798  0.00  0.00    +0.000 A 
ATOM      9  O   UNL     1       0.888   2.136  18.714  0.00  0.00    +0.000 OA
ATOM     10  H   UNL     1       2.789   1.328  20.035  0.00  0.00    +0.000 HD
ENDROOT
BRANCH   3  11
ATOM     11  S   UNL     1       3.724   6.166  17.629  0.00  0.00    +0.000 S 
BRANCH  11  12
ATOM     12  C   UNL     1       2.650   7.246  18.554  0.00  0.00    +0.000 A 
ATOM     13  C   UNL     1       2.081   8.421  18.052  0.00  0.00    +0.000 A 
ATOM     14  C   UNL     1       1.301   9.242  18.872  0.00  0.00    +0.000 A 
ATOM     15  C   UNL     1       1.068   8.875  20.194  0.00  0.00    +0.000 A 
ATOM     16  C   UNL     1       1.572   7.683  20.697  0.00  0.00    +0.000 A 
ATOM     17  C   UNL     1       2.365   6.875  19.878  0.00  0.00    +0.000 A 
BRANCH  15  18
ATOM     18  O   UNL     1       0.354   9.671  21.036  0.00  0.00    +0.000 OA
ATOM     19  H   UNL     1       0.740   9.607  21.926  0.00  0.00    +0.000 HD
ENDBRANCH  15  18
ENDBRANCH  11  12
ENDBRANCH   3  11
BRANCH   4  20
ATOM     20  C   UNL     1       5.764   4.528  19.318  0.00  0.00    +0.000 C 
BRANCH  20  21
ATOM     21  O   UNL     1       6.665   4.194  18.263  0.00  0.00    +0.000 OA
BRANCH  21  22
ATOM     22  C   UNL     1       7.453   5.305  17.827  0.00  0.00    +0.000 C 
BRANCH  22  23
ATOM     23  C   UNL     1       7.908   6.063  19.070  0.00  0.00    +0.000 C 
BRANCH  23  24
ATOM     24  O   UNL     1       8.362   7.368  18.711  0.00  0.00    +0.000 OA
ATOM     25  H   UNL     1       9.299   7.400  18.991  0.00  0.00    +0.000 HD
ENDBRANCH  23  24
ENDBRANCH  22  23
ENDBRANCH  21  22
ENDBRANCH  20  21
ENDBRANCH   4  20
TORSDOF 8
ENDMDL
MODEL 4
REMARK VINA RESULT:      -6.7      0.951      1.225
REMARK  Name = 
REMARK  9 active torsions:
REMARK  status: ('A' for Active; 'I' for Inactive)
REMARK    1  A    between atoms: C_1  and  C_2
REMARK    2  A    between atoms: C_3  and  S_4
REMARK    3  A    between atoms: S_4  and  C_5
REMARK    4  A    between atoms: C_8  and  O_9
REMARK    5  A    between atoms: N_12  and  C_13
REMARK    6  A    between atoms: C_13  and  O_14
REMARK    7  A    between atoms: O_14  and  C_15
REMARK    8  A    between atoms: C_15  and  C_16
REMARK    9  A    between atoms: C_16  and  O_17
REMARK                            x       y       z     vdW  Elec       q    Type
REMARK                         _______ _______ _______ _____ _____    ______ ____
ROOT
ATOM      1  C   UNL     1       1.044   4.504  17.281  0.00  0.00    +0.000 C 
ATOM      2  C   UNL     1       2.174   4.002  18.138  0.00  0.00    +0.000 A 
ATOM      3  C   UNL     1       3.406   4.543  18.285  0.00  0.00    +0.000 A 
ATOM      4  N   UNL     1       4.374   3.925  19.091  0.00  0.00    +0.000 N 
ATOM      5  C   UNL     1       4.110   2.729  19.759  0.00  0.00    +0.000 A 
ATOM      6  O   UNL     1       4.927   2.122  20.445  0.00  0.00    +0.000 OA
ATOM      7  N   UNL     1       2.853   2.233  19.632  0.00  0.00    +0.000 N 
ATOM      8  C   UNL     1       1.851   2.769  18.893  0.00  0.00    +0.000 A 
ATOM      9  O   UNL     1       0.739   2.251  18.861  0.00  0.00    +0.000 OA
ATOM     10  H   UNL     1       2.644   1.389  20.142  0.00  0.00    +0.000 HD
ENDROOT
BRANCH   3  11
ATOM     11  S   UNL     1       3.725   6.107  17.565  0.00  0.00    +0.000 S 
BRANCH  11  12
ATOM     12  C   UNL     1       2.731   7.263  18.489  0.00  0.00    +0.000 A 
ATOM     13  C   UNL     1       2.382   7.113  19.835  0.00  0.00    +0.000 A 
ATOM     14  C   UNL     1       1.543   8.039  20.462  0.00  0.00    +0.000 A 
ATOM     15  C   UNL     1       1.069   9.135  19.746  0.00  0.00    +0.000 A 
ATOM     16  C   UNL     1       1.450   9.337  18.427  0.00  0.00    +0.000 A 
ATOM     17  C   UNL     1       2.275   8.399  17.800  0.00  0.00    +0.000 A 
BRANCH  15  18
ATOM     18  O   UNL     1       0.213  10.031  20.307  0.00  0.00    +0.000 OA
ATOM     19  H   UNL     1      -0.313  10.442  19.601  0.00  0.00    +0.000 HD
ENDBRANCH  15  18
ENDBRANCH  11  12
ENDBRANCH   3  11
BRANCH   4  20
ATOM     20  C   UNL     1       5.741   4.421  19.234  0.00  0.00    +0.000 C 
BRANCH  20  21
ATOM     21  O   UNL     1       6.530   4.202  18.065  0.00  0.00    +0.000 OA
BRANCH  21  22
ATOM     22  C   UNL     1       7.808   4.840  18.125  0.00  0.00    +0.000 C 
BRANCH  22  23
ATOM     23  C   UNL     1       7.754   5.878  19.241  0.00  0.00    +0.000 C 
BRANCH  23  24
ATOM     24  O   UNL     1       8.328   7.107  18.798  0.00  0.00    +0.000 OA
ATOM     25  H   UNL     1       8.219   7.107  17.826  0.00  0.00    +0.000 HD
ENDBRANCH  23  24
ENDBRANCH  22  23
ENDBRANCH  21  22
ENDBRANCH  20  21
ENDBRANCH   4  20
TORSDOF 8
ENDMDL
MODEL 5
REMARK VINA RESULT:      -6.4      1.772      2.024
REMARK  Name = 
REMARK  9 active torsions:
REMARK  status: ('A' for Active; 'I' for Inactive)
REMARK    1  A    between atoms: C_1  and  C_2
REMARK    2  A    between atoms: C_3  and  S_4
REMARK    3  A    between atoms: S_4  and  C_5
REMARK    4  A    between atoms: C_8  and  O_9
REMARK    5  A    between atoms: N_12  and  C_13
REMARK    6  A    between atoms: C_13  and  O_14
REMARK    7  A    between atoms: O_14  and  C_15
REMARK    8  A    between atoms: C_15  and  C_16
REMARK    9  A    between atoms: C_16  and  O_17
REMARK                            x       y       z     vdW  Elec       q    Type
REMARK                         _______ _______ _______ _____ _____    ______ ____
ROOT
ATOM      1  C   UNL     1       0.685   4.051  20.048  0.00  0.00    +0.000 C 
ATOM      2  C   UNL     1       1.859   4.095  19.108  0.00  0.00    +0.000 A 
ATOM      3  C   UNL     1       2.858   5.006  19.072  0.00  0.00    +0.000 A 
ATOM      4  N   UNL     1       3.864   4.936  18.097  0.00  0.00    +0.000 N 
ATOM      5  C   UNL     1       3.867   3.937  17.124  0.00  0.00    +0.000 A 
ATOM      6  O   UNL     1       4.696   3.847  16.223  0.00  0.00    +0.000 OA
ATOM      7  N   UNL     1       2.881   3.009  17.211  0.00  0.00    +0.000 N 
ATOM      8  C   UNL     1       1.881   2.985  18.126  0.00  0.00    +0.000 A 
ATOM      9  O   UNL     1       1.046   2.086  18.131  0.00  0.00    +0.000 OA
ATOM     10  H   UNL     1       2.898   2.262  16.534  0.00  0.00    +0.000 HD
ENDROOT
BRANCH   3  11
ATOM     11  S   UNL     1       2.953   6.194  20.356  0.00  0.00    +0.000 S 
BRANCH  11  12
ATOM     12  C   UNL     1       2.096   7.629  19.734  0.00  0.00    +0.000 A 
ATOM     13  C   UNL     1       1.278   8.461  20.505  0.00  0.00    +0.000 A 
ATOM     14  C   UNL     1       0.592   9.529  19.918  0.00  0.00    +0.000 A 
ATOM     15  C   UNL     1       0.743   9.780  18.557  0.00  0.00    +0.000 A 
ATOM     16  C   UNL     1       1.597   9.005  17.785  0.00  0.00    +0.000 A 
ATOM     17  C   UNL     1       2.267   7.929  18.373  0.00  0.00    +0.000 A 
BRANCH  15  18
ATOM     18  O   UNL     1       0.056  10.780  17.941  0.00  0.00    +0.000 OA
ATOM     19  H   UNL     1      -0.482  11.243  18.605  0.00  0.00    +0.000 HD
ENDBRANCH  15  18
ENDBRANCH  11  12
ENDBRANCH   3  11
BRANCH   4  20
ATOM     20  C   UNL     1       4.928   5.929  17.963  0.00  0.00    +0.000 C 
BRANCH  20  21
ATOM     21  O   UNL     1       6.001   5.712  18.879  0.00  0.00    +0.000 OA
BRANCH  21  22
ATOM     22  C   UNL     1       7.289   5.891  18.286  0.00  0.00    +0.000 C 
BRANCH  22  23
ATOM     23  C   UNL     1       7.733   4.541  17.732  0.00  0.00    +0.000 C 
BRANCH  23  24
ATOM     24  O   UNL     1       7.707   4.562  16.305  0.00  0.00    +0.000 OA
ATOM     25  H   UNL     1       7.985   5.466  16.056  0.00  0.00    +0.000 HD
ENDBRANCH  23  24
ENDBRANCH  22  23
ENDBRANCH  21  22
ENDBRANCH  20  21
ENDBRANCH   4  20
TORSDOF 8
ENDMDL
MODEL 6
REMARK VINA RESULT:      -6.3      1.848      2.233
REMARK  Name = 
REMARK  9 active torsions:
REMARK  status: ('A' for Active; 'I' for Inactive)
REMARK    1  A    between atoms: C_1  and  C_2
REMARK    2  A    between atoms: C_3  and  S_4
REMARK    3  A    between atoms: S_4  and  C_5
REMARK    4  A    between atoms: C_8  and  O_9
REMARK    5  A    between atoms: N_12  and  C_13
REMARK    6  A    between atoms: C_13  and  O_14
REMARK    7  A    between atoms: O_14  and  C_15
REMARK    8  A    between atoms: C_15  and  C_16
REMARK    9  A    between atoms: C_16  and  O_17
REMARK                            x       y       z     vdW  Elec       q    Type
REMARK                         _______ _______ _______ _____ _____    ______ ____
ROOT
ATOM      1  C   UNL     1       0.698   4.074  20.073  0.00  0.00    +0.000 C 
ATOM      2  C   UNL     1       1.841   4.140  19.097  0.00  0.00    +0.000 A 
ATOM      3  C   UNL     1       2.793   5.098  18.999  0.00  0.00    +0.000 A 
ATOM      4  N   UNL     1       3.773   5.041  17.996  0.00  0.00    +0.000 N 
ATOM      5  C   UNL     1       3.798   4.008  17.060  0.00  0.00    +0.000 A 
ATOM      6  O   UNL     1       4.604   3.925  16.137  0.00  0.00    +0.000 OA
ATOM      7  N   UNL     1       2.862   3.036  17.209  0.00  0.00    +0.000 N 
ATOM      8  C   UNL     1       1.890   2.998  18.155  0.00  0.00    +0.000 A 
ATOM      9  O   UNL     1       1.102   2.060  18.217  0.00  0.00    +0.000 OA
ATOM     10  H   UNL     1       2.897   2.267  16.559  0.00  0.00    +0.000 HD
ENDROOT
BRANCH   3  11
ATOM     11  S   UNL     1       2.865   6.336  20.235  0.00  0.00    +0.000 S 
BRANCH  11  12
ATOM     12  C   UNL     1       2.027   7.747  19.540  0.00  0.00    +0.000 A 
ATOM     13  C   UNL     1       2.093   8.127  18.195  0.00  0.00    +0.000 A 
ATOM     14  C   UNL     1       1.454   9.288  17.750  0.00  0.00    +0.000 A 
ATOM     15  C   UNL     1       0.725  10.061  18.649  0.00  0.00    +0.000 A 
ATOM     16  C   UNL     1       0.595   9.672  19.975  0.00  0.00    +0.000 A 
ATOM     17  C   UNL     1       1.250   8.519  20.418  0.00  0.00    +0.000 A 
BRANCH  15  18
ATOM     18  O   UNL     1       0.129  11.222  18.265  0.00  0.00    +0.000 OA
ATOM     19  H   UNL     1      -0.611  11.011  17.671  0.00  0.00    +0.000 HD
ENDBRANCH  15  18
ENDBRANCH  11  12
ENDBRANCH   3  11
BRANCH   4  20
ATOM     20  C   UNL     1       4.782   6.079  17.795  0.00  0.00    +0.000 C 
BRANCH  20  21
ATOM     21  O   UNL     1       5.937   5.888  18.611  0.00  0.00    +0.000 OA
BRANCH  21  22
ATOM     22  C   UNL     1       7.162   5.982  17.879  0.00  0.00    +0.000 C 
BRANCH  22  23
ATOM     23  C   UNL     1       7.754   4.580  17.788  0.00  0.00    +0.000 C 
BRANCH  23  24
ATOM     24  O   UNL     1       7.378   3.966  16.556  0.00  0.00    +0.000 OA
ATOM     25  H   UNL     1       8.210   3.869  16.052  0.00  0.00    +0.000 HD
ENDBRANCH  23  24
ENDBRANCH  22  23
ENDBRANCH  21  22
ENDBRANCH  20  21
ENDBRANCH   4  20
TORSDOF 8
ENDMDL
MODEL 7
REMARK VINA RESULT:      -6.3      1.780      2.266
REMARK  Name = 
REMARK  9 active torsions:
REMARK  status: ('A' for Active; 'I' for Inactive)
REMARK    1  A    between atoms: C_1  and  C_2
REMARK    2  A    between atoms: C_3  and  S_4
REMARK    3  A    between atoms: S_4  and  C_5
REMARK    4  A    between atoms: C_8  and  O_9
REMARK    5  A    between atoms: N_12  and  C_13
REMARK    6  A    between atoms: C_13  and  O_14
REMARK    7  A    between atoms: O_14  and  C_15
REMARK    8  A    between atoms: C_15  and  C_16
REMARK    9  A    between atoms: C_16  and  O_17
REMARK                            x       y       z     vdW  Elec       q    Type
REMARK                         _______ _______ _______ _____ _____    ______ ____
ROOT
ATOM      1  C   UNL     1       0.596   4.164  20.313  0.00  0.00    +0.000 C 
ATOM      2  C   UNL     1       1.708   3.855  19.347  0.00  0.00    +0.000 A 
ATOM      3  C   UNL     1       2.868   4.530  19.175  0.00  0.00    +0.000 A 
ATOM      4  N   UNL     1       3.791   4.141  18.193  0.00  0.00    +0.000 N 
ATOM      5  C   UNL     1       3.545   3.055  17.353  0.00  0.00    +0.000 A 
ATOM      6  O   UNL     1       4.295   2.692  16.451  0.00  0.00    +0.000 OA
ATOM      7  N   UNL     1       2.397   2.367  17.577  0.00  0.00    +0.000 N 
ATOM      8  C   UNL     1       1.458   2.657  18.511  0.00  0.00    +0.000 A 
ATOM      9  O   UNL     1       0.461   1.956  18.648  0.00  0.00    +0.000 OA
ATOM     10  H   UNL     1       2.231   1.558  16.998  0.00  0.00    +0.000 HD
ENDROOT
BRANCH   3  11
ATOM     11  S   UNL     1       3.262   5.815  20.298  0.00  0.00    +0.000 S 
BRANCH  11  12
ATOM     12  C   UNL     1       2.412   7.256  19.683  0.00  0.00    +0.000 A 
ATOM     13  C   UNL     1       1.581   8.077  20.452  0.00  0.00    +0.000 A 
ATOM     14  C   UNL     1       0.902   9.151  19.869  0.00  0.00    +0.000 A 
ATOM     15  C   UNL     1       1.072   9.421  18.514  0.00  0.00    +0.000 A 
ATOM     16  C   UNL     1       1.938   8.656  17.744  0.00  0.00    +0.000 A 
ATOM     17  C   UNL     1       2.601   7.574  18.328  0.00  0.00    +0.000 A 
BRANCH  15  18
ATOM     18  O   UNL     1       0.392  10.427  17.901  0.00  0.00    +0.000 OA
ATOM     19  H   UNL     1      -0.554  10.330  18.102  0.00  0.00    +0.000 HD
ENDBRANCH  15  18
ENDBRANCH  11  12
ENDBRANCH   3  11
BRANCH   4  20
ATOM     20  C   UNL     1       5.026   4.870  17.912  0.00  0.00    +0.000 C 
BRANCH  20  21
ATOM     21  O   UNL     1       6.116   4.437  18.724  0.00  0.00    +0.000 OA
BRANCH  21  22
ATOM     22  C   UNL     1       7.390   4.838  18.212  0.00  0.00    +0.000 C 
BRANCH  22  23
ATOM     23  C   UNL     1       7.921   5.948  19.113  0.00  0.00    +0.000 C 
BRANCH  23  24
ATOM     24  O   UNL     1       8.213   5.430  20.411  0.00  0.00    +0.000 OA
ATOM     25  H   UNL     1       8.994   4.856  20.289  0.00  0.00    +0.000 HD
ENDBRANCH  23  24
ENDBRANCH  22  23
ENDBRANCH  21  22
ENDBRANCH  20  21
ENDBRANCH   4  20
TORSDOF 8
ENDMDL
MODEL 8
REMARK VINA RESULT:      -6.3      2.372      5.107
REMARK  Name = 
REMARK  9 active torsions:
REMARK  status: ('A' for Active; 'I' for Inactive)
REMARK    1  A    between atoms: C_1  and  C_2
REMARK    2  A    between atoms: C_3  and  S_4
REMARK    3  A    between atoms: S_4  and  C_5
REMARK    4  A    between atoms: C_8  and  O_9
REMARK    5  A    between atoms: N_12  and  C_13
REMARK    6  A    between atoms: C_13  and  O_14
REMARK    7  A    between atoms: O_14  and  C_15
REMARK    8  A    between atoms: C_15  and  C_16
REMARK    9  A    between atoms: C_16  and  O_17
REMARK                            x       y       z     vdW  Elec       q    Type
REMARK                         _______ _______ _______ _____ _____    ______ ____
ROOT
ATOM      1  C   UNL     1       4.567   1.810  20.128  0.00  0.00    +0.000 C 
ATOM      2  C   UNL     1       3.575   2.941  20.104  0.00  0.00    +0.000 A 
ATOM      3  C   UNL     1       3.368   3.841  19.115  0.00  0.00    +0.000 A 
ATOM      4  N   UNL     1       2.430   4.874  19.263  0.00  0.00    +0.000 N 
ATOM      5  C   UNL     1       1.687   5.020  20.434  0.00  0.00    +0.000 A 
ATOM      6  O   UNL     1       0.882   5.925  20.638  0.00  0.00    +0.000 OA
ATOM      7  N   UNL     1       1.879   4.077  21.392  0.00  0.00    +0.000 N 
ATOM      8  C   UNL     1       2.747   3.037  21.329  0.00  0.00    +0.000 A 
ATOM      9  O   UNL     1       2.831   2.225  22.245  0.00  0.00    +0.000 OA
ATOM     10  H   UNL     1       1.319   4.155  22.226  0.00  0.00    +0.000 HD
ENDROOT
BRANCH   3  11
ATOM     11  S   UNL     1       4.190   3.608  17.586  0.00  0.00    +0.000 S 
BRANCH  11  12
ATOM     12  C   UNL     1       5.443   4.874  17.528  0.00  0.00    +0.000 A 
ATOM     13  C   UNL     1       6.573   4.914  18.352  0.00  0.00    +0.000 A 
ATOM     14  C   UNL     1       7.471   5.983  18.280  0.00  0.00    +0.000 A 
ATOM     15  C   UNL     1       7.253   7.006  17.362  0.00  0.00    +0.000 A 
ATOM     16  C   UNL     1       6.172   6.958  16.492  0.00  0.00    +0.000 A 
ATOM     17  C   UNL     1       5.268   5.896  16.580  0.00  0.00    +0.000 A 
BRANCH  15  18
ATOM     18  O   UNL     1       8.078   8.086  17.295  0.00  0.00    +0.000 OA
ATOM     19  H   UNL     1       7.882   8.673  18.044  0.00  0.00    +0.000 HD
ENDBRANCH  15  18
ENDBRANCH  11  12
ENDBRANCH   3  11
BRANCH   4  20
ATOM     20  C   UNL     1       2.211   5.916  18.262  0.00  0.00    +0.000 C 
BRANCH  20  21
ATOM     21  O   UNL     1       2.699   7.190  18.679  0.00  0.00    +0.000 OA
BRANCH  21  22
ATOM     22  C   UNL     1       2.606   8.187  17.659  0.00  0.00    +0.000 C 
BRANCH  22  23
ATOM     23  C   UNL     1       1.686   9.290  18.174  0.00  0.00    +0.000 C 
BRANCH  23  24
ATOM     24  O   UNL     1       1.946  10.510  17.481  0.00  0.00    +0.000 OA
ATOM     25  H   UNL     1       2.801  10.830  17.834  0.00  0.00    +0.000 HD
ENDBRANCH  23  24
ENDBRANCH  22  23
ENDBRANCH  21  22
ENDBRANCH  20  21
ENDBRANCH   4  20
TORSDOF 8
ENDMDL
MODEL 9
REMARK VINA RESULT:      -6.3      1.874      2.331
REMARK  Name = 
REMARK  9 active torsions:
REMARK  status: ('A' for Active; 'I' for Inactive)
REMARK    1  A    between atoms: C_1  and  C_2
REMARK    2  A    between atoms: C_3  and  S_4
REMARK    3  A    between atoms: S_4  and  C_5
REMARK    4  A    between atoms: C_8  and  O_9
REMARK    5  A    between atoms: N_12  and  C_13
REMARK    6  A    between atoms: C_13  and  O_14
REMARK    7  A    between atoms: O_14  and  C_15
REMARK    8  A    between atoms: C_15  and  C_16
REMARK    9  A    between atoms: C_16  and  O_17
REMARK                            x       y       z     vdW  Elec       q    Type
REMARK                         _______ _______ _______ _____ _____    ______ ____
ROOT
ATOM      1  C   UNL     1       1.048   3.689  19.322  0.00  0.00    +0.000 C 
ATOM      2  C   UNL     1       2.386   3.874  18.658  0.00  0.00    +0.000 A 
ATOM      3  C   UNL     1       3.298   4.846  18.889  0.00  0.00    +0.000 A 
ATOM      4  N   UNL     1       4.489   4.910  18.149  0.00  0.00    +0.000 N 
ATOM      5  C   UNL     1       4.771   3.986  17.144  0.00  0.00    +0.000 A 
ATOM      6  O   UNL     1       5.775   4.013  16.437  0.00  0.00    +0.000 OA
ATOM      7  N   UNL     1       3.862   2.994  16.964  0.00  0.00    +0.000 N 
ATOM      8  C   UNL     1       2.698   2.842  17.641  0.00  0.00    +0.000 A 
ATOM      9  O   UNL     1       1.951   1.895  17.416  0.00  0.00    +0.000 OA
ATOM     10  H   UNL     1       4.078   2.301  16.265  0.00  0.00    +0.000 HD
ENDROOT
BRANCH   3  11
ATOM     11  S   UNL     1       3.032   5.941  20.230  0.00  0.00    +0.000 S 
BRANCH  11  12
ATOM     12  C   UNL     1       2.248   7.375  19.518  0.00  0.00    +0.000 A 
ATOM     13  C   UNL     1       2.309   7.725  18.165  0.00  0.00    +0.000 A 
ATOM     14  C   UNL     1       1.716   8.905  17.706  0.00  0.00    +0.000 A 
ATOM     15  C   UNL     1       1.038   9.729  18.600  0.00  0.00    +0.000 A 
ATOM     16  C   UNL     1       0.913   9.372  19.935  0.00  0.00    +0.000 A 
ATOM     17  C   UNL     1       1.521   8.200  20.392  0.00  0.00    +0.000 A 
BRANCH  15  18
ATOM     18  O   UNL     1       0.490  10.908  18.200  0.00  0.00    +0.000 OA
ATOM     19  H   UNL     1      -0.301  10.719  17.668  0.00  0.00    +0.000 HD
ENDBRANCH  15  18
ENDBRANCH  11  12
ENDBRANCH   3  11
BRANCH   4  20
ATOM     20  C   UNL     1       5.478   5.974  18.303  0.00  0.00    +0.000 C 
BRANCH  20  21
ATOM     21  O   UNL     1       6.583   5.583  19.119  0.00  0.00    +0.000 OA
BRANCH  21  22
ATOM     22  C   UNL     1       7.790   6.278  18.796  0.00  0.00    +0.000 C 
BRANCH  22  23
ATOM     23  C   UNL     1       7.538   7.071  17.518  0.00  0.00    +0.000 C 
BRANCH  23  24
ATOM     24  O   UNL     1       7.982   8.418  17.680  0.00  0.00    +0.000 OA
ATOM     25  H   UNL     1       7.291   8.969  17.263  0.00  0.00    +0.000 HD
ENDBRANCH  23  24
ENDBRANCH  22  23
ENDBRANCH  21  22
ENDBRANCH  20  21
ENDBRANCH   4  20
TORSDOF 8
ENDMDL
