MODEL 1
REMARK VINA RESULT:      -7.3      0.000      0.000
REMARK  Name = 
REMARK  3 active torsions:
REMARK  status: ('A' for Active; 'I' for Inactive)
REMARK    1  A    between atoms: C_2  and  C_3
REMARK    2  A    between atoms: C_12  and  C_14
REMARK    3  A    between atoms: C_16  and  C_17
REMARK                            x       y       z     vdW  Elec       q    Type
REMARK                         _______ _______ _______ _____ _____    ______ ____
ROOT
ATOM      1  C   UNL     1      -1.040  12.606  20.502  0.00  0.00    +0.000 A 
ATOM      2  C   UNL     1      -1.275  11.877  19.338  0.00  0.00    +0.000 A 
ATOM      3  C   UNL     1      -2.565  11.740  18.860  0.00  0.00    +0.000 A 
ATOM      4  N   UNL     1      -3.622  12.211  19.559  0.00  0.00    +0.000 NA
ATOM      5  C   UNL     1      -3.423  12.789  20.756  0.00  0.00    +0.000 A 
ATOM      6  C   UNL     1      -4.545  13.129  21.502  0.00  0.00    +0.000 A 
ATOM      7  C   UNL     1      -4.449  13.693  22.776  0.00  0.00    +0.000 A 
ATOM      8  C   UNL     1      -3.195  13.961  23.301  0.00  0.00    +0.000 A 
ATOM      9 BR   UNL     1      -3.040  14.688  25.039  0.00  0.00    +0.000 Br
ATOM     10  C   UNL     1      -2.051  13.665  22.563  0.00  0.00    +0.000 A 
ATOM     11  C   UNL     1      -2.141  13.039  21.289  0.00  0.00    +0.000 A 
ENDROOT
BRANCH   1  18
ATOM     12  O   UNL     1       3.371  17.133  17.654  0.00  0.00    +0.000 OA
ATOM     13  C   UNL     1       3.853  16.190  18.285  0.00  0.00    +0.000 C 
ATOM     14  N   UNL     1       3.012  15.262  18.912  0.00  0.00    +0.000 N 
ATOM     15  C   UNL     1       3.457  14.162  19.787  0.00  0.00    +0.000 C 
ATOM     16  C   UNL     1       2.526  13.957  20.994  0.00  0.00    +0.000 C 
ATOM     17  N   UNL     1       1.119  13.903  20.587  0.00  0.00    +0.000 N 
ATOM     18  C   UNL     1       0.375  12.771  20.941  0.00  0.00    +0.000 C 
ATOM     19  O   UNL     1       0.871  11.858  21.596  0.00  0.00    +0.000 OA
ATOM     20  C   UNL     1       0.704  15.103  19.839  0.00  0.00    +0.000 C 
ATOM     21  C   UNL     1       1.580  15.266  18.582  0.00  0.00    +0.000 C 
BRANCH  13  22
ATOM     22  C   UNL     1       5.294  16.048  18.416  0.00  0.00    +0.000 A 
ATOM     23  C   UNL     1       6.210  16.850  19.073  0.00  0.00    +0.000 A 
ATOM     24  C   UNL     1       7.486  16.275  18.867  0.00  0.00    +0.000 A 
ATOM     25  C   UNL     1       7.283  15.179  18.065  0.00  0.00    +0.000 A 
ATOM     26  O   UNL     1       5.965  15.042  17.772  0.00  0.00    +0.000 OA
ENDBRANCH  13  22
ENDBRANCH   1  18
BRANCH   3  27
ATOM     27  C   UNL     1      -2.856  11.115  17.553  0.00  0.00    +0.000 A 
ATOM     28  C   UNL     1      -2.018  10.138  16.994  0.00  0.00    +0.000 A 
ATOM     29  C   UNL     1      -2.305   9.626  15.738  0.00  0.00    +0.000 A 
ATOM     30  N   UNL     1      -3.363  10.007  15.000  0.00  0.00    +0.000 NA
ATOM     31  C   UNL     1      -4.177  10.933  15.548  0.00  0.00    +0.000 A 
ATOM     32  C   UNL     1      -3.968  11.504  16.795  0.00  0.00    +0.000 A 
ENDBRANCH   3  27
TORSDOF 3
ENDMDL
MODEL 2
REMARK VINA RESULT:      -7.1      4.563      7.934
REMARK  Name = 
REMARK  3 active torsions:
REMARK  status: ('A' for Active; 'I' for Inactive)
REMARK    1  A    between atoms: C_2  and  C_3
REMARK    2  A    between atoms: C_12  and  C_14
REMARK    3  A    between atoms: C_16  and  C_17
REMARK                            x       y       z     vdW  Elec       q    Type
REMARK                         _______ _______ _______ _____ _____    ______ ____
ROOT
ATOM      1  C   UNL     1       1.087  12.726  20.248  0.00  0.00    +0.000 A 
ATOM      2  C   UNL     1       0.010  12.511  21.105  0.00  0.00    +0.000 A 
ATOM      3  C   UNL     1      -0.229  13.391  22.145  0.00  0.00    +0.000 A 
ATOM      4  N   UNL     1       0.625  14.404  22.413  0.00  0.00    +0.000 NA
ATOM      5  C   UNL     1       1.746  14.537  21.684  0.00  0.00    +0.000 A 
ATOM      6  C   UNL     1       2.664  15.501  22.084  0.00  0.00    +0.000 A 
ATOM      7  C   UNL     1       3.880  15.691  21.424  0.00  0.00    +0.000 A 
ATOM      8  C   UNL     1       4.168  14.923  20.308  0.00  0.00    +0.000 A 
ATOM      9 BR   UNL     1       5.823  15.136  19.421  0.00  0.00    +0.000 Br
ATOM     10  C   UNL     1       3.252  13.973  19.860  0.00  0.00    +0.000 A 
ATOM     11  C   UNL     1       2.038  13.735  20.560  0.00  0.00    +0.000 A 
ENDROOT
BRANCH   1  18
ATOM     12  O   UNL     1       1.637   5.857  21.004  0.00  0.00    +0.000 OA
ATOM     13  C   UNL     1       2.059   6.349  19.956  0.00  0.00    +0.000 C 
ATOM     14  N   UNL     1       1.944   7.726  19.731  0.00  0.00    +0.000 N 
ATOM     15  C   UNL     1       2.302   8.418  18.479  0.00  0.00    +0.000 C 
ATOM     16  C   UNL     1       1.305   9.532  18.118  0.00  0.00    +0.000 C 
ATOM     17  N   UNL     1       1.035  10.408  19.262  0.00  0.00    +0.000 N 
ATOM     18  C   UNL     1       1.266  11.779  19.110  0.00  0.00    +0.000 C 
ATOM     19  O   UNL     1       1.659  12.248  18.045  0.00  0.00    +0.000 OA
ATOM     20  C   UNL     1       0.542   9.663  20.435  0.00  0.00    +0.000 C 
ATOM     21  C   UNL     1       1.577   8.600  20.854  0.00  0.00    +0.000 C 
BRANCH  13  22
ATOM     22  C   UNL     1       2.647   5.505  18.928  0.00  0.00    +0.000 A 
ATOM     23  C   UNL     1       2.037   4.718  17.967  0.00  0.00    +0.000 A 
ATOM     24  C   UNL     1       3.069   4.082  17.237  0.00  0.00    +0.000 A 
ATOM     25  C   UNL     1       4.247   4.484  17.817  0.00  0.00    +0.000 A 
ATOM     26  O   UNL     1       4.004   5.330  18.850  0.00  0.00    +0.000 OA
ENDBRANCH  13  22
ENDBRANCH   1  18
BRANCH   3  27
ATOM     27  C   UNL     1      -1.442  13.302  22.985  0.00  0.00    +0.000 A 
ATOM     28  C   UNL     1      -2.277  12.174  22.967  0.00  0.00    +0.000 A 
ATOM     29  C   UNL     1      -3.434  12.165  23.731  0.00  0.00    +0.000 A 
ATOM     30  N   UNL     1      -3.818  13.189  24.515  0.00  0.00    +0.000 NA
ATOM     31  C   UNL     1      -3.004  14.264  24.544  0.00  0.00    +0.000 A 
ATOM     32  C   UNL     1      -1.830  14.364  23.811  0.00  0.00    +0.000 A 
ENDBRANCH   3  27
TORSDOF 3
ENDMDL
MODEL 3
REMARK VINA RESULT:      -7.1      5.364      7.396
REMARK  Name = 
REMARK  3 active torsions:
REMARK  status: ('A' for Active; 'I' for Inactive)
REMARK    1  A    between atoms: C_2  and  C_3
REMARK    2  A    between atoms: C_12  and  C_14
REMARK    3  A    between atoms: C_16  and  C_17
REMARK                            x       y       z     vdW  Elec       q    Type
REMARK                         _______ _______ _______ _____ _____    ______ ____
ROOT
ATOM      1  C   UNL     1       0.180  10.593  19.590  0.00  0.00    +0.000 A 
ATOM      2  C   UNL     1      -1.003  10.401  18.882  0.00  0.00    +0.000 A 
ATOM      3  C   UNL     1      -1.508  11.419  18.094  0.00  0.00    +0.000 A 
ATOM      4  N   UNL     1      -0.930  12.641  18.078  0.00  0.00    +0.000 NA
ATOM      5  C   UNL     1       0.129  12.885  18.869  0.00  0.00    +0.000 A 
ATOM      6  C   UNL     1       0.600  14.191  18.929  0.00  0.00    +0.000 A 
ATOM      7  C   UNL     1       1.666  14.561  19.753  0.00  0.00    +0.000 A 
ATOM      8  C   UNL     1       2.302  13.590  20.508  0.00  0.00    +0.000 A 
ATOM      9 BR   UNL     1       3.721  14.073  21.659  0.00  0.00    +0.000 Br
ATOM     10  C   UNL     1       1.876  12.264  20.443  0.00  0.00    +0.000 A 
ATOM     11  C   UNL     1       0.756  11.891  19.650  0.00  0.00    +0.000 A 
ENDROOT
BRANCH   1  18
ATOM     12  O   UNL     1       4.004   5.493  16.865  0.00  0.00    +0.000 OA
ATOM     13  C   UNL     1       3.439   5.269  17.937  0.00  0.00    +0.000 C 
ATOM     14  N   UNL     1       2.681   6.272  18.554  0.00  0.00    +0.000 N 
ATOM     15  C   UNL     1       2.053   6.170  19.884  0.00  0.00    +0.000 C 
ATOM     16  C   UNL     1       2.154   7.480  20.684  0.00  0.00    +0.000 C 
ATOM     17  N   UNL     1       1.739   8.635  19.883  0.00  0.00    +0.000 N 
ATOM     18  C   UNL     1       0.710   9.444  20.379  0.00  0.00    +0.000 C 
ATOM     19  O   UNL     1       0.183   9.216  21.465  0.00  0.00    +0.000 OA
ATOM     20  C   UNL     1       2.509   8.757  18.632  0.00  0.00    +0.000 C 
ATOM     21  C   UNL     1       2.343   7.479  17.787  0.00  0.00    +0.000 C 
BRANCH  13  22
ATOM     22  C   UNL     1       3.579   3.978  18.591  0.00  0.00    +0.000 A 
ATOM     23  C   UNL     1       4.595   3.495  19.397  0.00  0.00    +0.000 A 
ATOM     24  C   UNL     1       4.250   2.169  19.748  0.00  0.00    +0.000 A 
ATOM     25  C   UNL     1       3.065   1.903  19.107  0.00  0.00    +0.000 A 
ATOM     26  O   UNL     1       2.659   2.982  18.391  0.00  0.00    +0.000 OA
ENDBRANCH  13  22
ENDBRANCH   1  18
BRANCH   3  27
ATOM     27  C   UNL     1      -2.668  11.219  17.201  0.00  0.00    +0.000 A 
ATOM     28  C   UNL     1      -2.538  10.629  15.934  0.00  0.00    +0.000 A 
ATOM     29  C   UNL     1      -3.648  10.519  15.111  0.00  0.00    +0.000 A 
ATOM     30  N   UNL     1      -4.877  10.943  15.457  0.00  0.00    +0.000 NA
ATOM     31  C   UNL     1      -5.003  11.493  16.682  0.00  0.00    +0.000 A 
ATOM     32  C   UNL     1      -3.949  11.649  17.570  0.00  0.00    +0.000 A 
ENDBRANCH   3  27
TORSDOF 3
ENDMDL
MODEL 4
REMARK VINA RESULT:      -7.0      4.679      7.553
REMARK  Name = 
REMARK  3 active torsions:
REMARK  status: ('A' for Active; 'I' for Inactive)
REMARK    1  A    between atoms: C_2  and  C_3
REMARK    2  A    between atoms: C_12  and  C_14
REMARK    3  A    between atoms: C_16  and  C_17
REMARK                            x       y       z     vdW  Elec       q    Type
REMARK                         _______ _______ _______ _____ _____    ______ ____
ROOT
ATOM      1  C   UNL     1       0.785  12.415  19.937  0.00  0.00    +0.000 A 
ATOM      2  C   UNL     1      -0.445  12.124  20.523  0.00  0.00    +0.000 A 
ATOM      3  C   UNL     1      -0.956  12.956  21.502  0.00  0.00    +0.000 A 
ATOM      4  N   UNL     1      -0.235  13.995  21.980  0.00  0.00    +0.000 NA
ATOM      5  C   UNL     1       1.013  14.202  21.527  0.00  0.00    +0.000 A 
ATOM      6  C   UNL     1       1.768  15.190  22.148  0.00  0.00    +0.000 A 
ATOM      7  C   UNL     1       3.090  15.456  21.784  0.00  0.00    +0.000 A 
ATOM      8  C   UNL     1       3.659  14.740  20.744  0.00  0.00    +0.000 A 
ATOM      9 BR   UNL     1       5.459  15.055  20.260  0.00  0.00    +0.000 Br
ATOM     10  C   UNL     1       2.917  13.767  20.078  0.00  0.00    +0.000 A 
ATOM     11  C   UNL     1       1.590  13.452  20.480  0.00  0.00    +0.000 A 
ENDROOT
BRANCH   1  18
ATOM     12  O   UNL     1       1.748   5.593  20.712  0.00  0.00    +0.000 OA
ATOM     13  C   UNL     1       2.325   6.145  19.774  0.00  0.00    +0.000 C 
ATOM     14  N   UNL     1       2.142   7.515  19.545  0.00  0.00    +0.000 N 
ATOM     15  C   UNL     1       2.679   8.267  18.397  0.00  0.00    +0.000 C 
ATOM     16  C   UNL     1       1.683   9.308  17.858  0.00  0.00    +0.000 C 
ATOM     17  N   UNL     1       1.121  10.127  18.935  0.00  0.00    +0.000 N 
ATOM     18  C   UNL     1       1.262  11.517  18.847  0.00  0.00    +0.000 C 
ATOM     19  O   UNL     1       1.816  12.044  17.885  0.00  0.00    +0.000 OA
ATOM     20  C   UNL     1       0.472   9.314  19.979  0.00  0.00    +0.000 C 
ATOM     21  C   UNL     1       1.490   8.326  20.583  0.00  0.00    +0.000 C 
BRANCH  13  22
ATOM     22  C   UNL     1       3.172   5.380  18.873  0.00  0.00    +0.000 A 
ATOM     23  C   UNL     1       2.831   4.588  17.790  0.00  0.00    +0.000 A 
ATOM     24  C   UNL     1       4.035   4.049  17.278  0.00  0.00    +0.000 A 
ATOM     25  C   UNL     1       5.036   4.507  18.098  0.00  0.00    +0.000 A 
ATOM     26  O   UNL     1       4.525   5.298  19.076  0.00  0.00    +0.000 OA
ENDBRANCH  13  22
ENDBRANCH   1  18
BRANCH   3  27
ATOM     27  C   UNL     1      -2.320  12.785  22.045  0.00  0.00    +0.000 A 
ATOM     28  C   UNL     1      -3.456  12.825  21.222  0.00  0.00    +0.000 A 
ATOM     29  C   UNL     1      -4.717  12.718  21.789  0.00  0.00    +0.000 A 
ATOM     30  N   UNL     1      -4.931  12.568  23.109  0.00  0.00    +0.000 NA
ATOM     31  C   UNL     1      -3.836  12.511  23.895  0.00  0.00    +0.000 A 
ATOM     32  C   UNL     1      -2.537  12.613  23.418  0.00  0.00    +0.000 A 
ENDBRANCH   3  27
TORSDOF 3
ENDMDL
MODEL 5
REMARK VINA RESULT:      -7.0      5.308      7.419
REMARK  Name = 
REMARK  3 active torsions:
REMARK  status: ('A' for Active; 'I' for Inactive)
REMARK    1  A    between atoms: C_2  and  C_3
REMARK    2  A    between atoms: C_12  and  C_14
REMARK    3  A    between atoms: C_16  and  C_17
REMARK                            x       y       z     vdW  Elec       q    Type
REMARK                         _______ _______ _______ _____ _____    ______ ____
ROOT
ATOM      1  C   UNL     1       0.197  10.573  19.565  0.00  0.00    +0.000 A 
ATOM      2  C   UNL     1      -0.986  10.406  18.848  0.00  0.00    +0.000 A 
ATOM      3  C   UNL     1      -1.479  11.445  18.081  0.00  0.00    +0.000 A 
ATOM      4  N   UNL     1      -0.890  12.662  18.094  0.00  0.00    +0.000 NA
ATOM      5  C   UNL     1       0.168  12.880  18.893  0.00  0.00    +0.000 A 
ATOM      6  C   UNL     1       0.651  14.180  18.983  0.00  0.00    +0.000 A 
ATOM      7  C   UNL     1       1.717  14.522  19.817  0.00  0.00    +0.000 A 
ATOM      8  C   UNL     1       2.343  13.529  20.553  0.00  0.00    +0.000 A 
ATOM      9 BR   UNL     1       3.762  13.974  21.719  0.00  0.00    +0.000 Br
ATOM     10  C   UNL     1       1.904  12.209  20.458  0.00  0.00    +0.000 A 
ATOM     11  C   UNL     1       0.784  11.864  19.654  0.00  0.00    +0.000 A 
ENDROOT
BRANCH   1  18
ATOM     12  O   UNL     1       4.074   5.553  16.765  0.00  0.00    +0.000 OA
ATOM     13  C   UNL     1       3.489   5.299  17.820  0.00  0.00    +0.000 C 
ATOM     14  N   UNL     1       2.719   6.283  18.452  0.00  0.00    +0.000 N 
ATOM     15  C   UNL     1       2.068   6.143  19.767  0.00  0.00    +0.000 C 
ATOM     16  C   UNL     1       2.153   7.430  20.605  0.00  0.00    +0.000 C 
ATOM     17  N   UNL     1       1.752   8.608  19.829  0.00  0.00    +0.000 N 
ATOM     18  C   UNL     1       0.714   9.402  20.330  0.00  0.00    +0.000 C 
ATOM     19  O   UNL     1       0.167   9.143  21.399  0.00  0.00    +0.000 OA
ATOM     20  C   UNL     1       2.544   8.765  18.597  0.00  0.00    +0.000 C 
ATOM     21  C   UNL     1       2.394   7.511  17.713  0.00  0.00    +0.000 C 
BRANCH  13  22
ATOM     22  C   UNL     1       3.619   3.990  18.440  0.00  0.00    +0.000 A 
ATOM     23  C   UNL     1       2.911   2.823  18.211  0.00  0.00    +0.000 A 
ATOM     24  C   UNL     1       3.419   1.849  19.102  0.00  0.00    +0.000 A 
ATOM     25  C   UNL     1       4.378   2.484  19.851  0.00  0.00    +0.000 A 
ATOM     26  O   UNL     1       4.496   3.782  19.472  0.00  0.00    +0.000 OA
ENDBRANCH  13  22
ENDBRANCH   1  18
BRANCH   3  27
ATOM     27  C   UNL     1      -2.638  11.276  17.180  0.00  0.00    +0.000 A 
ATOM     28  C   UNL     1      -3.935  11.657  17.559  0.00  0.00    +0.000 A 
ATOM     29  C   UNL     1      -4.997  11.422  16.699  0.00  0.00    +0.000 A 
ATOM     30  N   UNL     1      -4.865  10.843  15.492  0.00  0.00    +0.000 NA
ATOM     31  C   UNL     1      -3.616  10.495  15.123  0.00  0.00    +0.000 A 
ATOM     32  C   UNL     1      -2.495  10.686  15.917  0.00  0.00    +0.000 A 
ENDBRANCH   3  27
TORSDOF 3
ENDMDL
MODEL 6
REMARK VINA RESULT:      -6.9      4.361      5.499
REMARK  Name = 
REMARK  3 active torsions:
REMARK  status: ('A' for Active; 'I' for Inactive)
REMARK    1  A    between atoms: C_2  and  C_3
REMARK    2  A    between atoms: C_12  and  C_14
REMARK    3  A    between atoms: C_16  and  C_17
REMARK                            x       y       z     vdW  Elec       q    Type
REMARK                         _______ _______ _______ _____ _____    ______ ____
ROOT
ATOM      1  C   UNL     1      -2.142  12.490  22.038  0.00  0.00    +0.000 A 
ATOM      2  C   UNL     1      -3.116  12.108  21.119  0.00  0.00    +0.000 A 
ATOM      3  C   UNL     1      -4.095  13.007  20.738  0.00  0.00    +0.000 A 
ATOM      4  N   UNL     1      -4.189  14.224  21.320  0.00  0.00    +0.000 NA
ATOM      5  C   UNL     1      -3.344  14.553  22.312  0.00  0.00    +0.000 A 
ATOM      6  C   UNL     1      -3.567  15.752  22.978  0.00  0.00    +0.000 A 
ATOM      7  C   UNL     1      -2.776  16.167  24.051  0.00  0.00    +0.000 A 
ATOM      8  C   UNL     1      -1.707  15.379  24.444  0.00  0.00    +0.000 A 
ATOM      9 BR   UNL     1      -0.645  15.900  25.918  0.00  0.00    +0.000 Br
ATOM     10  C   UNL     1      -1.435  14.187  23.774  0.00  0.00    +0.000 A 
ATOM     11  C   UNL     1      -2.270  13.732  22.717  0.00  0.00    +0.000 A 
ENDROOT
BRANCH   1  18
ATOM     12  O   UNL     1       1.870   9.414  17.294  0.00  0.00    +0.000 OA
ATOM     13  C   UNL     1       1.776   8.872  18.396  0.00  0.00    +0.000 C 
ATOM     14  N   UNL     1       1.009   9.464  19.407  0.00  0.00    +0.000 N 
ATOM     15  C   UNL     1       0.909   8.981  20.796  0.00  0.00    +0.000 C 
ATOM     16  C   UNL     1       0.886  10.130  21.818  0.00  0.00    +0.000 C 
ATOM     17  N   UNL     1      -0.081  11.166  21.445  0.00  0.00    +0.000 N 
ATOM     18  C   UNL     1      -1.077  11.501  22.370  0.00  0.00    +0.000 C 
ATOM     19  O   UNL     1      -1.130  10.966  23.474  0.00  0.00    +0.000 OA
ATOM     20  C   UNL     1       0.168  11.707  20.096  0.00  0.00    +0.000 C 
ATOM     21  C   UNL     1       0.107  10.571  19.057  0.00  0.00    +0.000 C 
BRANCH  13  22
ATOM     22  C   UNL     1       2.487   7.634  18.674  0.00  0.00    +0.000 A 
ATOM     23  C   UNL     1       3.515   7.023  17.978  0.00  0.00    +0.000 A 
ATOM     24  C   UNL     1       3.823   5.824  18.663  0.00  0.00    +0.000 A 
ATOM     25  C   UNL     1       2.942   5.750  19.714  0.00  0.00    +0.000 A 
ATOM     26  O   UNL     1       2.119   6.829  19.721  0.00  0.00    +0.000 OA
ENDBRANCH  13  22
ENDBRANCH   1  18
BRANCH   3  27
ATOM     27  C   UNL     1      -5.056  12.711  19.656  0.00  0.00    +0.000 A 
ATOM     28  C   UNL     1      -6.385  13.162  19.697  0.00  0.00    +0.000 A 
ATOM     29  C   UNL     1      -7.262  12.806  18.684  0.00  0.00    +0.000 A 
ATOM     30  N   UNL     1      -6.915  12.043  17.632  0.00  0.00    +0.000 NA
ATOM     31  C   UNL     1      -5.634  11.626  17.585  0.00  0.00    +0.000 A 
ATOM     32  C   UNL     1      -4.688  11.928  18.554  0.00  0.00    +0.000 A 
ENDBRANCH   3  27
TORSDOF 3
ENDMDL
MODEL 7
REMARK VINA RESULT:      -6.9      4.423      6.539
REMARK  Name = 
REMARK  3 active torsions:
REMARK  status: ('A' for Active; 'I' for Inactive)
REMARK    1  A    between atoms: C_2  and  C_3
REMARK    2  A    between atoms: C_12  and  C_14
REMARK    3  A    between atoms: C_16  and  C_17
REMARK                            x       y       z     vdW  Elec       q    Type
REMARK                         _______ _______ _______ _____ _____    ______ ____
ROOT
ATOM      1  C   UNL     1      -1.136  12.192  22.134  0.00  0.00    +0.000 A 
ATOM      2  C   UNL     1      -2.509  11.994  22.256  0.00  0.00    +0.000 A 
ATOM      3  C   UNL     1      -3.383  13.022  21.956  0.00  0.00    +0.000 A 
ATOM      4  N   UNL     1      -2.928  14.256  21.644  0.00  0.00    +0.000 NA
ATOM      5  C   UNL     1      -1.606  14.501  21.664  0.00  0.00    +0.000 A 
ATOM      6  C   UNL     1      -1.192  15.815  21.479  0.00  0.00    +0.000 A 
ATOM      7  C   UNL     1       0.154  16.185  21.525  0.00  0.00    +0.000 A 
ATOM      8  C   UNL     1       1.115  15.207  21.723  0.00  0.00    +0.000 A 
ATOM      9 BR   UNL     1       2.939  15.689  21.827  0.00  0.00    +0.000 Br
ATOM     10  C   UNL     1       0.734  13.875  21.876  0.00  0.00    +0.000 A 
ATOM     11  C   UNL     1      -0.638  13.500  21.886  0.00  0.00    +0.000 A 
ENDROOT
BRANCH   1  18
ATOM     12  O   UNL     1       2.262   8.671  17.223  0.00  0.00    +0.000 OA
ATOM     13  C   UNL     1       2.096   8.114  18.310  0.00  0.00    +0.000 C 
ATOM     14  N   UNL     1       1.448   8.787  19.353  0.00  0.00    +0.000 N 
ATOM     15  C   UNL     1       1.290   8.280  20.728  0.00  0.00    +0.000 C 
ATOM     16  C   UNL     1       1.467   9.383  21.785  0.00  0.00    +0.000 C 
ATOM     17  N   UNL     1       0.675  10.574  21.462  0.00  0.00    +0.000 N 
ATOM     18  C   UNL     1      -0.241  11.033  22.416  0.00  0.00    +0.000 C 
ATOM     19  O   UNL     1      -0.365  10.477  23.504  0.00  0.00    +0.000 OA
ATOM     20  C   UNL     1       0.990  11.112  20.127  0.00  0.00    +0.000 C 
ATOM     21  C   UNL     1       0.733  10.036  19.054  0.00  0.00    +0.000 C 
BRANCH  13  22
ATOM     22  C   UNL     1       2.601   6.769  18.536  0.00  0.00    +0.000 A 
ATOM     23  C   UNL     1       2.050   5.544  18.200  0.00  0.00    +0.000 A 
ATOM     24  C   UNL     1       2.937   4.549  18.674  0.00  0.00    +0.000 A 
ATOM     25  C   UNL     1       3.955   5.217  19.307  0.00  0.00    +0.000 A 
ATOM     26  O   UNL     1       3.755   6.558  19.245  0.00  0.00    +0.000 OA
ENDBRANCH  13  22
ENDBRANCH   1  18
BRANCH   3  27
ATOM     27  C   UNL     1      -4.847  12.822  21.916  0.00  0.00    +0.000 A 
ATOM     28  C   UNL     1      -5.643  12.933  23.067  0.00  0.00    +0.000 A 
ATOM     29  C   UNL     1      -7.003  12.677  22.986  0.00  0.00    +0.000 A 
ATOM     30  N   UNL     1      -7.630  12.328  21.848  0.00  0.00    +0.000 NA
ATOM     31  C   UNL     1      -6.866  12.240  20.741  0.00  0.00    +0.000 A 
ATOM     32  C   UNL     1      -5.498  12.472  20.726  0.00  0.00    +0.000 A 
ENDBRANCH   3  27
TORSDOF 3
ENDMDL
MODEL 8
REMARK VINA RESULT:      -6.8      4.411      6.356
REMARK  Name = 
REMARK  3 active torsions:
REMARK  status: ('A' for Active; 'I' for Inactive)
REMARK    1  A    between atoms: C_2  and  C_3
REMARK    2  A    between atoms: C_12  and  C_14
REMARK    3  A    between atoms: C_16  and  C_17
REMARK                            x       y       z     vdW  Elec       q    Type
REMARK                         _______ _______ _______ _____ _____    ______ ____
ROOT
ATOM      1  C   UNL     1      -1.233  12.265  21.742  0.00  0.00    +0.000 A 
ATOM      2  C   UNL     1      -2.583  11.979  21.551  0.00  0.00    +0.000 A 
ATOM      3  C   UNL     1      -3.430  12.954  21.059  0.00  0.00    +0.000 A 
ATOM      4  N   UNL     1      -2.997  14.218  20.855  0.00  0.00    +0.000 NA
ATOM      5  C   UNL     1      -1.732  14.546  21.172  0.00  0.00    +0.000 A 
ATOM      6  C   UNL     1      -1.372  15.885  21.083  0.00  0.00    +0.000 A 
ATOM      7  C   UNL     1      -0.098  16.338  21.431  0.00  0.00    +0.000 A 
ATOM      8  C   UNL     1       0.854  15.420  21.843  0.00  0.00    +0.000 A 
ATOM      9 BR   UNL     1       2.573  16.015  22.357  0.00  0.00    +0.000 Br
ATOM     10  C   UNL     1       0.535  14.065  21.910  0.00  0.00    +0.000 A 
ATOM     11  C   UNL     1      -0.777  13.604  21.611  0.00  0.00    +0.000 A 
ENDROOT
BRANCH   1  18
ATOM     12  O   UNL     1       2.479   8.198  17.530  0.00  0.00    +0.000 OA
ATOM     13  C   UNL     1       2.248   7.780  18.666  0.00  0.00    +0.000 C 
ATOM     14  N   UNL     1       1.534   8.571  19.574  0.00  0.00    +0.000 N 
ATOM     15  C   UNL     1       1.292   8.238  20.990  0.00  0.00    +0.000 C 
ATOM     16  C   UNL     1       1.398   9.466  21.909  0.00  0.00    +0.000 C 
ATOM     17  N   UNL     1       0.623  10.597  21.391  0.00  0.00    +0.000 N 
ATOM     18  C   UNL     1      -0.352  11.161  22.222  0.00  0.00    +0.000 C 
ATOM     19  O   UNL     1      -0.542  10.744  23.361  0.00  0.00    +0.000 OA
ATOM     20  C   UNL     1       1.019  10.968  20.021  0.00  0.00    +0.000 C 
ATOM     21  C   UNL     1       0.833   9.764  19.078  0.00  0.00    +0.000 C 
BRANCH  13  22
ATOM     22  C   UNL     1       2.744   6.480  19.090  0.00  0.00    +0.000 A 
ATOM     23  C   UNL     1       4.039   5.994  19.138  0.00  0.00    +0.000 A 
ATOM     24  C   UNL     1       3.963   4.659  19.601  0.00  0.00    +0.000 A 
ATOM     25  C   UNL     1       2.627   4.392  19.772  0.00  0.00    +0.000 A 
ATOM     26  O   UNL     1       1.880   5.479  19.450  0.00  0.00    +0.000 OA
ENDBRANCH  13  22
ENDBRANCH   1  18
BRANCH   3  27
ATOM     27  C   UNL     1      -4.831  12.663  20.689  0.00  0.00    +0.000 A 
ATOM     28  C   UNL     1      -5.208  12.379  19.367  0.00  0.00    +0.000 A 
ATOM     29  C   UNL     1      -6.544  12.171  19.064  0.00  0.00    +0.000 A 
ATOM     30  N   UNL     1      -7.532  12.217  19.977  0.00  0.00    +0.000 NA
ATOM     31  C   UNL     1      -7.165  12.471  21.250  0.00  0.00    +0.000 A 
ATOM     32  C   UNL     1      -5.855  12.697  21.646  0.00  0.00    +0.000 A 
ENDBRANCH   3  27
TORSDOF 3
ENDMDL
MODEL 9
REMARK VINA RESULT:      -6.7      4.485      8.222
REMARK  Name = 
REMARK  3 active torsions:
REMARK  status: ('A' for Active; 'I' for Inactive)
REMARK    1  A    between atoms: C_2  and  C_3
REMARK    2  A    between atoms: C_12  and  C_14
REMARK    3  A    between atoms: C_16  and  C_17
REMARK                            x       y       z     vdW  Elec       q    Type
REMARK                         _______ _______ _______ _____ _____    ______ ____
ROOT
ATOM      1  C   UNL     1       1.295  12.617  20.025  0.00  0.00    +0.000 A 
ATOM      2  C   UNL     1       2.452  13.264  20.450  0.00  0.00    +0.000 A 
ATOM      3  C   UNL     1       2.398  14.146  21.513  0.00  0.00    +0.000 A 
ATOM      4  N   UNL     1       1.219  14.476  22.087  0.00  0.00    +0.000 NA
ATOM      5  C   UNL     1       0.076  13.970  21.593  0.00  0.00    +0.000 A 
ATOM      6  C   UNL     1      -1.119  14.446  22.119  0.00  0.00    +0.000 A 
ATOM      7  C   UNL     1      -2.362  14.020  21.647  0.00  0.00    +0.000 A 
ATOM      8  C   UNL     1      -2.411  13.062  20.648  0.00  0.00    +0.000 A 
ATOM      9 BR   UNL     1      -4.082  12.499  19.966  0.00  0.00    +0.000 Br
ATOM     10  C   UNL     1      -1.231  12.539  20.124  0.00  0.00    +0.000 A 
ATOM     11  C   UNL     1       0.038  13.009  20.561  0.00  0.00    +0.000 A 
ENDROOT
BRANCH   1  18
ATOM     12  O   UNL     1       1.687   5.761  20.972  0.00  0.00    +0.000 OA
ATOM     13  C   UNL     1       2.094   6.211  19.899  0.00  0.00    +0.000 C 
ATOM     14  N   UNL     1       2.009   7.583  19.635  0.00  0.00    +0.000 N 
ATOM     15  C   UNL     1       2.352   8.229  18.355  0.00  0.00    +0.000 C 
ATOM     16  C   UNL     1       1.375   9.358  17.986  0.00  0.00    +0.000 C 
ATOM     17  N   UNL     1       1.157  10.273  19.110  0.00  0.00    +0.000 N 
ATOM     18  C   UNL     1       1.420  11.633  18.911  0.00  0.00    +0.000 C 
ATOM     19  O   UNL     1       1.797  12.060  17.823  0.00  0.00    +0.000 OA
ATOM     20  C   UNL     1       0.676   9.576  20.316  0.00  0.00    +0.000 C 
ATOM     21  C   UNL     1       1.694   8.499  20.740  0.00  0.00    +0.000 C 
BRANCH  13  22
ATOM     22  C   UNL     1       2.634   5.322  18.882  0.00  0.00    +0.000 A 
ATOM     23  C   UNL     1       1.979   4.536  17.950  0.00  0.00    +0.000 A 
ATOM     24  C   UNL     1       2.975   3.845  17.219  0.00  0.00    +0.000 A 
ATOM     25  C   UNL     1       4.176   4.217  17.770  0.00  0.00    +0.000 A 
ATOM     26  O   UNL     1       3.982   5.095  18.787  0.00  0.00    +0.000 OA
ENDBRANCH  13  22
ENDBRANCH   1  18
BRANCH   3  27
ATOM     27  C   UNL     1       3.616  14.739  22.105  0.00  0.00    +0.000 A 
ATOM     28  C   UNL     1       4.843  14.058  22.116  0.00  0.00    +0.000 A 
ATOM     29  C   UNL     1       5.941  14.635  22.736  0.00  0.00    +0.000 A 
ATOM     30  N   UNL     1       5.911  15.837  23.338  0.00  0.00    +0.000 NA
ATOM     31  C   UNL     1       4.736  16.497  23.310  0.00  0.00    +0.000 A 
ATOM     32  C   UNL     1       3.584  15.998  22.718  0.00  0.00    +0.000 A 
ENDBRANCH   3  27
TORSDOF 3
ENDMDL
