MODEL 1
REMARK VINA RESULT:      -7.6      0.000      0.000
REMARK  Name = 
REMARK  6 active torsions:
REMARK  status: ('A' for Active; 'I' for Inactive)
REMARK    1  A    between atoms: C_1  and  C_2
REMARK    2  A    between atoms: C_2  and  N_3
REMARK    3  A    between atoms: C_5  and  C_6
REMARK    4  A    between atoms: C_6  and  N_7
REMARK    5  A    between atoms: N_7  and  C_8
REMARK    6  A    between atoms: N_11  and  C_12
REMARK                            x       y       z     vdW  Elec       q    Type
REMARK                         _______ _______ _______ _____ _____    ______ ____
ROOT
ATOM      1  N   UNL     1       4.964   4.756  17.165  0.00  0.00    +0.000 N 
ATOM      2  C   UNL     1       4.232   3.532  17.455  0.00  0.00    +0.000 C 
ATOM      3  C   UNL     1       4.478   6.037  17.435  0.00  0.00    +0.000 C 
ATOM      4  O   UNL     1       5.091   7.040  17.080  0.00  0.00    +0.000 OA
ATOM      5  N   UNL     1       3.302   6.058  18.163  0.00  0.00    +0.000 N 
ATOM      6  H   UNL     1       3.072   5.215  18.661  0.00  0.00    +0.000 HD
ENDROOT
BRANCH   5   7
ATOM      7  C   UNL     1       2.550   7.190  18.547  0.00  0.00    +0.000 A 
ATOM      8  C   UNL     1       2.177   8.206  17.651  0.00  0.00    +0.000 A 
ATOM      9  C   UNL     1       1.456   9.322  18.090  0.00  0.00    +0.000 A 
ATOM     10  C   UNL     1       1.108   9.405  19.425  0.00  0.00    +0.000 A 
ATOM     11  C   UNL     1       1.459   8.391  20.321  0.00  0.00    +0.000 A 
ATOM     12  C   UNL     1       2.169   7.281  19.894  0.00  0.00    +0.000 A 
ATOM     13  C   UNL     1       1.036   8.743  21.713  0.00  0.00    +0.000 C 
ATOM     14  C   UNL     1       0.002   9.845  21.444  0.00  0.00    +0.000 C 
ATOM     15  C   UNL     1       0.415  10.527  20.132  0.00  0.00    +0.000 C 
ENDBRANCH   5   7
BRANCH   1  16
ATOM     16  C   UNL     1       6.331   4.631  16.660  0.00  0.00    +0.000 C 
BRANCH  16  19
ATOM     17  N   UNL     1       6.199   3.727  13.110  0.00  0.00    +0.000 N 
ATOM     18  C   UNL     1       5.694   3.586  14.372  0.00  0.00    +0.000 A 
ATOM     19  C   UNL     1       6.392   4.468  15.178  0.00  0.00    +0.000 A 
ATOM     20  C   UNL     1       7.279   5.108  14.280  0.00  0.00    +0.000 A 
ATOM     21  N   UNL     1       7.161   4.660  13.025  0.00  0.00    +0.000 NA
BRANCH  17  23
ATOM     22  C   UNL     1       4.346   3.272  11.518  0.00  0.00    +0.000 C 
ATOM     23  C   UNL     1       5.785   3.003  11.919  0.00  0.00    +0.000 C 
ENDBRANCH  17  23
ENDBRANCH  16  19
ENDBRANCH   1  16
TORSDOF 4
ENDMDL
MODEL 2
REMARK VINA RESULT:      -7.3      5.898      6.948
REMARK  Name = 
REMARK  6 active torsions:
REMARK  status: ('A' for Active; 'I' for Inactive)
REMARK    1  A    between atoms: C_1  and  C_2
REMARK    2  A    between atoms: C_2  and  N_3
REMARK    3  A    between atoms: C_5  and  C_6
REMARK    4  A    between atoms: C_6  and  N_7
REMARK    5  A    between atoms: N_7  and  C_8
REMARK    6  A    between atoms: N_11  and  C_12
REMARK                            x       y       z     vdW  Elec       q    Type
REMARK                         _______ _______ _______ _____ _____    ______ ____
ROOT
ATOM      1  N   UNL     1       7.698   6.796  18.173  0.00  0.00    +0.000 N 
ATOM      2  C   UNL     1       8.124   5.987  19.305  0.00  0.00    +0.000 C 
ATOM      3  C   UNL     1       7.986   8.156  18.034  0.00  0.00    +0.000 C 
ATOM      4  O   UNL     1       7.518   8.816  17.110  0.00  0.00    +0.000 OA
ATOM      5  N   UNL     1       8.862   8.652  18.982  0.00  0.00    +0.000 N 
ATOM      6  H   UNL     1       9.415   7.971  19.476  0.00  0.00    +0.000 HD
ENDROOT
BRANCH   5   7
ATOM      7  C   UNL     1       9.303   9.985  19.130  0.00  0.00    +0.000 A 
ATOM      8  C   UNL     1       9.877  10.725  18.083  0.00  0.00    +0.000 A 
ATOM      9  C   UNL     1      10.326  12.035  18.291  0.00  0.00    +0.000 A 
ATOM     10  C   UNL     1      10.186  12.593  19.548  0.00  0.00    +0.000 A 
ATOM     11  C   UNL     1       9.599  11.871  20.591  0.00  0.00    +0.000 A 
ATOM     12  C   UNL     1       9.149  10.576  20.393  0.00  0.00    +0.000 A 
ATOM     13  C   UNL     1       9.628  12.659  21.863  0.00  0.00    +0.000 C 
ATOM     14  C   UNL     1       9.870  14.079  21.333  0.00  0.00    +0.000 C 
ATOM     15  C   UNL     1      10.657  13.932  20.022  0.00  0.00    +0.000 C 
ENDBRANCH   5   7
BRANCH   1  16
ATOM     16  C   UNL     1       7.021   6.120  17.066  0.00  0.00    +0.000 C 
BRANCH  16  19
ATOM     17  N   UNL     1       3.830   4.454  17.762  0.00  0.00    +0.000 N 
ATOM     18  C   UNL     1       5.181   4.363  17.577  0.00  0.00    +0.000 A 
ATOM     19  C   UNL     1       5.647   5.656  17.420  0.00  0.00    +0.000 A 
ATOM     20  C   UNL     1       4.482   6.448  17.556  0.00  0.00    +0.000 A 
ATOM     21  N   UNL     1       3.380   5.720  17.764  0.00  0.00    +0.000 NA
BRANCH  17  23
ATOM     22  C   UNL     1       1.446   3.791  17.994  0.00  0.00    +0.000 C 
ATOM     23  C   UNL     1       2.900   3.355  17.963  0.00  0.00    +0.000 C 
ENDBRANCH  17  23
ENDBRANCH  16  19
ENDBRANCH   1  16
TORSDOF 4
ENDMDL
MODEL 3
REMARK VINA RESULT:      -7.3      1.033      1.165
REMARK  Name = 
REMARK  6 active torsions:
REMARK  status: ('A' for Active; 'I' for Inactive)
REMARK    1  A    between atoms: C_1  and  C_2
REMARK    2  A    between atoms: C_2  and  N_3
REMARK    3  A    between atoms: C_5  and  C_6
REMARK    4  A    between atoms: C_6  and  N_7
REMARK    5  A    between atoms: N_7  and  C_8
REMARK    6  A    between atoms: N_11  and  C_12
REMARK                            x       y       z     vdW  Elec       q    Type
REMARK                         _______ _______ _______ _____ _____    ______ ____
ROOT
ATOM      1  N   UNL     1       4.326   4.629  17.961  0.00  0.00    +0.000 N 
ATOM      2  C   UNL     1       3.354   3.554  18.092  0.00  0.00    +0.000 C 
ATOM      3  C   UNL     1       4.024   5.980  18.143  0.00  0.00    +0.000 C 
ATOM      4  O   UNL     1       4.857   6.856  17.923  0.00  0.00    +0.000 OA
ATOM      5  N   UNL     1       2.751   6.219  18.628  0.00  0.00    +0.000 N 
ATOM      6  H   UNL     1       2.289   5.439  19.064  0.00  0.00    +0.000 HD
ENDROOT
BRANCH   5   7
ATOM      7  C   UNL     1       2.144   7.471  18.869  0.00  0.00    +0.000 A 
ATOM      8  C   UNL     1       1.916   8.421  17.860  0.00  0.00    +0.000 A 
ATOM      9  C   UNL     1       1.338   9.661  18.158  0.00  0.00    +0.000 A 
ATOM     10  C   UNL     1       0.985   9.932  19.467  0.00  0.00    +0.000 A 
ATOM     11  C   UNL     1       1.191   8.985  20.475  0.00  0.00    +0.000 A 
ATOM     12  C   UNL     1       1.759   7.755  20.188  0.00  0.00    +0.000 A 
ATOM     13  C   UNL     1       0.797   9.537  21.809  0.00  0.00    +0.000 C 
ATOM     14  C   UNL     1      -0.084  10.723  21.396  0.00  0.00    +0.000 C 
ATOM     15  C   UNL     1       0.431  11.202  20.031  0.00  0.00    +0.000 C 
ENDBRANCH   5   7
BRANCH   1  16
ATOM     16  C   UNL     1       5.723   4.262  17.730  0.00  0.00    +0.000 C 
BRANCH  16  19
ATOM     17  N   UNL     1       6.505   4.150  14.150  0.00  0.00    +0.000 N 
ATOM     18  C   UNL     1       5.738   3.714  15.193  0.00  0.00    +0.000 A 
ATOM     19  C   UNL     1       6.142   4.429  16.307  0.00  0.00    +0.000 A 
ATOM     20  C   UNL     1       7.148   5.288  15.803  0.00  0.00    +0.000 A 
ATOM     21  N   UNL     1       7.367   5.121  14.495  0.00  0.00    +0.000 NA
BRANCH  17  23
ATOM     22  C   UNL     1       7.293   4.517  11.822  0.00  0.00    +0.000 C 
ATOM     23  C   UNL     1       6.451   3.686  12.773  0.00  0.00    +0.000 C 
ENDBRANCH  17  23
ENDBRANCH  16  19
ENDBRANCH   1  16
TORSDOF 4
ENDMDL
MODEL 4
REMARK VINA RESULT:      -7.2      3.592      8.461
REMARK  Name = 
REMARK  6 active torsions:
REMARK  status: ('A' for Active; 'I' for Inactive)
REMARK    1  A    between atoms: C_1  and  C_2
REMARK    2  A    between atoms: C_2  and  N_3
REMARK    3  A    between atoms: C_5  and  C_6
REMARK    4  A    between atoms: C_6  and  N_7
REMARK    5  A    between atoms: N_7  and  C_8
REMARK    6  A    between atoms: N_11  and  C_12
REMARK                            x       y       z     vdW  Elec       q    Type
REMARK                         _______ _______ _______ _____ _____    ______ ____
ROOT
ATOM      1  N   UNL     1       1.093  10.015  19.404  0.00  0.00    +0.000 N 
ATOM      2  C   UNL     1       0.794   9.652  20.781  0.00  0.00    +0.000 C 
ATOM      3  C   UNL     1       1.756   9.177  18.503  0.00  0.00    +0.000 C 
ATOM      4  O   UNL     1       2.074   9.567  17.383  0.00  0.00    +0.000 OA
ATOM      5  N   UNL     1       1.965   7.892  18.970  0.00  0.00    +0.000 N 
ATOM      6  H   UNL     1       1.395   7.603  19.746  0.00  0.00    +0.000 HD
ENDROOT
BRANCH   5   7
ATOM      7  C   UNL     1       2.643   6.840  18.315  0.00  0.00    +0.000 A 
ATOM      8  C   UNL     1       2.186   5.512  18.318  0.00  0.00    +0.000 A 
ATOM      9  C   UNL     1       2.912   4.501  17.677  0.00  0.00    +0.000 A 
ATOM     10  C   UNL     1       4.088   4.834  17.033  0.00  0.00    +0.000 A 
ATOM     11  C   UNL     1       4.542   6.156  17.009  0.00  0.00    +0.000 A 
ATOM     12  C   UNL     1       3.828   7.164  17.637  0.00  0.00    +0.000 A 
ATOM     13  C   UNL     1       5.865   6.250  16.317  0.00  0.00    +0.000 C 
ATOM     14  C   UNL     1       5.897   4.924  15.545  0.00  0.00    +0.000 C 
ATOM     15  C   UNL     1       5.062   3.922  16.355  0.00  0.00    +0.000 C 
ENDBRANCH   5   7
BRANCH   1  16
ATOM     16  C   UNL     1       0.575  11.288  18.903  0.00  0.00    +0.000 C 
BRANCH  16  19
ATOM     17  N   UNL     1      -2.803  11.050  17.499  0.00  0.00    +0.000 N 
ATOM     18  C   UNL     1      -1.471  10.763  17.395  0.00  0.00    +0.000 A 
ATOM     19  C   UNL     1      -0.875  11.230  18.554  0.00  0.00    +0.000 A 
ATOM     20  C   UNL     1      -1.958  11.758  19.296  0.00  0.00    +0.000 A 
ATOM     21  N   UNL     1      -3.128  11.648  18.657  0.00  0.00    +0.000 NA
BRANCH  17  23
ATOM     22  C   UNL     1      -3.296  10.176  15.226  0.00  0.00    +0.000 C 
ATOM     23  C   UNL     1      -3.837  10.757  16.520  0.00  0.00    +0.000 C 
ENDBRANCH  17  23
ENDBRANCH  16  19
ENDBRANCH   1  16
TORSDOF 4
ENDMDL
MODEL 5
REMARK VINA RESULT:      -7.2      3.075      9.233
REMARK  Name = 
REMARK  6 active torsions:
REMARK  status: ('A' for Active; 'I' for Inactive)
REMARK    1  A    between atoms: C_1  and  C_2
REMARK    2  A    between atoms: C_2  and  N_3
REMARK    3  A    between atoms: C_5  and  C_6
REMARK    4  A    between atoms: C_6  and  N_7
REMARK    5  A    between atoms: N_7  and  C_8
REMARK    6  A    between atoms: N_11  and  C_12
REMARK                            x       y       z     vdW  Elec       q    Type
REMARK                         _______ _______ _______ _____ _____    ______ ____
ROOT
ATOM      1  N   UNL     1       1.372   8.914  19.527  0.00  0.00    +0.000 N 
ATOM      2  C   UNL     1       1.346   8.458  20.909  0.00  0.00    +0.000 C 
ATOM      3  C   UNL     1       2.042   8.246  18.499  0.00  0.00    +0.000 C 
ATOM      4  O   UNL     1       2.118   8.725  17.370  0.00  0.00    +0.000 OA
ATOM      5  N   UNL     1       2.549   7.011  18.858  0.00  0.00    +0.000 N 
ATOM      6  H   UNL     1       2.159   6.594  19.686  0.00  0.00    +0.000 HD
ENDROOT
BRANCH   5   7
ATOM      7  C   UNL     1       3.307   6.128  18.058  0.00  0.00    +0.000 A 
ATOM      8  C   UNL     1       2.869   4.841  17.706  0.00  0.00    +0.000 A 
ATOM      9  C   UNL     1       3.674   3.994  16.934  0.00  0.00    +0.000 A 
ATOM     10  C   UNL     1       4.910   4.450  16.516  0.00  0.00    +0.000 A 
ATOM     11  C   UNL     1       5.347   5.737  16.846  0.00  0.00    +0.000 A 
ATOM     12  C   UNL     1       4.555   6.583  17.606  0.00  0.00    +0.000 A 
ATOM     13  C   UNL     1       6.737   5.970  16.343  0.00  0.00    +0.000 C 
ATOM     14  C   UNL     1       6.869   4.855  15.296  0.00  0.00    +0.000 C 
ATOM     15  C   UNL     1       5.963   3.705  15.759  0.00  0.00    +0.000 C 
ENDBRANCH   5   7
BRANCH   1  16
ATOM     16  C   UNL     1       0.562  10.080  19.176  0.00  0.00    +0.000 C 
BRANCH  16  19
ATOM     17  N   UNL     1      -0.391  12.257  21.967  0.00  0.00    +0.000 N 
ATOM     18  C   UNL     1      -0.636  11.140  21.219  0.00  0.00    +0.000 A 
ATOM     19  C   UNL     1       0.400  11.039  20.307  0.00  0.00    +0.000 A 
ATOM     20  C   UNL     1       1.228  12.144  20.622  0.00  0.00    +0.000 A 
ATOM     21  N   UNL     1       0.749  12.882  21.628  0.00  0.00    +0.000 NA
BRANCH  17  23
ATOM     22  C   UNL     1      -2.615  12.206  23.075  0.00  0.00    +0.000 C 
ATOM     23  C   UNL     1      -1.209  12.779  23.050  0.00  0.00    +0.000 C 
ENDBRANCH  17  23
ENDBRANCH  16  19
ENDBRANCH   1  16
TORSDOF 4
ENDMDL
MODEL 6
REMARK VINA RESULT:      -7.2      3.555      8.791
REMARK  Name = 
REMARK  6 active torsions:
REMARK  status: ('A' for Active; 'I' for Inactive)
REMARK    1  A    between atoms: C_1  and  C_2
REMARK    2  A    between atoms: C_2  and  N_3
REMARK    3  A    between atoms: C_5  and  C_6
REMARK    4  A    between atoms: C_6  and  N_7
REMARK    5  A    between atoms: N_7  and  C_8
REMARK    6  A    between atoms: N_11  and  C_12
REMARK                            x       y       z     vdW  Elec       q    Type
REMARK                         _______ _______ _______ _____ _____    ______ ____
ROOT
ATOM      1  N   UNL     1       1.104  10.001  19.359  0.00  0.00    +0.000 N 
ATOM      2  C   UNL     1       0.831   9.664  20.748  0.00  0.00    +0.000 C 
ATOM      3  C   UNL     1       1.762   9.152  18.466  0.00  0.00    +0.000 C 
ATOM      4  O   UNL     1       2.057   9.522  17.333  0.00  0.00    +0.000 OA
ATOM      5  N   UNL     1       1.994   7.879  18.955  0.00  0.00    +0.000 N 
ATOM      6  H   UNL     1       1.439   7.600  19.746  0.00  0.00    +0.000 HD
ENDROOT
BRANCH   5   7
ATOM      7  C   UNL     1       2.672   6.822  18.311  0.00  0.00    +0.000 A 
ATOM      8  C   UNL     1       2.209   5.496  18.315  0.00  0.00    +0.000 A 
ATOM      9  C   UNL     1       2.937   4.478  17.686  0.00  0.00    +0.000 A 
ATOM     10  C   UNL     1       4.120   4.804  17.051  0.00  0.00    +0.000 A 
ATOM     11  C   UNL     1       4.580   6.124  17.025  0.00  0.00    +0.000 A 
ATOM     12  C   UNL     1       3.865   7.137  17.642  0.00  0.00    +0.000 A 
ATOM     13  C   UNL     1       5.910   6.209  16.344  0.00  0.00    +0.000 C 
ATOM     14  C   UNL     1       5.943   4.879  15.579  0.00  0.00    +0.000 C 
ATOM     15  C   UNL     1       5.096   3.885  16.386  0.00  0.00    +0.000 C 
ENDBRANCH   5   7
BRANCH   1  16
ATOM     16  C   UNL     1       0.564  11.257  18.841  0.00  0.00    +0.000 C 
BRANCH  16  19
ATOM     17  N   UNL     1      -3.086  11.408  18.527  0.00  0.00    +0.000 N 
ATOM     18  C   UNL     1      -1.930  11.958  19.005  0.00  0.00    +0.000 A 
ATOM     19  C   UNL     1      -0.893  11.179  18.524  0.00  0.00    +0.000 A 
ATOM     20  C   UNL     1      -1.549  10.197  17.743  0.00  0.00    +0.000 A 
ATOM     21  N   UNL     1      -2.879  10.336  17.744  0.00  0.00    +0.000 NA
BRANCH  17  23
ATOM     22  C   UNL     1      -5.491  11.133  17.964  0.00  0.00    +0.000 C 
ATOM     23  C   UNL     1      -4.441  11.876  18.771  0.00  0.00    +0.000 C 
ENDBRANCH  17  23
ENDBRANCH  16  19
ENDBRANCH   1  16
TORSDOF 4
ENDMDL
MODEL 7
REMARK VINA RESULT:      -7.2      6.122      7.444
REMARK  Name = 
REMARK  6 active torsions:
REMARK  status: ('A' for Active; 'I' for Inactive)
REMARK    1  A    between atoms: C_1  and  C_2
REMARK    2  A    between atoms: C_2  and  N_3
REMARK    3  A    between atoms: C_5  and  C_6
REMARK    4  A    between atoms: C_6  and  N_7
REMARK    5  A    between atoms: N_7  and  C_8
REMARK    6  A    between atoms: N_11  and  C_12
REMARK                            x       y       z     vdW  Elec       q    Type
REMARK                         _______ _______ _______ _____ _____    ______ ____
ROOT
ATOM      1  N   UNL     1       7.740   7.168  18.098  0.00  0.00    +0.000 N 
ATOM      2  C   UNL     1       8.180   6.266  19.152  0.00  0.00    +0.000 C 
ATOM      3  C   UNL     1       8.051   8.529  18.056  0.00  0.00    +0.000 C 
ATOM      4  O   UNL     1       7.573   9.267  17.200  0.00  0.00    +0.000 OA
ATOM      5  N   UNL     1       8.962   8.934  19.015  0.00  0.00    +0.000 N 
ATOM      6  H   UNL     1       9.514   8.208  19.438  0.00  0.00    +0.000 HD
ENDROOT
BRANCH   5   7
ATOM      7  C   UNL     1       9.434  10.244  19.252  0.00  0.00    +0.000 A 
ATOM      8  C   UNL     1       9.383  10.864  20.511  0.00  0.00    +0.000 A 
ATOM      9  C   UNL     1       9.837  12.176  20.686  0.00  0.00    +0.000 A 
ATOM     10  C   UNL     1      10.348  12.853  19.594  0.00  0.00    +0.000 A 
ATOM     11  C   UNL     1      10.421  12.238  18.340  0.00  0.00    +0.000 A 
ATOM     12  C   UNL     1       9.977  10.939  18.160  0.00  0.00    +0.000 A 
ATOM     13  C   UNL     1      10.939  13.193  17.311  0.00  0.00    +0.000 C 
ATOM     14  C   UNL     1      11.589  14.266  18.195  0.00  0.00    +0.000 C 
ATOM     15  C   UNL     1      10.815  14.272  19.521  0.00  0.00    +0.000 C 
ENDBRANCH   5   7
BRANCH   1  16
ATOM     16  C   UNL     1       7.019   6.592  16.963  0.00  0.00    +0.000 C 
BRANCH  16  19
ATOM     17  N   UNL     1       3.956   4.725  17.719  0.00  0.00    +0.000 N 
ATOM     18  C   UNL     1       5.309   4.722  17.521  0.00  0.00    +0.000 A 
ATOM     19  C   UNL     1       5.684   6.042  17.338  0.00  0.00    +0.000 A 
ATOM     20  C   UNL     1       4.469   6.755  17.473  0.00  0.00    +0.000 A 
ATOM     21  N   UNL     1       3.421   5.957  17.705  0.00  0.00    +0.000 NA
BRANCH  17  23
ATOM     22  C   UNL     1       1.626   3.866  17.791  0.00  0.00    +0.000 C 
ATOM     23  C   UNL     1       3.106   3.568  17.948  0.00  0.00    +0.000 C 
ENDBRANCH  17  23
ENDBRANCH  16  19
ENDBRANCH   1  16
TORSDOF 4
ENDMDL
MODEL 8
REMARK VINA RESULT:      -7.1      1.537      2.057
REMARK  Name = 
REMARK  6 active torsions:
REMARK  status: ('A' for Active; 'I' for Inactive)
REMARK    1  A    between atoms: C_1  and  C_2
REMARK    2  A    between atoms: C_2  and  N_3
REMARK    3  A    between atoms: C_5  and  C_6
REMARK    4  A    between atoms: C_6  and  N_7
REMARK    5  A    between atoms: N_7  and  C_8
REMARK    6  A    between atoms: N_11  and  C_12
REMARK                            x       y       z     vdW  Elec       q    Type
REMARK                         _______ _______ _______ _____ _____    ______ ____
ROOT
ATOM      1  N   UNL     1       3.719   4.347  18.729  0.00  0.00    +0.000 N 
ATOM      2  C   UNL     1       2.606   3.455  18.442  0.00  0.00    +0.000 C 
ATOM      3  C   UNL     1       3.572   5.690  19.083  0.00  0.00    +0.000 C 
ATOM      4  O   UNL     1       4.545   6.426  19.217  0.00  0.00    +0.000 OA
ATOM      5  N   UNL     1       2.264   6.078  19.310  0.00  0.00    +0.000 N 
ATOM      6  H   UNL     1       1.604   5.339  19.482  0.00  0.00    +0.000 HD
ENDROOT
BRANCH   5   7
ATOM      7  C   UNL     1       1.795   7.370  19.635  0.00  0.00    +0.000 A 
ATOM      8  C   UNL     1       1.774   8.434  18.718  0.00  0.00    +0.000 A 
ATOM      9  C   UNL     1       1.327   9.704  19.100  0.00  0.00    +0.000 A 
ATOM     10  C   UNL     1       0.897   9.893  20.400  0.00  0.00    +0.000 A 
ATOM     11  C   UNL     1       0.897   8.836  21.315  0.00  0.00    +0.000 A 
ATOM     12  C   UNL     1       1.334   7.575  20.944  0.00  0.00    +0.000 A 
ATOM     13  C   UNL     1       0.458   9.305  22.667  0.00  0.00    +0.000 C 
ATOM     14  C   UNL     1      -0.233  10.630  22.317  0.00  0.00    +0.000 C 
ATOM     15  C   UNL     1       0.454  11.165  21.052  0.00  0.00    +0.000 C 
ENDBRANCH   5   7
BRANCH   1  16
ATOM     16  C   UNL     1       5.065   3.775  18.750  0.00  0.00    +0.000 C 
BRANCH  16  19
ATOM     17  N   UNL     1       6.688   4.528  15.550  0.00  0.00    +0.000 N 
ATOM     18  C   UNL     1       5.551   4.208  16.238  0.00  0.00    +0.000 A 
ATOM     19  C   UNL     1       5.893   4.188  17.579  0.00  0.00    +0.000 A 
ATOM     20  C   UNL     1       7.264   4.539  17.577  0.00  0.00    +0.000 A 
ATOM     21  N   UNL     1       7.746   4.746  16.348  0.00  0.00    +0.000 NA
BRANCH  17  23
ATOM     22  C   UNL     1       5.962   3.691  13.326  0.00  0.00    +0.000 C 
ATOM     23  C   UNL     1       6.827   4.662  14.109  0.00  0.00    +0.000 C 
ENDBRANCH  17  23
ENDBRANCH  16  19
ENDBRANCH   1  16
TORSDOF 4
ENDMDL
MODEL 9
REMARK VINA RESULT:      -7.1      5.836      6.995
REMARK  Name = 
REMARK  6 active torsions:
REMARK  status: ('A' for Active; 'I' for Inactive)
REMARK    1  A    between atoms: C_1  and  C_2
REMARK    2  A    between atoms: C_2  and  N_3
REMARK    3  A    between atoms: C_5  and  C_6
REMARK    4  A    between atoms: C_6  and  N_7
REMARK    5  A    between atoms: N_7  and  C_8
REMARK    6  A    between atoms: N_11  and  C_12
REMARK                            x       y       z     vdW  Elec       q    Type
REMARK                         _______ _______ _______ _____ _____    ______ ____
ROOT
ATOM      1  N   UNL     1       7.695   6.742  18.098  0.00  0.00    +0.000 N 
ATOM      2  C   UNL     1       8.046   5.947  19.265  0.00  0.00    +0.000 C 
ATOM      3  C   UNL     1       7.986   8.102  17.965  0.00  0.00    +0.000 C 
ATOM      4  O   UNL     1       7.581   8.751  17.004  0.00  0.00    +0.000 OA
ATOM      5  N   UNL     1       8.791   8.613  18.966  0.00  0.00    +0.000 N 
ATOM      6  H   UNL     1       9.311   7.940  19.504  0.00  0.00    +0.000 HD
ENDROOT
BRANCH   5   7
ATOM      7  C   UNL     1       9.215   9.950  19.130  0.00  0.00    +0.000 A 
ATOM      8  C   UNL     1       9.744  10.722  18.083  0.00  0.00    +0.000 A 
ATOM      9  C   UNL     1      10.178  12.035  18.306  0.00  0.00    +0.000 A 
ATOM     10  C   UNL     1      10.068  12.563  19.578  0.00  0.00    +0.000 A 
ATOM     11  C   UNL     1       9.526  11.809  20.623  0.00  0.00    +0.000 A 
ATOM     12  C   UNL     1       9.091  10.511  20.410  0.00  0.00    +0.000 A 
ATOM     13  C   UNL     1       9.581  12.569  21.911  0.00  0.00    +0.000 C 
ATOM     14  C   UNL     1       9.783  14.004  21.405  0.00  0.00    +0.000 C 
ATOM     15  C   UNL     1      10.531  13.899  20.068  0.00  0.00    +0.000 C 
ENDBRANCH   5   7
BRANCH   1  16
ATOM     16  C   UNL     1       7.100   6.052  16.954  0.00  0.00    +0.000 C 
BRANCH  16  19
ATOM     17  N   UNL     1       3.633   5.348  17.917  0.00  0.00    +0.000 N 
ATOM     18  C   UNL     1       4.628   6.263  17.717  0.00  0.00    +0.000 A 
ATOM     19  C   UNL     1       5.716   5.563  17.225  0.00  0.00    +0.000 A 
ATOM     20  C   UNL     1       5.245   4.231  17.146  0.00  0.00    +0.000 A 
ATOM     21  N   UNL     1       3.982   4.100  17.565  0.00  0.00    +0.000 NA
BRANCH  17  23
ATOM     22  C   UNL     1       1.854   4.612  19.489  0.00  0.00    +0.000 C 
ATOM     23  C   UNL     1       2.299   5.609  18.433  0.00  0.00    +0.000 C 
ENDBRANCH  17  23
ENDBRANCH  16  19
ENDBRANCH   1  16
TORSDOF 4
ENDMDL
