MODEL 1
REMARK VINA RESULT:      -8.3      0.000      0.000
REMARK  Name = 
REMARK  6 active torsions:
REMARK  status: ('A' for Active; 'I' for Inactive)
REMARK    1  A    between atoms: C_1  and  O_2
REMARK    2  A    between atoms: O_2  and  C_3
REMARK    3  A    between atoms: C_8  and  O_9
REMARK    4  A    between atoms: O_9  and  C_10
REMARK    5  A    between atoms: C_11  and  C_12
REMARK    6  A    between atoms: C_15  and  C_16
REMARK                            x       y       z     vdW  Elec       q    Type
REMARK                         _______ _______ _______ _____ _____    ______ ____
ROOT
ATOM      1  C   UNL     1       6.613   6.240  16.956  0.00  0.00    +0.000 A 
ATOM      2  C   UNL     1       6.012   6.367  18.217  0.00  0.00    +0.000 A 
ATOM      3  C   UNL     1       4.801   5.741  18.509  0.00  0.00    +0.000 A 
ATOM      4  C   UNL     1       4.191   4.952  17.522  0.00  0.00    +0.000 A 
ATOM      5  C   UNL     1       4.734   4.893  16.243  0.00  0.00    +0.000 A 
ATOM      6  C   UNL     1       5.944   5.534  15.943  0.00  0.00    +0.000 A 
ATOM      7  C   UNL     1       2.939   4.240  17.861  0.00  0.00    +0.000 C 
ATOM      8  C   UNL     1       2.352   3.131  17.036  0.00  0.00    +0.000 C 
ATOM      9  N   UNL     1       2.289   4.583  18.955  0.00  0.00    +0.000 N 
ATOM     10  O   UNL     1       1.195   4.006  19.285  0.00  0.00    +0.000 OA
ATOM     11  C   UNL     1       2.827   5.665  19.858  0.00  0.00    +0.000 C 
ATOM     12  N   UNL     1       4.292   5.809  19.819  0.00  0.00    +0.000 N 
ATOM     13  H   UNL     1       4.610   6.635  20.318  0.00  0.00    +0.000 HD
ENDROOT
BRANCH  11  14
ATOM     14  C   UNL     1       2.191   7.033  19.630  0.00  0.00    +0.000 A 
ATOM     15  C   UNL     1       2.206   7.690  18.372  0.00  0.00    +0.000 A 
ATOM     16  C   UNL     1       1.580   8.928  18.193  0.00  0.00    +0.000 A 
ATOM     17  C   UNL     1       0.935   9.474  19.278  0.00  0.00    +0.000 A 
ATOM     18  C   UNL     1       0.959   8.873  20.514  0.00  0.00    +0.000 A 
ATOM     19  C   UNL     1       1.596   7.675  20.732  0.00  0.00    +0.000 A 
ATOM     20  O   UNL     1       0.241   9.566  21.440  0.00  0.00    +0.000 OA
ATOM     21  C   UNL     1      -0.455  10.478  20.567  0.00  0.00    +0.000 C 
ATOM     22  O   UNL     1       0.181  10.608  19.278  0.00  0.00    +0.000 OA
ENDBRANCH  11  14
BRANCH   1  24
ATOM     23  C   UNL     1       8.132   7.987  17.449  0.00  0.00    +0.000 C 
ATOM     24  O   UNL     1       7.833   6.808  16.702  0.00  0.00    +0.000 OA
ENDBRANCH   1  24
BRANCH   6  25
ATOM     25  O   UNL     1       6.321   5.324  14.646  0.00  0.00    +0.000 OA
ATOM     26  C   UNL     1       6.332   4.006  14.125  0.00  0.00    +0.000 C 
ENDBRANCH   6  25
TORSDOF 3
ENDMDL
MODEL 2
REMARK VINA RESULT:      -8.2      0.717      1.465
REMARK  Name = 
REMARK  6 active torsions:
REMARK  status: ('A' for Active; 'I' for Inactive)
REMARK    1  A    between atoms: C_1  and  O_2
REMARK    2  A    between atoms: O_2  and  C_3
REMARK    3  A    between atoms: C_8  and  O_9
REMARK    4  A    between atoms: O_9  and  C_10
REMARK    5  A    between atoms: C_11  and  C_12
REMARK    6  A    between atoms: C_15  and  C_16
REMARK                            x       y       z     vdW  Elec       q    Type
REMARK                         _______ _______ _______ _____ _____    ______ ____
ROOT
ATOM      1  C   UNL     1       6.615   6.221  17.040  0.00  0.00    +0.000 A 
ATOM      2  C   UNL     1       6.038   6.242  18.318  0.00  0.00    +0.000 A 
ATOM      3  C   UNL     1       4.842   5.578  18.585  0.00  0.00    +0.000 A 
ATOM      4  C   UNL     1       4.222   4.858  17.552  0.00  0.00    +0.000 A 
ATOM      5  C   UNL     1       4.740   4.905  16.262  0.00  0.00    +0.000 A 
ATOM      6  C   UNL     1       5.935   5.585  15.989  0.00  0.00    +0.000 A 
ATOM      7  C   UNL     1       2.987   4.105  17.859  0.00  0.00    +0.000 C 
ATOM      8  C   UNL     1       2.397   3.053  16.962  0.00  0.00    +0.000 C 
ATOM      9  N   UNL     1       2.354   4.354  18.988  0.00  0.00    +0.000 N 
ATOM     10  O   UNL     1       1.275   3.737  19.295  0.00  0.00    +0.000 OA
ATOM     11  C   UNL     1       2.897   5.371  19.961  0.00  0.00    +0.000 C 
ATOM     12  N   UNL     1       4.359   5.539  19.906  0.00  0.00    +0.000 N 
ATOM     13  H   UNL     1       4.676   6.329  20.460  0.00  0.00    +0.000 HD
ENDROOT
BRANCH  11  14
ATOM     14  C   UNL     1       2.238   6.743  19.852  0.00  0.00    +0.000 A 
ATOM     15  C   UNL     1       1.470   7.314  20.900  0.00  0.00    +0.000 A 
ATOM     16  C   UNL     1       0.911   8.590  20.777  0.00  0.00    +0.000 A 
ATOM     17  C   UNL     1       1.149   9.276  19.609  0.00  0.00    +0.000 A 
ATOM     18  C   UNL     1       1.846   8.712  18.566  0.00  0.00    +0.000 A 
ATOM     19  C   UNL     1       2.377   7.447  18.642  0.00  0.00    +0.000 A 
ATOM     20  O   UNL     1       1.987   9.567  17.517  0.00  0.00    +0.000 OA
ATOM     21  C   UNL     1       1.565  10.792  18.148  0.00  0.00    +0.000 C 
ATOM     22  O   UNL     1       0.787  10.561  19.342  0.00  0.00    +0.000 OA
ENDBRANCH  11  14
BRANCH   1  24
ATOM     23  C   UNL     1       8.050   8.043  17.515  0.00  0.00    +0.000 C 
ATOM     24  O   UNL     1       7.822   6.824  16.807  0.00  0.00    +0.000 OA
ENDBRANCH   1  24
BRANCH   6  25
ATOM     25  O   UNL     1       6.288   5.480  14.672  0.00  0.00    +0.000 OA
ATOM     26  C   UNL     1       6.253   4.214  14.037  0.00  0.00    +0.000 C 
ENDBRANCH   6  25
TORSDOF 3
ENDMDL
MODEL 3
REMARK VINA RESULT:      -7.9      1.027      1.057
REMARK  Name = 
REMARK  6 active torsions:
REMARK  status: ('A' for Active; 'I' for Inactive)
REMARK    1  A    between atoms: C_1  and  O_2
REMARK    2  A    between atoms: O_2  and  C_3
REMARK    3  A    between atoms: C_8  and  O_9
REMARK    4  A    between atoms: O_9  and  C_10
REMARK    5  A    between atoms: C_11  and  C_12
REMARK    6  A    between atoms: C_15  and  C_16
REMARK                            x       y       z     vdW  Elec       q    Type
REMARK                         _______ _______ _______ _____ _____    ______ ____
ROOT
ATOM      1  C   UNL     1       6.269   4.970  17.481  0.00  0.00    +0.000 A 
ATOM      2  C   UNL     1       5.697   5.472  18.659  0.00  0.00    +0.000 A 
ATOM      3  C   UNL     1       4.407   5.113  19.049  0.00  0.00    +0.000 A 
ATOM      4  C   UNL     1       3.684   4.214  18.249  0.00  0.00    +0.000 A 
ATOM      5  C   UNL     1       4.209   3.783  17.036  0.00  0.00    +0.000 A 
ATOM      6  C   UNL     1       5.500   4.155  16.636  0.00  0.00    +0.000 A 
ATOM      7  C   UNL     1       2.341   3.789  18.702  0.00  0.00    +0.000 C 
ATOM      8  C   UNL     1       1.593   2.617  18.134  0.00  0.00    +0.000 C 
ATOM      9  N   UNL     1       1.752   4.467  19.667  0.00  0.00    +0.000 N 
ATOM     10  O   UNL     1       0.585   4.147  20.086  0.00  0.00    +0.000 OA
ATOM     11  C   UNL     1       2.448   5.638  20.315  0.00  0.00    +0.000 C 
ATOM     12  N   UNL     1       3.917   5.555  20.291  0.00  0.00    +0.000 N 
ATOM     13  H   UNL     1       4.356   6.419  20.597  0.00  0.00    +0.000 HD
ENDROOT
BRANCH  11  14
ATOM     14  C   UNL     1       2.021   6.994  19.760  0.00  0.00    +0.000 A 
ATOM     15  C   UNL     1       2.212   7.366  18.403  0.00  0.00    +0.000 A 
ATOM     16  C   UNL     1       1.775   8.604  17.922  0.00  0.00    +0.000 A 
ATOM     17  C   UNL     1       1.137   9.439  18.810  0.00  0.00    +0.000 A 
ATOM     18  C   UNL     1       0.993   9.112  20.138  0.00  0.00    +0.000 A 
ATOM     19  C   UNL     1       1.444   7.919  20.649  0.00  0.00    +0.000 A 
ATOM     20  O   UNL     1       0.314  10.064  20.834  0.00  0.00    +0.000 OA
ATOM     21  C   UNL     1      -0.189  10.850  19.736  0.00  0.00    +0.000 C 
ATOM     22  O   UNL     1       0.547  10.629  18.513  0.00  0.00    +0.000 OA
ENDBRANCH  11  14
BRANCH   1  24
ATOM     23  C   UNL     1       7.885   6.671  17.162  0.00  0.00    +0.000 C 
ATOM     24  O   UNL     1       7.559   5.281  17.142  0.00  0.00    +0.000 OA
ENDBRANCH   1  24
BRANCH   6  25
ATOM     25  O   UNL     1       5.838   3.598  15.433  0.00  0.00    +0.000 OA
ATOM     26  C   UNL     1       5.691   4.356  14.245  0.00  0.00    +0.000 C 
ENDBRANCH   6  25
TORSDOF 3
ENDMDL
MODEL 4
REMARK VINA RESULT:      -7.5      1.784      6.444
REMARK  Name = 
REMARK  6 active torsions:
REMARK  status: ('A' for Active; 'I' for Inactive)
REMARK    1  A    between atoms: C_1  and  O_2
REMARK    2  A    between atoms: O_2  and  C_3
REMARK    3  A    between atoms: C_8  and  O_9
REMARK    4  A    between atoms: O_9  and  C_10
REMARK    5  A    between atoms: C_11  and  C_12
REMARK    6  A    between atoms: C_15  and  C_16
REMARK                            x       y       z     vdW  Elec       q    Type
REMARK                         _______ _______ _______ _____ _____    ______ ____
ROOT
ATOM      1  C   UNL     1       1.597   8.386  19.408  0.00  0.00    +0.000 A 
ATOM      2  C   UNL     1       1.846   7.500  18.350  0.00  0.00    +0.000 A 
ATOM      3  C   UNL     1       1.935   6.124  18.562  0.00  0.00    +0.000 A 
ATOM      4  C   UNL     1       1.748   5.626  19.861  0.00  0.00    +0.000 A 
ATOM      5  C   UNL     1       1.589   6.504  20.928  0.00  0.00    +0.000 A 
ATOM      6  C   UNL     1       1.515   7.888  20.718  0.00  0.00    +0.000 A 
ATOM      7  C   UNL     1       1.781   4.162  20.067  0.00  0.00    +0.000 C 
ATOM      8  C   UNL     1       1.293   3.475  21.310  0.00  0.00    +0.000 C 
ATOM      9  N   UNL     1       2.260   3.395  19.107  0.00  0.00    +0.000 N 
ATOM     10  O   UNL     1       2.322   2.124  19.241  0.00  0.00    +0.000 OA
ATOM     11  C   UNL     1       2.741   4.002  17.812  0.00  0.00    +0.000 C 
ATOM     12  N   UNL     1       2.079   5.267  17.456  0.00  0.00    +0.000 N 
ATOM     13  H   UNL     1       2.523   5.724  16.664  0.00  0.00    +0.000 HD
ENDROOT
BRANCH  11  14
ATOM     14  C   UNL     1       4.252   4.200  17.747  0.00  0.00    +0.000 A 
ATOM     15  C   UNL     1       5.004   4.006  16.558  0.00  0.00    +0.000 A 
ATOM     16  C   UNL     1       6.384   4.232  16.527  0.00  0.00    +0.000 A 
ATOM     17  C   UNL     1       6.980   4.666  17.689  0.00  0.00    +0.000 A 
ATOM     18  C   UNL     1       6.272   4.805  18.859  0.00  0.00    +0.000 A 
ATOM     19  C   UNL     1       4.923   4.556  18.931  0.00  0.00    +0.000 A 
ATOM     20  O   UNL     1       7.046   5.266  19.879  0.00  0.00    +0.000 OA
ATOM     21  C   UNL     1       8.212   5.668  19.132  0.00  0.00    +0.000 C 
ATOM     22  O   UNL     1       8.281   5.042  17.833  0.00  0.00    +0.000 OA
ENDBRANCH  11  14
BRANCH   1  24
ATOM     23  C   UNL     1       0.201  10.123  18.607  0.00  0.00    +0.000 C 
ATOM     24  O   UNL     1       1.450   9.728  19.176  0.00  0.00    +0.000 OA
ENDBRANCH   1  24
BRANCH   6  25
ATOM     25  O   UNL     1       1.322   8.568  21.888  0.00  0.00    +0.000 OA
ATOM     26  C   UNL     1       0.020   9.008  22.236  0.00  0.00    +0.000 C 
ENDBRANCH   6  25
TORSDOF 3
ENDMDL
MODEL 5
REMARK VINA RESULT:      -7.5      1.318      1.917
REMARK  Name = 
REMARK  6 active torsions:
REMARK  status: ('A' for Active; 'I' for Inactive)
REMARK    1  A    between atoms: C_1  and  O_2
REMARK    2  A    between atoms: O_2  and  C_3
REMARK    3  A    between atoms: C_8  and  O_9
REMARK    4  A    between atoms: O_9  and  C_10
REMARK    5  A    between atoms: C_11  and  C_12
REMARK    6  A    between atoms: C_15  and  C_16
REMARK                            x       y       z     vdW  Elec       q    Type
REMARK                         _______ _______ _______ _____ _____    ______ ____
ROOT
ATOM      1  C   UNL     1       6.096   4.939  17.710  0.00  0.00    +0.000 A 
ATOM      2  C   UNL     1       5.535   5.314  18.940  0.00  0.00    +0.000 A 
ATOM      3  C   UNL     1       4.246   4.922  19.298  0.00  0.00    +0.000 A 
ATOM      4  C   UNL     1       3.512   4.118  18.413  0.00  0.00    +0.000 A 
ATOM      5  C   UNL     1       4.026   3.817  17.156  0.00  0.00    +0.000 A 
ATOM      6  C   UNL     1       5.317   4.223  16.789  0.00  0.00    +0.000 A 
ATOM      7  C   UNL     1       2.170   3.655  18.828  0.00  0.00    +0.000 C 
ATOM      8  C   UNL     1       1.411   2.554  18.144  0.00  0.00    +0.000 C 
ATOM      9  N   UNL     1       1.591   4.228  19.864  0.00  0.00    +0.000 N 
ATOM     10  O   UNL     1       0.426   3.871  20.255  0.00  0.00    +0.000 OA
ATOM     11  C   UNL     1       2.299   5.320  20.628  0.00  0.00    +0.000 C 
ATOM     12  N   UNL     1       3.768   5.232  20.585  0.00  0.00    +0.000 N 
ATOM     13  H   UNL     1       4.214   6.056  20.978  0.00  0.00    +0.000 HD
ENDROOT
BRANCH  11  14
ATOM     14  C   UNL     1       1.876   6.729  20.225  0.00  0.00    +0.000 A 
ATOM     15  C   UNL     1       1.126   7.582  21.077  0.00  0.00    +0.000 A 
ATOM     16  C   UNL     1       0.788   8.882  20.687  0.00  0.00    +0.000 A 
ATOM     17  C   UNL     1       1.224   9.306  19.454  0.00  0.00    +0.000 A 
ATOM     18  C   UNL     1       1.905   8.472  18.598  0.00  0.00    +0.000 A 
ATOM     19  C   UNL     1       2.221   7.179  18.937  0.00  0.00    +0.000 A 
ATOM     20  O   UNL     1       2.264   9.097  17.444  0.00  0.00    +0.000 OA
ATOM     21  C   UNL     1       1.991  10.462  17.816  0.00  0.00    +0.000 C 
ATOM     22  O   UNL     1       1.093  10.561  18.942  0.00  0.00    +0.000 OA
ENDBRANCH  11  14
BRANCH   1  24
ATOM     23  C   UNL     1       7.792   6.590  17.787  0.00  0.00    +0.000 C 
ATOM     24  O   UNL     1       7.386   5.278  17.397  0.00  0.00    +0.000 OA
ENDBRANCH   1  24
BRANCH   6  25
ATOM     25  O   UNL     1       5.643   3.796  15.531  0.00  0.00    +0.000 OA
ATOM     26  C   UNL     1       5.793   4.744  14.488  0.00  0.00    +0.000 C 
ENDBRANCH   6  25
TORSDOF 3
ENDMDL
MODEL 6
REMARK VINA RESULT:      -7.3      3.239      5.933
REMARK  Name = 
REMARK  6 active torsions:
REMARK  status: ('A' for Active; 'I' for Inactive)
REMARK    1  A    between atoms: C_1  and  O_2
REMARK    2  A    between atoms: O_2  and  C_3
REMARK    3  A    between atoms: C_8  and  O_9
REMARK    4  A    between atoms: O_9  and  C_10
REMARK    5  A    between atoms: C_11  and  C_12
REMARK    6  A    between atoms: C_15  and  C_16
REMARK                            x       y       z     vdW  Elec       q    Type
REMARK                         _______ _______ _______ _____ _____    ______ ____
ROOT
ATOM      1  C   UNL     1       2.405   6.993  18.738  0.00  0.00    +0.000 A 
ATOM      2  C   UNL     1       2.171   8.331  18.388  0.00  0.00    +0.000 A 
ATOM      3  C   UNL     1       1.556   9.216  19.273  0.00  0.00    +0.000 A 
ATOM      4  C   UNL     1       1.188   8.753  20.545  0.00  0.00    +0.000 A 
ATOM      5  C   UNL     1       1.334   7.408  20.868  0.00  0.00    +0.000 A 
ATOM      6  C   UNL     1       1.939   6.514  19.973  0.00  0.00    +0.000 A 
ATOM      7  C   UNL     1       0.593   9.714  21.501  0.00  0.00    +0.000 C 
ATOM      8  C   UNL     1       0.445   9.455  22.973  0.00  0.00    +0.000 C 
ATOM      9  N   UNL     1       0.168  10.878  21.051  0.00  0.00    +0.000 N 
ATOM     10  O   UNL     1      -0.364  11.739  21.834  0.00  0.00    +0.000 OA
ATOM     11  C   UNL     1       0.311  11.232  19.591  0.00  0.00    +0.000 C 
ATOM     12  N   UNL     1       1.441  10.572  18.917  0.00  0.00    +0.000 N 
ATOM     13  H   UNL     1       1.424  10.711  17.911  0.00  0.00    +0.000 HD
ENDROOT
BRANCH  11  14
ATOM     14  C   UNL     1      -0.955  10.999  18.773  0.00  0.00    +0.000 A 
ATOM     15  C   UNL     1      -1.013  10.088  17.686  0.00  0.00    +0.000 A 
ATOM     16  C   UNL     1      -2.203   9.874  16.981  0.00  0.00    +0.000 A 
ATOM     17  C   UNL     1      -3.317  10.567  17.394  0.00  0.00    +0.000 A 
ATOM     18  C   UNL     1      -3.260  11.491  18.411  0.00  0.00    +0.000 A 
ATOM     19  C   UNL     1      -2.099  11.751  19.098  0.00  0.00    +0.000 A 
ATOM     20  O   UNL     1      -4.476  12.044  18.675  0.00  0.00    +0.000 OA
ATOM     21  C   UNL     1      -5.314  11.147  17.919  0.00  0.00    +0.000 C 
ATOM     22  O   UNL     1      -4.581  10.417  16.912  0.00  0.00    +0.000 OA
ENDBRANCH  11  14
BRANCH   1  24
ATOM     23  C   UNL     1       4.360   6.586  17.467  0.00  0.00    +0.000 C 
ATOM     24  O   UNL     1       3.066   6.151  17.884  0.00  0.00    +0.000 OA
ENDBRANCH   1  24
BRANCH   6  25
ATOM     25  O   UNL     1       2.018   5.253  20.494  0.00  0.00    +0.000 OA
ATOM     26  C   UNL     1       1.031   4.293  20.155  0.00  0.00    +0.000 C 
ENDBRANCH   6  25
TORSDOF 3
ENDMDL
MODEL 7
REMARK VINA RESULT:      -7.0      3.281      6.169
REMARK  Name = 
REMARK  6 active torsions:
REMARK  status: ('A' for Active; 'I' for Inactive)
REMARK    1  A    between atoms: C_1  and  O_2
REMARK    2  A    between atoms: O_2  and  C_3
REMARK    3  A    between atoms: C_8  and  O_9
REMARK    4  A    between atoms: O_9  and  C_10
REMARK    5  A    between atoms: C_11  and  C_12
REMARK    6  A    between atoms: C_15  and  C_16
REMARK                            x       y       z     vdW  Elec       q    Type
REMARK                         _______ _______ _______ _____ _____    ______ ____
ROOT
ATOM      1  C   UNL     1       2.261   7.206  18.902  0.00  0.00    +0.000 A 
ATOM      2  C   UNL     1       2.033   8.554  18.588  0.00  0.00    +0.000 A 
ATOM      3  C   UNL     1       1.408   9.414  19.491  0.00  0.00    +0.000 A 
ATOM      4  C   UNL     1       1.022   8.914  20.744  0.00  0.00    +0.000 A 
ATOM      5  C   UNL     1       1.163   7.560  21.029  0.00  0.00    +0.000 A 
ATOM      6  C   UNL     1       1.778   6.692  20.116  0.00  0.00    +0.000 A 
ATOM      7  C   UNL     1       0.417   9.847  21.720  0.00  0.00    +0.000 C 
ATOM      8  C   UNL     1       0.249   9.545  23.181  0.00  0.00    +0.000 C 
ATOM      9  N   UNL     1      -0.001  11.025  21.298  0.00  0.00    +0.000 N 
ATOM     10  O   UNL     1      -0.542  11.863  22.100  0.00  0.00    +0.000 OA
ATOM     11  C   UNL     1       0.161  11.422  19.852  0.00  0.00    +0.000 C 
ATOM     12  N   UNL     1       1.299  10.780  19.174  0.00  0.00    +0.000 N 
ATOM     13  H   UNL     1       1.295  10.948  18.172  0.00  0.00    +0.000 HD
ENDROOT
BRANCH  11  14
ATOM     14  C   UNL     1      -1.095  11.214  19.011  0.00  0.00    +0.000 A 
ATOM     15  C   UNL     1      -2.346  11.801  19.338  0.00  0.00    +0.000 A 
ATOM     16  C   UNL     1      -3.468  11.617  18.522  0.00  0.00    +0.000 A 
ATOM     17  C   UNL     1      -3.307  10.862  17.384  0.00  0.00    +0.000 A 
ATOM     18  C   UNL     1      -2.115  10.246  17.085  0.00  0.00    +0.000 A 
ATOM     19  C   UNL     1      -1.005  10.376  17.885  0.00  0.00    +0.000 A 
ATOM     20  O   UNL     1      -2.164   9.569  15.906  0.00  0.00    +0.000 OA
ATOM     21  C   UNL     1      -3.406  10.085  15.387  0.00  0.00    +0.000 C 
ATOM     22  O   UNL     1      -4.241  10.659  16.415  0.00  0.00    +0.000 OA
ENDBRANCH  11  14
BRANCH   1  24
ATOM     23  C   UNL     1       4.133   6.928  17.479  0.00  0.00    +0.000 C 
ATOM     24  O   UNL     1       2.932   6.389  18.032  0.00  0.00    +0.000 OA
ENDBRANCH   1  24
BRANCH   6  25
ATOM     25  O   UNL     1       1.849   5.415  20.600  0.00  0.00    +0.000 OA
ATOM     26  C   UNL     1       1.013   4.411  20.052  0.00  0.00    +0.000 C 
ENDBRANCH   6  25
TORSDOF 3
ENDMDL
MODEL 8
REMARK VINA RESULT:      -6.8      1.610      6.736
REMARK  Name = 
REMARK  6 active torsions:
REMARK  status: ('A' for Active; 'I' for Inactive)
REMARK    1  A    between atoms: C_1  and  O_2
REMARK    2  A    between atoms: O_2  and  C_3
REMARK    3  A    between atoms: C_8  and  O_9
REMARK    4  A    between atoms: O_9  and  C_10
REMARK    5  A    between atoms: C_11  and  C_12
REMARK    6  A    between atoms: C_15  and  C_16
REMARK                            x       y       z     vdW  Elec       q    Type
REMARK                         _______ _______ _______ _____ _____    ______ ____
ROOT
ATOM      1  C   UNL     1       1.496   8.407  19.178  0.00  0.00    +0.000 A 
ATOM      2  C   UNL     1       1.591   7.421  18.184  0.00  0.00    +0.000 A 
ATOM      3  C   UNL     1       1.836   6.087  18.507  0.00  0.00    +0.000 A 
ATOM      4  C   UNL     1       1.965   5.730  19.858  0.00  0.00    +0.000 A 
ATOM      5  C   UNL     1       1.961   6.713  20.842  0.00  0.00    +0.000 A 
ATOM      6  C   UNL     1       1.730   8.057  20.517  0.00  0.00    +0.000 A 
ATOM      7  C   UNL     1       2.162   4.303  20.195  0.00  0.00    +0.000 C 
ATOM      8  C   UNL     1       2.002   3.735  21.576  0.00  0.00    +0.000 C 
ATOM      9  N   UNL     1       2.492   3.462  19.235  0.00  0.00    +0.000 N 
ATOM     10  O   UNL     1       2.684   2.220  19.477  0.00  0.00    +0.000 OA
ATOM     11  C   UNL     1       2.640   3.944  17.813  0.00  0.00    +0.000 C 
ATOM     12  N   UNL     1       1.816   5.119  17.485  0.00  0.00    +0.000 N 
ATOM     13  H   UNL     1       2.045   5.509  16.575  0.00  0.00    +0.000 HD
ENDROOT
BRANCH  11  14
ATOM     14  C   UNL     1       4.082   4.223  17.403  0.00  0.00    +0.000 A 
ATOM     15  C   UNL     1       5.169   4.154  18.313  0.00  0.00    +0.000 A 
ATOM     16  C   UNL     1       6.484   4.381  17.893  0.00  0.00    +0.000 A 
ATOM     17  C   UNL     1       6.683   4.657  16.560  0.00  0.00    +0.000 A 
ATOM     18  C   UNL     1       5.634   4.779  15.680  0.00  0.00    +0.000 A 
ATOM     19  C   UNL     1       4.329   4.598  16.069  0.00  0.00    +0.000 A 
ATOM     20  O   UNL     1       6.052   5.031  14.409  0.00  0.00    +0.000 OA
ATOM     21  C   UNL     1       7.458   4.755  14.562  0.00  0.00    +0.000 C 
ATOM     22  O   UNL     1       7.887   4.799  15.940  0.00  0.00    +0.000 OA
ENDBRANCH  11  14
BRANCH   1  24
ATOM     23  C   UNL     1      -0.199  10.009  18.772  0.00  0.00    +0.000 C 
ATOM     24  O   UNL     1       1.193   9.702  18.852  0.00  0.00    +0.000 OA
ENDBRANCH   1  24
BRANCH   6  25
ATOM     25  O   UNL     1       1.731   8.854  21.628  0.00  0.00    +0.000 OA
ATOM     26  C   UNL     1       0.526   9.053  22.348  0.00  0.00    +0.000 C 
ENDBRANCH   6  25
TORSDOF 3
ENDMDL
MODEL 9
REMARK VINA RESULT:      -6.7      1.346      1.697
REMARK  Name = 
REMARK  6 active torsions:
REMARK  status: ('A' for Active; 'I' for Inactive)
REMARK    1  A    between atoms: C_1  and  O_2
REMARK    2  A    between atoms: O_2  and  C_3
REMARK    3  A    between atoms: C_8  and  O_9
REMARK    4  A    between atoms: O_9  and  C_10
REMARK    5  A    between atoms: C_11  and  C_12
REMARK    6  A    between atoms: C_15  and  C_16
REMARK                            x       y       z     vdW  Elec       q    Type
REMARK                         _______ _______ _______ _____ _____    ______ ____
ROOT
ATOM      1  C   UNL     1       6.804   5.061  15.618  0.00  0.00    +0.000 A 
ATOM      2  C   UNL     1       6.536   5.506  16.921  0.00  0.00    +0.000 A 
ATOM      3  C   UNL     1       5.464   5.000  17.655  0.00  0.00    +0.000 A 
ATOM      4  C   UNL     1       4.657   4.008  17.077  0.00  0.00    +0.000 A 
ATOM      5  C   UNL     1       4.861   3.626  15.755  0.00  0.00    +0.000 A 
ATOM      6  C   UNL     1       5.930   4.146  15.011  0.00  0.00    +0.000 A 
ATOM      7  C   UNL     1       3.560   3.431  17.885  0.00  0.00    +0.000 C 
ATOM      8  C   UNL     1       2.828   2.169  17.531  0.00  0.00    +0.000 C 
ATOM      9  N   UNL     1       3.194   4.047  18.992  0.00  0.00    +0.000 N 
ATOM     10  O   UNL     1       2.243   3.595  19.720  0.00  0.00    +0.000 OA
ATOM     11  C   UNL     1       3.900   5.303  19.438  0.00  0.00    +0.000 C 
ATOM     12  N   UNL     1       5.301   5.398  18.994  0.00  0.00    +0.000 N 
ATOM     13  H   UNL     1       5.702   6.313  19.180  0.00  0.00    +0.000 HD
ENDROOT
BRANCH  11  14
ATOM     14  C   UNL     1       3.173   6.589  19.056  0.00  0.00    +0.000 A 
ATOM     15  C   UNL     1       3.298   7.194  17.778  0.00  0.00    +0.000 A 
ATOM     16  C   UNL     1       2.587   8.354  17.452  0.00  0.00    +0.000 A 
ATOM     17  C   UNL     1       1.750   8.874  18.412  0.00  0.00    +0.000 A 
ATOM     18  C   UNL     1       1.662   8.328  19.671  0.00  0.00    +0.000 A 
ATOM     19  C   UNL     1       2.374   7.210  20.034  0.00  0.00    +0.000 A 
ATOM     20  O   UNL     1       0.761   8.980  20.455  0.00  0.00    +0.000 OA
ATOM     21  C   UNL     1       0.107   9.782  19.451  0.00  0.00    +0.000 C 
ATOM     22  O   UNL     1       0.899   9.925  18.252  0.00  0.00    +0.000 OA
ENDBRANCH  11  14
BRANCH   1  24
ATOM     23  C   UNL     1       7.818   5.423  13.510  0.00  0.00    +0.000 C 
ATOM     24  O   UNL     1       7.897   5.520  14.932  0.00  0.00    +0.000 OA
ENDBRANCH   1  24
BRANCH   6  25
ATOM     25  O   UNL     1       5.974   3.616  13.751  0.00  0.00    +0.000 OA
ATOM     26  C   UNL     1       4.810   3.635  12.943  0.00  0.00    +0.000 C 
ENDBRANCH   6  25
TORSDOF 3
ENDMDL
