MODEL 1
REMARK VINA RESULT:      -9.0      0.000      0.000
REMARK  Name = 
REMARK  9 active torsions:
REMARK  status: ('A' for Active; 'I' for Inactive)
REMARK    1  A    between atoms: C_1  and  C_2
REMARK    2  A    between atoms: C_2  and  N_3
REMARK    3  A    between atoms: N_3  and  C_4
REMARK    4  A    between atoms: N_3  and  S_14
REMARK    5  A    between atoms: C_7  and  C_8
REMARK    6  A    between atoms: N_10  and  O_11
REMARK    7  A    between atoms: S_14  and  C_17
REMARK    8  A    between atoms: C_19  and  C_20
REMARK    9  A    between atoms: C_25  and  C_26
REMARK                            x       y       z     vdW  Elec       q    Type
REMARK                         _______ _______ _______ _____ _____    ______ ____
ROOT
ATOM      1  S   UNL     1       2.882   3.367  18.259  0.00  0.00    +0.000 S 
ATOM      2  O   UNL     1       3.242   2.046  18.735  0.00  0.00    +0.000 OA
ATOM      3  O   UNL     1       1.868   3.525  17.240  0.00  0.00    +0.000 OA
ENDROOT
BRANCH   1   4
ATOM      4  C   UNL     1       4.382   4.095  17.604  0.00  0.00    +0.000 A 
ATOM      5  C   UNL     1       5.350   4.602  18.480  0.00  0.00    +0.000 A 
ATOM      6  C   UNL     1       6.605   5.001  17.991  0.00  0.00    +0.000 A 
ATOM      7  C   UNL     1       6.865   4.894  16.611  0.00  0.00    +0.000 A 
ATOM      8  C   UNL     1       5.893   4.407  15.721  0.00  0.00    +0.000 A 
ATOM      9  C   UNL     1       4.654   3.984  16.234  0.00  0.00    +0.000 A 
BRANCH   6  10
ATOM     10  C   UNL     1       7.691   5.512  18.912  0.00  0.00    +0.000 C 
ATOM     11  F   UNL     1       7.290   5.632  20.207  0.00  0.00    +0.000 F 
ATOM     12  F   UNL     1       8.785   4.704  18.925  0.00  0.00    +0.000 F 
ATOM     13  F   UNL     1       8.138   6.744  18.543  0.00  0.00    +0.000 F 
ENDBRANCH   6  10
BRANCH   8  14
ATOM     14  C   UNL     1       6.163   4.343  14.234  0.00  0.00    +0.000 C 
ATOM     15  F   UNL     1       5.047   4.528  13.475  0.00  0.00    +0.000 F 
ATOM     16  F   UNL     1       7.061   5.274  13.818  0.00  0.00    +0.000 F 
ATOM     17  F   UNL     1       6.667   3.133  13.863  0.00  0.00    +0.000 F 
ENDBRANCH   8  14
ENDBRANCH   1   4
BRANCH   1  18
ATOM     18  N   UNL     1       2.479   4.331  19.606  0.00  0.00    +0.000 N 
BRANCH  18  19
ATOM     19  C   UNL     1       2.276   5.733  19.384  0.00  0.00    +0.000 A 
ATOM     20  C   UNL     1       1.832   6.517  20.448  0.00  0.00    +0.000 A 
ATOM     21  C   UNL     1       1.624   7.889  20.278  0.00  0.00    +0.000 A 
ATOM     22  C   UNL     1       1.850   8.496  19.036  0.00  0.00    +0.000 A 
ATOM     23  C   UNL     1       2.285   7.703  17.964  0.00  0.00    +0.000 A 
ATOM     24  C   UNL     1       2.497   6.326  18.139  0.00  0.00    +0.000 A 
BRANCH  22  25
ATOM     25  C   UNL     1       1.581   9.962  18.925  0.00  0.00    +0.000 C 
ATOM     26  O   UNL     1       1.074  10.585  19.857  0.00  0.00    +0.000 OA
ATOM     27  N   UNL     1       1.937  10.599  17.759  0.00  0.00    +0.000 N 
ATOM     28  H   UNL     1       2.581  10.235  17.069  0.00  0.00    +0.000 HD
BRANCH  27  29
ATOM     29  O   UNL     1       1.760  12.004  17.762  0.00  0.00    +0.000 OA
ATOM     30  H   UNL     1       1.594  12.190  18.713  0.00  0.00    +0.000 HD
ENDBRANCH  27  29
ENDBRANCH  22  25
ENDBRANCH  18  19
BRANCH  18  32
ATOM     31  C   UNL     1       1.722   3.073  21.593  0.00  0.00    +0.000 C 
ATOM     32  C   UNL     1       2.862   3.860  20.957  0.00  0.00    +0.000 C 
ENDBRANCH  18  32
ENDBRANCH   1  18
TORSDOF 8
ENDMDL
MODEL 2
REMARK VINA RESULT:      -9.0      0.843      1.162
REMARK  Name = 
REMARK  9 active torsions:
REMARK  status: ('A' for Active; 'I' for Inactive)
REMARK    1  A    between atoms: C_1  and  C_2
REMARK    2  A    between atoms: C_2  and  N_3
REMARK    3  A    between atoms: N_3  and  C_4
REMARK    4  A    between atoms: N_3  and  S_14
REMARK    5  A    between atoms: C_7  and  C_8
REMARK    6  A    between atoms: N_10  and  O_11
REMARK    7  A    between atoms: S_14  and  C_17
REMARK    8  A    between atoms: C_19  and  C_20
REMARK    9  A    between atoms: C_25  and  C_26
REMARK                            x       y       z     vdW  Elec       q    Type
REMARK                         _______ _______ _______ _____ _____    ______ ____
ROOT
ATOM      1  S   UNL     1       3.394   2.696  18.627  0.00  0.00    +0.000 S 
ATOM      2  O   UNL     1       4.063   1.655  19.380  0.00  0.00    +0.000 OA
ATOM      3  O   UNL     1       2.488   2.352  17.552  0.00  0.00    +0.000 OA
ENDROOT
BRANCH   1   4
ATOM      4  C   UNL     1       4.682   3.708  17.904  0.00  0.00    +0.000 A 
ATOM      5  C   UNL     1       5.613   4.348  18.733  0.00  0.00    +0.000 A 
ATOM      6  C   UNL     1       6.733   4.986  18.175  0.00  0.00    +0.000 A 
ATOM      7  C   UNL     1       6.897   4.979  16.776  0.00  0.00    +0.000 A 
ATOM      8  C   UNL     1       5.958   4.359  15.936  0.00  0.00    +0.000 A 
ATOM      9  C   UNL     1       4.860   3.700  16.514  0.00  0.00    +0.000 A 
BRANCH   6  10
ATOM     10  C   UNL     1       7.782   5.650  19.041  0.00  0.00    +0.000 C 
ATOM     11  F   UNL     1       8.210   6.845  18.550  0.00  0.00    +0.000 F 
ATOM     12  F   UNL     1       7.337   5.893  20.303  0.00  0.00    +0.000 F 
ATOM     13  F   UNL     1       8.896   4.880  19.176  0.00  0.00    +0.000 F 
ENDBRANCH   6  10
BRANCH   8  14
ATOM     14  C   UNL     1       6.116   4.400  14.431  0.00  0.00    +0.000 C 
ATOM     15  F   UNL     1       4.969   4.737  13.779  0.00  0.00    +0.000 F 
ATOM     16  F   UNL     1       7.059   5.290  14.021  0.00  0.00    +0.000 F 
ATOM     17  F   UNL     1       6.487   3.191  13.928  0.00  0.00    +0.000 F 
ENDBRANCH   8  14
ENDBRANCH   1   4
BRANCH   1  18
ATOM     18  N   UNL     1       2.594   3.725  19.726  0.00  0.00    +0.000 N 
BRANCH  18  19
ATOM     19  C   UNL     1       2.389   5.088  19.332  0.00  0.00    +0.000 A 
ATOM     20  C   UNL     1       2.340   6.067  20.325  0.00  0.00    +0.000 A 
ATOM     21  C   UNL     1       2.146   7.410  19.987  0.00  0.00    +0.000 A 
ATOM     22  C   UNL     1       1.992   7.793  18.649  0.00  0.00    +0.000 A 
ATOM     23  C   UNL     1       2.029   6.806  17.653  0.00  0.00    +0.000 A 
ATOM     24  C   UNL     1       2.228   5.458  17.995  0.00  0.00    +0.000 A 
BRANCH  22  25
ATOM     25  C   UNL     1       1.763   9.243  18.369  0.00  0.00    +0.000 C 
ATOM     26  O   UNL     1       2.234   9.776  17.365  0.00  0.00    +0.000 OA
ATOM     27  N   UNL     1       0.992   9.959  19.255  0.00  0.00    +0.000 N 
ATOM     28  H   UNL     1       0.364   9.558  19.939  0.00  0.00    +0.000 HD
BRANCH  27  29
ATOM     29  O   UNL     1       0.721  11.296  18.873  0.00  0.00    +0.000 OA
ATOM     30  H   UNL     1       1.616  11.703  18.891  0.00  0.00    +0.000 HD
ENDBRANCH  27  29
ENDBRANCH  22  25
ENDBRANCH  18  19
BRANCH  18  32
ATOM     31  C   UNL     1       1.342   2.653  21.566  0.00  0.00    +0.000 C 
ATOM     32  C   UNL     1       2.620   3.383  21.166  0.00  0.00    +0.000 C 
ENDBRANCH  18  32
ENDBRANCH   1  18
TORSDOF 8
ENDMDL
MODEL 3
REMARK VINA RESULT:      -8.9      0.206      3.203
REMARK  Name = 
REMARK  9 active torsions:
REMARK  status: ('A' for Active; 'I' for Inactive)
REMARK    1  A    between atoms: C_1  and  C_2
REMARK    2  A    between atoms: C_2  and  N_3
REMARK    3  A    between atoms: N_3  and  C_4
REMARK    4  A    between atoms: N_3  and  S_14
REMARK    5  A    between atoms: C_7  and  C_8
REMARK    6  A    between atoms: N_10  and  O_11
REMARK    7  A    between atoms: S_14  and  C_17
REMARK    8  A    between atoms: C_19  and  C_20
REMARK    9  A    between atoms: C_25  and  C_26
REMARK                            x       y       z     vdW  Elec       q    Type
REMARK                         _______ _______ _______ _____ _____    ______ ____
ROOT
ATOM      1  S   UNL     1       2.875   3.187  18.197  0.00  0.00    +0.000 S 
ATOM      2  O   UNL     1       3.053   1.819  18.641  0.00  0.00    +0.000 OA
ATOM      3  O   UNL     1       1.890   3.504  17.185  0.00  0.00    +0.000 OA
ENDROOT
BRANCH   1   4
ATOM      4  C   UNL     1       4.458   3.722  17.554  0.00  0.00    +0.000 A 
ATOM      5  C   UNL     1       4.695   3.693  16.174  0.00  0.00    +0.000 A 
ATOM      6  C   UNL     1       5.854   4.283  15.644  0.00  0.00    +0.000 A 
ATOM      7  C   UNL     1       6.773   4.891  16.522  0.00  0.00    +0.000 A 
ATOM      8  C   UNL     1       6.555   4.906  17.909  0.00  0.00    +0.000 A 
ATOM      9  C   UNL     1       5.375   4.337  18.418  0.00  0.00    +0.000 A 
BRANCH   6  10
ATOM     10  C   UNL     1       6.123   4.310  14.155  0.00  0.00    +0.000 C 
ATOM     11  F   UNL     1       6.988   5.291  13.780  0.00  0.00    +0.000 F 
ATOM     12  F   UNL     1       6.650   3.142  13.700  0.00  0.00    +0.000 F 
ATOM     13  F   UNL     1       4.987   4.517  13.434  0.00  0.00    +0.000 F 
ENDBRANCH   6  10
BRANCH   8  14
ATOM     14  C   UNL     1       7.572   5.517  18.849  0.00  0.00    +0.000 C 
ATOM     15  F   UNL     1       7.104   5.679  20.117  0.00  0.00    +0.000 F 
ATOM     16  F   UNL     1       8.706   4.775  18.956  0.00  0.00    +0.000 F 
ATOM     17  F   UNL     1       7.963   6.754  18.437  0.00  0.00    +0.000 F 
ENDBRANCH   8  14
ENDBRANCH   1   4
BRANCH   1  18
ATOM     18  N   UNL     1       2.605   4.165  19.567  0.00  0.00    +0.000 N 
BRANCH  18  19
ATOM     19  C   UNL     1       2.374   5.563  19.350  0.00  0.00    +0.000 A 
ATOM     20  C   UNL     1       1.925   6.337  20.422  0.00  0.00    +0.000 A 
ATOM     21  C   UNL     1       1.690   7.705  20.257  0.00  0.00    +0.000 A 
ATOM     22  C   UNL     1       1.892   8.320  19.015  0.00  0.00    +0.000 A 
ATOM     23  C   UNL     1       2.331   7.537  17.936  0.00  0.00    +0.000 A 
ATOM     24  C   UNL     1       2.570   6.164  18.105  0.00  0.00    +0.000 A 
BRANCH  22  25
ATOM     25  C   UNL     1       1.594   9.780  18.910  0.00  0.00    +0.000 C 
ATOM     26  O   UNL     1       1.010  10.374  19.816  0.00  0.00    +0.000 OA
ATOM     27  N   UNL     1       2.012  10.446  17.781  0.00  0.00    +0.000 N 
ATOM     28  H   UNL     1       2.709  10.111  17.131  0.00  0.00    +0.000 HD
BRANCH  27  29
ATOM     29  O   UNL     1       1.799  11.847  17.795  0.00  0.00    +0.000 OA
ATOM     30  H   UNL     1       1.360  11.981  18.665  0.00  0.00    +0.000 HD
ENDBRANCH  27  29
ENDBRANCH  22  25
ENDBRANCH  18  19
BRANCH  18  32
ATOM     31  C   UNL     1       2.031   3.010  21.674  0.00  0.00    +0.000 C 
ATOM     32  C   UNL     1       3.125   3.712  20.877  0.00  0.00    +0.000 C 
ENDBRANCH  18  32
ENDBRANCH   1  18
TORSDOF 8
ENDMDL
MODEL 4
REMARK VINA RESULT:      -8.9      0.945      1.618
REMARK  Name = 
REMARK  9 active torsions:
REMARK  status: ('A' for Active; 'I' for Inactive)
REMARK    1  A    between atoms: C_1  and  C_2
REMARK    2  A    between atoms: C_2  and  N_3
REMARK    3  A    between atoms: N_3  and  C_4
REMARK    4  A    between atoms: N_3  and  S_14
REMARK    5  A    between atoms: C_7  and  C_8
REMARK    6  A    between atoms: N_10  and  O_11
REMARK    7  A    between atoms: S_14  and  C_17
REMARK    8  A    between atoms: C_19  and  C_20
REMARK    9  A    between atoms: C_25  and  C_26
REMARK                            x       y       z     vdW  Elec       q    Type
REMARK                         _______ _______ _______ _____ _____    ______ ____
ROOT
ATOM      1  S   UNL     1       3.483   2.607  18.681  0.00  0.00    +0.000 S 
ATOM      2  O   UNL     1       4.189   1.581  19.422  0.00  0.00    +0.000 OA
ATOM      3  O   UNL     1       2.584   2.244  17.607  0.00  0.00    +0.000 OA
ENDROOT
BRANCH   1   4
ATOM      4  C   UNL     1       4.734   3.667  17.962  0.00  0.00    +0.000 A 
ATOM      5  C   UNL     1       5.662   4.310  18.791  0.00  0.00    +0.000 A 
ATOM      6  C   UNL     1       6.758   4.989  18.232  0.00  0.00    +0.000 A 
ATOM      7  C   UNL     1       6.899   5.018  16.831  0.00  0.00    +0.000 A 
ATOM      8  C   UNL     1       5.962   4.394  15.990  0.00  0.00    +0.000 A 
ATOM      9  C   UNL     1       4.889   3.695  16.570  0.00  0.00    +0.000 A 
BRANCH   6  10
ATOM     10  C   UNL     1       7.804   5.658  19.096  0.00  0.00    +0.000 C 
ATOM     11  F   UNL     1       8.250   6.839  18.588  0.00  0.00    +0.000 F 
ATOM     12  F   UNL     1       7.348   5.930  20.348  0.00  0.00    +0.000 F 
ATOM     13  F   UNL     1       8.909   4.879  19.258  0.00  0.00    +0.000 F 
ENDBRANCH   6  10
BRANCH   8  14
ATOM     14  C   UNL     1       6.094   4.475  14.485  0.00  0.00    +0.000 C 
ATOM     15  F   UNL     1       6.219   3.257  13.889  0.00  0.00    +0.000 F 
ATOM     16  F   UNL     1       5.030   5.078  13.891  0.00  0.00    +0.000 F 
ATOM     17  F   UNL     1       7.194   5.185  14.110  0.00  0.00    +0.000 F 
ENDBRANCH   8  14
ENDBRANCH   1   4
BRANCH   1  18
ATOM     18  N   UNL     1       2.655   3.599  19.794  0.00  0.00    +0.000 N 
BRANCH  18  19
ATOM     19  C   UNL     1       2.435   4.967  19.428  0.00  0.00    +0.000 A 
ATOM     20  C   UNL     1       2.143   5.261  18.096  0.00  0.00    +0.000 A 
ATOM     21  C   UNL     1       1.917   6.581  17.695  0.00  0.00    +0.000 A 
ATOM     22  C   UNL     1       1.988   7.630  18.621  0.00  0.00    +0.000 A 
ATOM     23  C   UNL     1       2.294   7.333  19.958  0.00  0.00    +0.000 A 
ATOM     24  C   UNL     1       2.517   6.006  20.358  0.00  0.00    +0.000 A 
BRANCH  22  25
ATOM     25  C   UNL     1       1.760   9.016  18.112  0.00  0.00    +0.000 C 
ATOM     26  O   UNL     1       2.409   9.458  17.165  0.00  0.00    +0.000 OA
ATOM     27  N   UNL     1       0.788   9.777  18.720  0.00  0.00    +0.000 N 
ATOM     28  H   UNL     1       0.048   9.416  19.307  0.00  0.00    +0.000 HD
BRANCH  27  29
ATOM     29  O   UNL     1       0.546  11.036  18.119  0.00  0.00    +0.000 OA
ATOM     30  H   UNL     1       0.454  11.625  18.901  0.00  0.00    +0.000 HD
ENDBRANCH  27  29
ENDBRANCH  22  25
ENDBRANCH  18  19
BRANCH  18  32
ATOM     31  C   UNL     1       1.324   2.641  21.641  0.00  0.00    +0.000 C 
ATOM     32  C   UNL     1       2.670   3.225  21.226  0.00  0.00    +0.000 C 
ENDBRANCH  18  32
ENDBRANCH   1  18
TORSDOF 8
ENDMDL
MODEL 5
REMARK VINA RESULT:      -8.8      0.233      3.197
REMARK  Name = 
REMARK  9 active torsions:
REMARK  status: ('A' for Active; 'I' for Inactive)
REMARK    1  A    between atoms: C_1  and  C_2
REMARK    2  A    between atoms: C_2  and  N_3
REMARK    3  A    between atoms: N_3  and  C_4
REMARK    4  A    between atoms: N_3  and  S_14
REMARK    5  A    between atoms: C_7  and  C_8
REMARK    6  A    between atoms: N_10  and  O_11
REMARK    7  A    between atoms: S_14  and  C_17
REMARK    8  A    between atoms: C_19  and  C_20
REMARK    9  A    between atoms: C_25  and  C_26
REMARK                            x       y       z     vdW  Elec       q    Type
REMARK                         _______ _______ _______ _____ _____    ______ ____
ROOT
ATOM      1  S   UNL     1       2.719   3.482  18.265  0.00  0.00    +0.000 S 
ATOM      2  O   UNL     1       2.805   2.118  18.747  0.00  0.00    +0.000 OA
ATOM      3  O   UNL     1       1.758   3.837  17.244  0.00  0.00    +0.000 OA
ENDROOT
BRANCH   1   4
ATOM      4  C   UNL     1       4.335   3.891  17.609  0.00  0.00    +0.000 A 
ATOM      5  C   UNL     1       4.568   3.808  16.230  0.00  0.00    +0.000 A 
ATOM      6  C   UNL     1       5.765   4.303  15.686  0.00  0.00    +0.000 A 
ATOM      7  C   UNL     1       6.723   4.871  16.548  0.00  0.00    +0.000 A 
ATOM      8  C   UNL     1       6.508   4.939  17.934  0.00  0.00    +0.000 A 
ATOM      9  C   UNL     1       5.292   4.466  18.456  0.00  0.00    +0.000 A 
BRANCH   6  10
ATOM     10  C   UNL     1       6.034   4.271  14.197  0.00  0.00    +0.000 C 
ATOM     11  F   UNL     1       6.609   3.112  13.777  0.00  0.00    +0.000 F 
ATOM     12  F   UNL     1       4.901   4.424  13.460  0.00  0.00    +0.000 F 
ATOM     13  F   UNL     1       6.874   5.269  13.807  0.00  0.00    +0.000 F 
ENDBRANCH   6  10
BRANCH   8  14
ATOM     14  C   UNL     1       7.565   5.504  18.858  0.00  0.00    +0.000 C 
ATOM     15  F   UNL     1       7.979   6.751  18.502  0.00  0.00    +0.000 F 
ATOM     16  F   UNL     1       7.146   5.598  20.147  0.00  0.00    +0.000 F 
ATOM     17  F   UNL     1       8.686   4.732  18.876  0.00  0.00    +0.000 F 
ENDBRANCH   8  14
ENDBRANCH   1   4
BRANCH   1  18
ATOM     18  N   UNL     1       2.518   4.514  19.607  0.00  0.00    +0.000 N 
BRANCH  18  19
ATOM     19  C   UNL     1       2.293   5.906  19.347  0.00  0.00    +0.000 A 
ATOM     20  C   UNL     1       1.835   6.712  20.391  0.00  0.00    +0.000 A 
ATOM     21  C   UNL     1       1.606   8.075  20.184  0.00  0.00    +0.000 A 
ATOM     22  C   UNL     1       1.824   8.653  18.927  0.00  0.00    +0.000 A 
ATOM     23  C   UNL     1       2.272   7.839  17.876  0.00  0.00    +0.000 A 
ATOM     24  C   UNL     1       2.505   6.470  18.088  0.00  0.00    +0.000 A 
BRANCH  22  25
ATOM     25  C   UNL     1       1.532  10.111  18.778  0.00  0.00    +0.000 C 
ATOM     26  O   UNL     1       0.779  10.689  19.560  0.00  0.00    +0.000 OA
ATOM     27  N   UNL     1       2.147  10.792  17.753  0.00  0.00    +0.000 N 
ATOM     28  H   UNL     1       2.960  10.470  17.244  0.00  0.00    +0.000 HD
BRANCH  27  29
ATOM     29  O   UNL     1       1.917  12.189  17.735  0.00  0.00    +0.000 OA
ATOM     30  H   UNL     1       1.119  12.275  18.304  0.00  0.00    +0.000 HD
ENDBRANCH  27  29
ENDBRANCH  22  25
ENDBRANCH  18  19
BRANCH  18  32
ATOM     31  C   UNL     1       2.056   3.330  21.725  0.00  0.00    +0.000 C 
ATOM     32  C   UNL     1       3.087   4.104  20.910  0.00  0.00    +0.000 C 
ENDBRANCH  18  32
ENDBRANCH   1  18
TORSDOF 8
ENDMDL
MODEL 6
REMARK VINA RESULT:      -8.8      0.246      1.333
REMARK  Name = 
REMARK  9 active torsions:
REMARK  status: ('A' for Active; 'I' for Inactive)
REMARK    1  A    between atoms: C_1  and  C_2
REMARK    2  A    between atoms: C_2  and  N_3
REMARK    3  A    between atoms: N_3  and  C_4
REMARK    4  A    between atoms: N_3  and  S_14
REMARK    5  A    between atoms: C_7  and  C_8
REMARK    6  A    between atoms: N_10  and  O_11
REMARK    7  A    between atoms: S_14  and  C_17
REMARK    8  A    between atoms: C_19  and  C_20
REMARK    9  A    between atoms: C_25  and  C_26
REMARK                            x       y       z     vdW  Elec       q    Type
REMARK                         _______ _______ _______ _____ _____    ______ ____
ROOT
ATOM      1  S   UNL     1       2.767   3.503  18.248  0.00  0.00    +0.000 S 
ATOM      2  O   UNL     1       3.065   2.155  18.688  0.00  0.00    +0.000 OA
ATOM      3  O   UNL     1       1.742   3.737  17.255  0.00  0.00    +0.000 OA
ENDROOT
BRANCH   1   4
ATOM      4  C   UNL     1       4.289   4.166  17.577  0.00  0.00    +0.000 A 
ATOM      5  C   UNL     1       5.278   4.653  18.442  0.00  0.00    +0.000 A 
ATOM      6  C   UNL     1       6.544   4.999  17.943  0.00  0.00    +0.000 A 
ATOM      7  C   UNL     1       6.796   4.857  16.564  0.00  0.00    +0.000 A 
ATOM      8  C   UNL     1       5.805   4.390  15.686  0.00  0.00    +0.000 A 
ATOM      9  C   UNL     1       4.554   4.021  16.209  0.00  0.00    +0.000 A 
BRANCH   6  10
ATOM     10  C   UNL     1       7.651   5.487  18.852  0.00  0.00    +0.000 C 
ATOM     11  F   UNL     1       8.742   4.674  18.860  0.00  0.00    +0.000 F 
ATOM     12  F   UNL     1       8.100   6.724  18.507  0.00  0.00    +0.000 F 
ATOM     13  F   UNL     1       7.244   5.582  20.148  0.00  0.00    +0.000 F 
ENDBRANCH   6  10
BRANCH   8  14
ATOM     14  C   UNL     1       6.069   4.289  14.199  0.00  0.00    +0.000 C 
ATOM     15  F   UNL     1       6.556   3.075  13.820  0.00  0.00    +0.000 F 
ATOM     16  F   UNL     1       4.956   4.501  13.448  0.00  0.00    +0.000 F 
ATOM     17  F   UNL     1       6.989   5.204  13.785  0.00  0.00    +0.000 F 
ENDBRANCH   8  14
ENDBRANCH   1   4
BRANCH   1  18
ATOM     18  N   UNL     1       2.443   4.458  19.623  0.00  0.00    +0.000 N 
BRANCH  18  19
ATOM     19  C   UNL     1       2.212   5.858  19.421  0.00  0.00    +0.000 A 
ATOM     20  C   UNL     1       2.369   6.379  18.136  0.00  0.00    +0.000 A 
ATOM     21  C   UNL     1       2.151   7.738  17.892  0.00  0.00    +0.000 A 
ATOM     22  C   UNL     1       1.779   8.599  18.932  0.00  0.00    +0.000 A 
ATOM     23  C   UNL     1       1.634   8.075  20.226  0.00  0.00    +0.000 A 
ATOM     24  C   UNL     1       1.850   6.709  20.468  0.00  0.00    +0.000 A 
BRANCH  22  25
ATOM     25  C   UNL     1       1.589  10.043  18.598  0.00  0.00    +0.000 C 
ATOM     26  O   UNL     1       0.726  10.715  19.161  0.00  0.00    +0.000 OA
ATOM     27  N   UNL     1       2.422  10.605  17.659  0.00  0.00    +0.000 N 
ATOM     28  H   UNL     1       3.303  10.213  17.352  0.00  0.00    +0.000 HD
BRANCH  27  29
ATOM     29  O   UNL     1       2.265  12.000  17.472  0.00  0.00    +0.000 OA
ATOM     30  H   UNL     1       3.166  12.275  17.189  0.00  0.00    +0.000 HD
ENDBRANCH  27  29
ENDBRANCH  22  25
ENDBRANCH  18  19
BRANCH  18  32
ATOM     31  C   UNL     1       1.862   3.107  21.609  0.00  0.00    +0.000 C 
ATOM     32  C   UNL     1       2.917   3.985  20.944  0.00  0.00    +0.000 C 
ENDBRANCH  18  32
ENDBRANCH   1  18
TORSDOF 8
ENDMDL
MODEL 7
REMARK VINA RESULT:      -8.8      0.687      1.298
REMARK  Name = 
REMARK  9 active torsions:
REMARK  status: ('A' for Active; 'I' for Inactive)
REMARK    1  A    between atoms: C_1  and  C_2
REMARK    2  A    between atoms: C_2  and  N_3
REMARK    3  A    between atoms: N_3  and  C_4
REMARK    4  A    between atoms: N_3  and  S_14
REMARK    5  A    between atoms: C_7  and  C_8
REMARK    6  A    between atoms: N_10  and  O_11
REMARK    7  A    between atoms: S_14  and  C_17
REMARK    8  A    between atoms: C_19  and  C_20
REMARK    9  A    between atoms: C_25  and  C_26
REMARK                            x       y       z     vdW  Elec       q    Type
REMARK                         _______ _______ _______ _____ _____    ______ ____
ROOT
ATOM      1  S   UNL     1       3.256   2.627  18.277  0.00  0.00    +0.000 S 
ATOM      2  O   UNL     1       3.872   1.423  18.797  0.00  0.00    +0.000 OA
ATOM      3  O   UNL     1       2.250   2.544  17.240  0.00  0.00    +0.000 OA
ENDROOT
BRANCH   1   4
ATOM      4  C   UNL     1       4.583   3.635  17.622  0.00  0.00    +0.000 A 
ATOM      5  C   UNL     1       5.482   4.257  18.497  0.00  0.00    +0.000 A 
ATOM      6  C   UNL     1       6.632   4.891  17.996  0.00  0.00    +0.000 A 
ATOM      7  C   UNL     1       6.855   4.897  16.605  0.00  0.00    +0.000 A 
ATOM      8  C   UNL     1       5.949   4.294  15.718  0.00  0.00    +0.000 A 
ATOM      9  C   UNL     1       4.820   3.640  16.241  0.00  0.00    +0.000 A 
BRANCH   6  10
ATOM     10  C   UNL     1       7.648   5.535  18.913  0.00  0.00    +0.000 C 
ATOM     11  F   UNL     1       7.178   5.755  20.171  0.00  0.00    +0.000 F 
ATOM     12  F   UNL     1       8.774   4.785  19.051  0.00  0.00    +0.000 F 
ATOM     13  F   UNL     1       8.057   6.749  18.450  0.00  0.00    +0.000 F 
ENDBRANCH   6  10
BRANCH   8  14
ATOM     14  C   UNL     1       6.171   4.351  14.222  0.00  0.00    +0.000 C 
ATOM     15  F   UNL     1       7.042   5.327  13.844  0.00  0.00    +0.000 F 
ATOM     16  F   UNL     1       6.663   3.189  13.716  0.00  0.00    +0.000 F 
ATOM     17  F   UNL     1       5.016   4.603  13.548  0.00  0.00    +0.000 F 
ENDBRANCH   8  14
ENDBRANCH   1   4
BRANCH   1  18
ATOM     18  N   UNL     1       2.634   3.521  19.589  0.00  0.00    +0.000 N 
BRANCH  18  19
ATOM     19  C   UNL     1       2.381   4.917  19.382  0.00  0.00    +0.000 A 
ATOM     20  C   UNL     1       2.122   5.361  18.084  0.00  0.00    +0.000 A 
ATOM     21  C   UNL     1       1.867   6.713  17.836  0.00  0.00    +0.000 A 
ATOM     22  C   UNL     1       1.874   7.644  18.882  0.00  0.00    +0.000 A 
ATOM     23  C   UNL     1       2.147   7.198  20.184  0.00  0.00    +0.000 A 
ATOM     24  C   UNL     1       2.400   5.838  20.431  0.00  0.00    +0.000 A 
BRANCH  22  25
ATOM     25  C   UNL     1       1.618   9.074  18.535  0.00  0.00    +0.000 C 
ATOM     26  O   UNL     1       0.678   9.689  19.036  0.00  0.00    +0.000 OA
ATOM     27  N   UNL     1       2.477   9.690  17.654  0.00  0.00    +0.000 N 
ATOM     28  H   UNL     1       3.399   9.355  17.408  0.00  0.00    +0.000 HD
BRANCH  27  29
ATOM     29  O   UNL     1       2.246  11.073  17.455  0.00  0.00    +0.000 OA
ATOM     30  H   UNL     1       3.051  11.477  17.849  0.00  0.00    +0.000 HD
ENDBRANCH  27  29
ENDBRANCH  22  25
ENDBRANCH  18  19
BRANCH  18  32
ATOM     31  C   UNL     1       1.558   2.611  21.618  0.00  0.00    +0.000 C 
ATOM     32  C   UNL     1       2.872   3.025  20.963  0.00  0.00    +0.000 C 
ENDBRANCH  18  32
ENDBRANCH   1  18
TORSDOF 8
ENDMDL
MODEL 8
REMARK VINA RESULT:      -8.8      1.701      3.734
REMARK  Name = 
REMARK  9 active torsions:
REMARK  status: ('A' for Active; 'I' for Inactive)
REMARK    1  A    between atoms: C_1  and  C_2
REMARK    2  A    between atoms: C_2  and  N_3
REMARK    3  A    between atoms: N_3  and  C_4
REMARK    4  A    between atoms: N_3  and  S_14
REMARK    5  A    between atoms: C_7  and  C_8
REMARK    6  A    between atoms: N_10  and  O_11
REMARK    7  A    between atoms: S_14  and  C_17
REMARK    8  A    between atoms: C_19  and  C_20
REMARK    9  A    between atoms: C_25  and  C_26
REMARK                            x       y       z     vdW  Elec       q    Type
REMARK                         _______ _______ _______ _____ _____    ______ ____
ROOT
ATOM      1  S   UNL     1       4.034   3.414  18.706  0.00  0.00    +0.000 S 
ATOM      2  O   UNL     1       4.420   3.792  20.051  0.00  0.00    +0.000 OA
ATOM      3  O   UNL     1       3.989   2.019  18.324  0.00  0.00    +0.000 OA
ENDROOT
BRANCH   1   4
ATOM      4  C   UNL     1       5.200   4.208  17.602  0.00  0.00    +0.000 A 
ATOM      5  C   UNL     1       5.278   3.802  16.264  0.00  0.00    +0.000 A 
ATOM      6  C   UNL     1       6.047   4.538  15.347  0.00  0.00    +0.000 A 
ATOM      7  C   UNL     1       6.741   5.678  15.799  0.00  0.00    +0.000 A 
ATOM      8  C   UNL     1       6.686   6.080  17.143  0.00  0.00    +0.000 A 
ATOM      9  C   UNL     1       5.887   5.348  18.039  0.00  0.00    +0.000 A 
BRANCH   6  10
ATOM     10  C   UNL     1       6.121   4.157  13.885  0.00  0.00    +0.000 C 
ATOM     11  F   UNL     1       7.038   4.878  13.184  0.00  0.00    +0.000 F 
ATOM     12  F   UNL     1       6.445   2.848  13.704  0.00  0.00    +0.000 F 
ATOM     13  F   UNL     1       4.933   4.343  13.247  0.00  0.00    +0.000 F 
ENDBRANCH   6  10
BRANCH   8  14
ATOM     14  C   UNL     1       7.476   7.276  17.630  0.00  0.00    +0.000 C 
ATOM     15  F   UNL     1       8.189   7.025  18.762  0.00  0.00    +0.000 F 
ATOM     16  F   UNL     1       8.370   7.729  16.712  0.00  0.00    +0.000 F 
ATOM     17  F   UNL     1       6.666   8.330  17.927  0.00  0.00    +0.000 F 
ENDBRANCH   8  14
ENDBRANCH   1   4
BRANCH   1  18
ATOM     18  N   UNL     1       2.533   4.140  18.354  0.00  0.00    +0.000 N 
BRANCH  18  19
ATOM     19  C   UNL     1       2.241   5.399  18.975  0.00  0.00    +0.000 A 
ATOM     20  C   UNL     1       1.717   5.397  20.268  0.00  0.00    +0.000 A 
ATOM     21  C   UNL     1       1.421   6.602  20.913  0.00  0.00    +0.000 A 
ATOM     22  C   UNL     1       1.638   7.827  20.272  0.00  0.00    +0.000 A 
ATOM     23  C   UNL     1       2.153   7.826  18.967  0.00  0.00    +0.000 A 
ATOM     24  C   UNL     1       2.453   6.615  18.322  0.00  0.00    +0.000 A 
BRANCH  22  25
ATOM     25  C   UNL     1       1.273   9.070  21.016  0.00  0.00    +0.000 C 
ATOM     26  O   UNL     1       1.097  10.134  20.424  0.00  0.00    +0.000 OA
ATOM     27  N   UNL     1       1.118   8.985  22.380  0.00  0.00    +0.000 N 
ATOM     28  H   UNL     1       0.983   8.128  22.900  0.00  0.00    +0.000 HD
BRANCH  27  29
ATOM     29  O   UNL     1       0.662  10.170  23.009  0.00  0.00    +0.000 OA
ATOM     30  H   UNL     1       0.594   9.892  23.950  0.00  0.00    +0.000 HD
ENDBRANCH  27  29
ENDBRANCH  22  25
ENDBRANCH  18  19
BRANCH  18  32
ATOM     31  C   UNL     1       0.854   2.475  19.071  0.00  0.00    +0.000 C 
ATOM     32  C   UNL     1       1.416   3.279  17.903  0.00  0.00    +0.000 C 
ENDBRANCH  18  32
ENDBRANCH   1  18
TORSDOF 8
ENDMDL
MODEL 9
REMARK VINA RESULT:      -8.8      1.260      3.477
REMARK  Name = 
REMARK  9 active torsions:
REMARK  status: ('A' for Active; 'I' for Inactive)
REMARK    1  A    between atoms: C_1  and  C_2
REMARK    2  A    between atoms: C_2  and  N_3
REMARK    3  A    between atoms: N_3  and  C_4
REMARK    4  A    between atoms: N_3  and  S_14
REMARK    5  A    between atoms: C_7  and  C_8
REMARK    6  A    between atoms: N_10  and  O_11
REMARK    7  A    between atoms: S_14  and  C_17
REMARK    8  A    between atoms: C_19  and  C_20
REMARK    9  A    between atoms: C_25  and  C_26
REMARK                            x       y       z     vdW  Elec       q    Type
REMARK                         _______ _______ _______ _____ _____    ______ ____
ROOT
ATOM      1  S   UNL     1       4.164   3.858  19.175  0.00  0.00    +0.000 S 
ATOM      2  O   UNL     1       4.491   4.467  20.449  0.00  0.00    +0.000 OA
ATOM      3  O   UNL     1       4.223   2.422  19.015  0.00  0.00    +0.000 OA
ENDROOT
BRANCH   1   4
ATOM      4  C   UNL     1       5.298   4.552  17.975  0.00  0.00    +0.000 A 
ATOM      5  C   UNL     1       5.306   4.066  16.661  0.00  0.00    +0.000 A 
ATOM      6  C   UNL     1       6.051   4.724  15.669  0.00  0.00    +0.000 A 
ATOM      7  C   UNL     1       6.794   5.869  16.020  0.00  0.00    +0.000 A 
ATOM      8  C   UNL     1       6.810   6.351  17.339  0.00  0.00    +0.000 A 
ATOM      9  C   UNL     1       6.034   5.697  18.311  0.00  0.00    +0.000 A 
BRANCH   6  10
ATOM     10  C   UNL     1       6.049   4.255  14.231  0.00  0.00    +0.000 C 
ATOM     11  F   UNL     1       6.373   2.941  14.091  0.00  0.00    +0.000 F 
ATOM     12  F   UNL     1       4.838   4.415  13.632  0.00  0.00    +0.000 F 
ATOM     13  F   UNL     1       6.941   4.943  13.467  0.00  0.00    +0.000 F 
ENDBRANCH   6  10
BRANCH   8  14
ATOM     14  C   UNL     1       7.651   7.551  17.717  0.00  0.00    +0.000 C 
ATOM     15  F   UNL     1       6.911   8.657  18.008  0.00  0.00    +0.000 F 
ATOM     16  F   UNL     1       8.436   7.326  18.803  0.00  0.00    +0.000 F 
ATOM     17  F   UNL     1       8.489   7.920  16.709  0.00  0.00    +0.000 F 
ENDBRANCH   8  14
ENDBRANCH   1   4
BRANCH   1  18
ATOM     18  N   UNL     1       2.625   4.413  18.694  0.00  0.00    +0.000 N 
BRANCH  18  19
ATOM     19  C   UNL     1       2.359   5.817  18.807  0.00  0.00    +0.000 A 
ATOM     20  C   UNL     1       2.464   6.608  17.663  0.00  0.00    +0.000 A 
ATOM     21  C   UNL     1       2.209   7.981  17.726  0.00  0.00    +0.000 A 
ATOM     22  C   UNL     1       1.853   8.586  18.938  0.00  0.00    +0.000 A 
ATOM     23  C   UNL     1       1.761   7.791  20.090  0.00  0.00    +0.000 A 
ATOM     24  C   UNL     1       2.013   6.411  20.023  0.00  0.00    +0.000 A 
BRANCH  22  25
ATOM     25  C   UNL     1       1.622  10.062  18.931  0.00  0.00    +0.000 C 
ATOM     26  O   UNL     1       1.106  10.627  19.894  0.00  0.00    +0.000 OA
ATOM     27  N   UNL     1       2.023  10.775  17.825  0.00  0.00    +0.000 N 
ATOM     28  H   UNL     1       2.676  10.447  17.125  0.00  0.00    +0.000 HD
BRANCH  27  29
ATOM     29  O   UNL     1       1.880  12.180  17.929  0.00  0.00    +0.000 OA
ATOM     30  H   UNL     1       1.283  12.270  18.705  0.00  0.00    +0.000 HD
ENDBRANCH  27  29
ENDBRANCH  22  25
ENDBRANCH  18  19
BRANCH  18  32
ATOM     31  C   UNL     1       1.049   3.161  20.127  0.00  0.00    +0.000 C 
ATOM     32  C   UNL     1       1.493   3.458  18.699  0.00  0.00    +0.000 C 
ENDBRANCH  18  32
ENDBRANCH   1  18
TORSDOF 8
ENDMDL
