MODEL 1
REMARK VINA RESULT:      -7.3      0.000      0.000
REMARK  Name = 
REMARK  9 active torsions:
REMARK  status: ('A' for Active; 'I' for Inactive)
REMARK    1  A    between atoms: C_1  and  O_2
REMARK    2  A    between atoms: O_2  and  C_3
REMARK    3  A    between atoms: C_7  and  C_8
REMARK    4  A    between atoms: C_8  and  N_9
REMARK    5  A    between atoms: N_9  and  C_10
REMARK    6  A    between atoms: C_10  and  C_11
REMARK    7  A    between atoms: C_11  and  C_12
REMARK    8  A    between atoms: C_12  and  O_13
REMARK    9  A    between atoms: O_13  and  C_14
REMARK                            x       y       z     vdW  Elec       q    Type
REMARK                         _______ _______ _______ _____ _____    ______ ____
ROOT
ATOM      1  C   UNL     1       1.172   3.769  19.370  0.00  0.00    +0.000 C 
ENDROOT
BRANCH   1   2
ATOM      2  C   UNL     1       1.861   2.544  18.760  0.00  0.00    +0.000 C 
BRANCH   2   3
ATOM      3  N   UNL     1       3.233   2.845  18.360  0.00  0.00    +0.000 NA
ATOM      4  H   UNL     1       3.700   3.426  19.055  0.00  0.00    +0.000 HD
BRANCH   3   5
ATOM      5  C   UNL     1       3.283   3.553  17.082  0.00  0.00    +0.000 C 
BRANCH   5  10
ATOM      6  C   UNL     1       6.944   4.558  17.513  0.00  0.00    +0.000 A 
ATOM      7  C   UNL     1       7.293   4.861  16.194  0.00  0.00    +0.000 A 
ATOM      8  C   UNL     1       6.363   4.726  15.165  0.00  0.00    +0.000 A 
ATOM      9  C   UNL     1       5.068   4.296  15.452  0.00  0.00    +0.000 A 
ATOM     10  C   UNL     1       4.694   3.996  16.770  0.00  0.00    +0.000 A 
ATOM     11  C   UNL     1       5.646   4.123  17.795  0.00  0.00    +0.000 A 
BRANCH   6  13
ATOM     12  C   UNL     1       7.781   5.785  19.367  0.00  0.00    +0.000 C 
ATOM     13  O   UNL     1       7.947   4.733  18.426  0.00  0.00    +0.000 OA
ENDBRANCH   6  13
ENDBRANCH   5  10
ENDBRANCH   3   5
ENDBRANCH   2   3
ENDBRANCH   1   2
BRANCH   1  14
ATOM     14  C   UNL     1       1.910   4.310  20.590  0.00  0.00    +0.000 C 
BRANCH  14  15
ATOM     15  O   UNL     1       2.939   5.200  20.158  0.00  0.00    +0.000 OA
BRANCH  15  16
ATOM     16  C   UNL     1       2.523   6.439  19.745  0.00  0.00    +0.000 A 
ATOM     17  C   UNL     1       2.981   6.825  18.487  0.00  0.00    +0.000 A 
ATOM     18  C   UNL     1       2.601   8.052  17.939  0.00  0.00    +0.000 A 
ATOM     19  C   UNL     1       1.758   8.921  18.649  0.00  0.00    +0.000 A 
ATOM     20  C   UNL     1       1.327  10.139  18.102  0.00  0.00    +0.000 A 
ATOM     21  C   UNL     1       0.496  10.994  18.828  0.00  0.00    +0.000 A 
ATOM     22  C   UNL     1       0.104  10.653  20.119  0.00  0.00    +0.000 A 
ATOM     23  C   UNL     1       0.517   9.442  20.674  0.00  0.00    +0.000 A 
ATOM     24  C   UNL     1       1.326   8.556  19.944  0.00  0.00    +0.000 A 
ATOM     25  C   UNL     1       1.709   7.312  20.473  0.00  0.00    +0.000 A 
ENDBRANCH  15  16
ENDBRANCH  14  15
ENDBRANCH   1  14
TORSDOF 8
ENDMDL
MODEL 2
REMARK VINA RESULT:      -6.9      1.229      1.961
REMARK  Name = 
REMARK  9 active torsions:
REMARK  status: ('A' for Active; 'I' for Inactive)
REMARK    1  A    between atoms: C_1  and  O_2
REMARK    2  A    between atoms: O_2  and  C_3
REMARK    3  A    between atoms: C_7  and  C_8
REMARK    4  A    between atoms: C_8  and  N_9
REMARK    5  A    between atoms: N_9  and  C_10
REMARK    6  A    between atoms: C_10  and  C_11
REMARK    7  A    between atoms: C_11  and  C_12
REMARK    8  A    between atoms: C_12  and  O_13
REMARK    9  A    between atoms: O_13  and  C_14
REMARK                            x       y       z     vdW  Elec       q    Type
REMARK                         _______ _______ _______ _____ _____    ______ ____
ROOT
ATOM      1  C   UNL     1       1.114   2.906  20.128  0.00  0.00    +0.000 C 
ENDROOT
BRANCH   1   2
ATOM      2  C   UNL     1       1.217   3.199  18.628  0.00  0.00    +0.000 C 
BRANCH   2   3
ATOM      3  N   UNL     1       1.852   2.098  17.910  0.00  0.00    +0.000 NA
ATOM      4  H   UNL     1       1.356   1.221  18.066  0.00  0.00    +0.000 HD
BRANCH   3   5
ATOM      5  C   UNL     1       3.239   1.904  18.329  0.00  0.00    +0.000 C 
BRANCH   5  10
ATOM      6  C   UNL     1       5.664   4.802  18.891  0.00  0.00    +0.000 A 
ATOM      7  C   UNL     1       5.510   5.512  17.698  0.00  0.00    +0.000 A 
ATOM      8  C   UNL     1       4.644   5.055  16.706  0.00  0.00    +0.000 A 
ATOM      9  C   UNL     1       3.916   3.884  16.908  0.00  0.00    +0.000 A 
ATOM     10  C   UNL     1       4.048   3.160  18.103  0.00  0.00    +0.000 A 
ATOM     11  C   UNL     1       4.935   3.626  19.088  0.00  0.00    +0.000 A 
BRANCH   6  13
ATOM     12  C   UNL     1       7.838   5.674  19.288  0.00  0.00    +0.000 C 
ATOM     13  O   UNL     1       6.543   5.358  19.780  0.00  0.00    +0.000 OA
ENDBRANCH   6  13
ENDBRANCH   5  10
ENDBRANCH   3   5
ENDBRANCH   2   3
ENDBRANCH   1   2
BRANCH   1  14
ATOM     14  C   UNL     1       1.358   4.144  20.986  0.00  0.00    +0.000 C 
BRANCH  14  15
ATOM     15  O   UNL     1       2.347   4.960  20.359  0.00  0.00    +0.000 OA
BRANCH  15  16
ATOM     16  C   UNL     1       2.004   6.274  20.171  0.00  0.00    +0.000 A 
ATOM     17  C   UNL     1       1.262   6.842  21.204  0.00  0.00    +0.000 A 
ATOM     18  C   UNL     1       0.879   8.185  21.146  0.00  0.00    +0.000 A 
ATOM     19  C   UNL     1       1.228   8.980  20.045  0.00  0.00    +0.000 A 
ATOM     20  C   UNL     1       0.892  10.342  19.984  0.00  0.00    +0.000 A 
ATOM     21  C   UNL     1       1.240  11.115  18.874  0.00  0.00    +0.000 A 
ATOM     22  C   UNL     1       1.906  10.530  17.801  0.00  0.00    +0.000 A 
ATOM     23  C   UNL     1       2.254   9.181  17.850  0.00  0.00    +0.000 A 
ATOM     24  C   UNL     1       1.941   8.398  18.973  0.00  0.00    +0.000 A 
ATOM     25  C   UNL     1       2.328   7.050  19.054  0.00  0.00    +0.000 A 
ENDBRANCH  15  16
ENDBRANCH  14  15
ENDBRANCH   1  14
TORSDOF 8
ENDMDL
MODEL 3
REMARK VINA RESULT:      -6.9      2.026      6.375
REMARK  Name = 
REMARK  9 active torsions:
REMARK  status: ('A' for Active; 'I' for Inactive)
REMARK    1  A    between atoms: C_1  and  O_2
REMARK    2  A    between atoms: O_2  and  C_3
REMARK    3  A    between atoms: C_7  and  C_8
REMARK    4  A    between atoms: C_8  and  N_9
REMARK    5  A    between atoms: N_9  and  C_10
REMARK    6  A    between atoms: C_10  and  C_11
REMARK    7  A    between atoms: C_11  and  C_12
REMARK    8  A    between atoms: C_12  and  O_13
REMARK    9  A    between atoms: O_13  and  C_14
REMARK                            x       y       z     vdW  Elec       q    Type
REMARK                         _______ _______ _______ _____ _____    ______ ____
ROOT
ATOM      1  C   UNL     1       2.061   3.819  19.603  0.00  0.00    +0.000 C 
ENDROOT
BRANCH   1   2
ATOM      2  C   UNL     1       2.331   4.777  20.768  0.00  0.00    +0.000 C 
BRANCH   2   3
ATOM      3  N   UNL     1       2.945   6.019  20.308  0.00  0.00    +0.000 NA
ATOM      4  H   UNL     1       2.959   6.720  21.049  0.00  0.00    +0.000 HD
BRANCH   3   5
ATOM      5  C   UNL     1       2.229   6.591  19.170  0.00  0.00    +0.000 C 
BRANCH   5  10
ATOM      6  C   UNL     1       1.023   9.682  21.064  0.00  0.00    +0.000 A 
ATOM      7  C   UNL     1       0.905  10.604  20.021  0.00  0.00    +0.000 A 
ATOM      8  C   UNL     1       1.228  10.242  18.714  0.00  0.00    +0.000 A 
ATOM      9  C   UNL     1       1.663   8.946  18.441  0.00  0.00    +0.000 A 
ATOM     10  C   UNL     1       1.779   8.002  19.473  0.00  0.00    +0.000 A 
ATOM     11  C   UNL     1       1.464   8.385  20.787  0.00  0.00    +0.000 A 
BRANCH   6  13
ATOM     12  C   UNL     1      -0.464   9.577  22.915  0.00  0.00    +0.000 C 
ATOM     13  O   UNL     1       0.674  10.163  22.297  0.00  0.00    +0.000 OA
ENDBRANCH   6  13
ENDBRANCH   5  10
ENDBRANCH   3   5
ENDBRANCH   2   3
ENDBRANCH   1   2
BRANCH   1  14
ATOM     14  C   UNL     1       3.102   2.709  19.502  0.00  0.00    +0.000 C 
BRANCH  14  15
ATOM     15  O   UNL     1       3.710   2.754  18.212  0.00  0.00    +0.000 OA
BRANCH  15  16
ATOM     16  C   UNL     1       4.507   3.841  17.964  0.00  0.00    +0.000 A 
ATOM     17  C   UNL     1       4.116   4.622  16.878  0.00  0.00    +0.000 A 
ATOM     18  C   UNL     1       4.828   5.777  16.543  0.00  0.00    +0.000 A 
ATOM     19  C   UNL     1       5.952   6.164  17.288  0.00  0.00    +0.000 A 
ATOM     20  C   UNL     1       6.657   7.343  16.996  0.00  0.00    +0.000 A 
ATOM     21  C   UNL     1       7.779   7.707  17.744  0.00  0.00    +0.000 A 
ATOM     22  C   UNL     1       8.224   6.885  18.775  0.00  0.00    +0.000 A 
ATOM     23  C   UNL     1       7.530   5.716  19.082  0.00  0.00    +0.000 A 
ATOM     24  C   UNL     1       6.380   5.353  18.361  0.00  0.00    +0.000 A 
ATOM     25  C   UNL     1       5.645   4.202  18.692  0.00  0.00    +0.000 A 
ENDBRANCH  15  16
ENDBRANCH  14  15
ENDBRANCH   1  14
TORSDOF 8
ENDMDL
MODEL 4
REMARK VINA RESULT:      -6.8      2.077      6.109
REMARK  Name = 
REMARK  9 active torsions:
REMARK  status: ('A' for Active; 'I' for Inactive)
REMARK    1  A    between atoms: C_1  and  O_2
REMARK    2  A    between atoms: O_2  and  C_3
REMARK    3  A    between atoms: C_7  and  C_8
REMARK    4  A    between atoms: C_8  and  N_9
REMARK    5  A    between atoms: N_9  and  C_10
REMARK    6  A    between atoms: C_10  and  C_11
REMARK    7  A    between atoms: C_11  and  C_12
REMARK    8  A    between atoms: C_12  and  O_13
REMARK    9  A    between atoms: O_13  and  C_14
REMARK                            x       y       z     vdW  Elec       q    Type
REMARK                         _______ _______ _______ _____ _____    ______ ____
ROOT
ATOM      1  C   UNL     1       1.591   3.913  19.473  0.00  0.00    +0.000 C 
ENDROOT
BRANCH   1   2
ATOM      2  C   UNL     1       1.402   4.671  20.791  0.00  0.00    +0.000 C 
BRANCH   2   3
ATOM      3  N   UNL     1       2.258   5.852  20.856  0.00  0.00    +0.000 NA
ATOM      4  H   UNL     1       2.941   5.771  21.610  0.00  0.00    +0.000 HD
BRANCH   3   5
ATOM      5  C   UNL     1       1.485   7.071  21.086  0.00  0.00    +0.000 C 
BRANCH   5  10
ATOM      6  C   UNL     1       1.220  10.206  18.920  0.00  0.00    +0.000 A 
ATOM      7  C   UNL     1       1.916   9.801  17.779  0.00  0.00    +0.000 A 
ATOM      8  C   UNL     1       2.486   8.531  17.709  0.00  0.00    +0.000 A 
ATOM      9  C   UNL     1       2.353   7.651  18.782  0.00  0.00    +0.000 A 
ATOM     10  C   UNL     1       1.649   8.035  19.934  0.00  0.00    +0.000 A 
ATOM     11  C   UNL     1       1.092   9.323  19.995  0.00  0.00    +0.000 A 
BRANCH   6  13
ATOM     12  C   UNL     1       1.624  12.518  18.550  0.00  0.00    +0.000 C 
ATOM     13  O   UNL     1       0.710  11.475  18.860  0.00  0.00    +0.000 OA
ENDBRANCH   6  13
ENDBRANCH   5  10
ENDBRANCH   3   5
ENDBRANCH   2   3
ENDBRANCH   1   2
BRANCH   1  14
ATOM     14  C   UNL     1       2.326   2.589  19.657  0.00  0.00    +0.000 C 
BRANCH  14  15
ATOM     15  O   UNL     1       3.201   2.383  18.549  0.00  0.00    +0.000 OA
BRANCH  15  16
ATOM     16  C   UNL     1       4.022   3.434  18.232  0.00  0.00    +0.000 A 
ATOM     17  C   UNL     1       3.636   4.163  17.109  0.00  0.00    +0.000 A 
ATOM     18  C   UNL     1       4.371   5.279  16.701  0.00  0.00    +0.000 A 
ATOM     19  C   UNL     1       5.513   5.680  17.410  0.00  0.00    +0.000 A 
ATOM     20  C   UNL     1       6.243   6.822  17.045  0.00  0.00    +0.000 A 
ATOM     21  C   UNL     1       7.383   7.199  17.758  0.00  0.00    +0.000 A 
ATOM     22  C   UNL     1       7.821   6.426  18.829  0.00  0.00    +0.000 A 
ATOM     23  C   UNL     1       7.102   5.293  19.209  0.00  0.00    +0.000 A 
ATOM     24  C   UNL     1       5.935   4.919  18.523  0.00  0.00    +0.000 A 
ATOM     25  C   UNL     1       5.177   3.807  18.926  0.00  0.00    +0.000 A 
ENDBRANCH  15  16
ENDBRANCH  14  15
ENDBRANCH   1  14
TORSDOF 8
ENDMDL
MODEL 5
REMARK VINA RESULT:      -6.8      1.595      2.730
REMARK  Name = 
REMARK  9 active torsions:
REMARK  status: ('A' for Active; 'I' for Inactive)
REMARK    1  A    between atoms: C_1  and  O_2
REMARK    2  A    between atoms: O_2  and  C_3
REMARK    3  A    between atoms: C_7  and  C_8
REMARK    4  A    between atoms: C_8  and  N_9
REMARK    5  A    between atoms: N_9  and  C_10
REMARK    6  A    between atoms: C_10  and  C_11
REMARK    7  A    between atoms: C_11  and  C_12
REMARK    8  A    between atoms: C_12  and  O_13
REMARK    9  A    between atoms: O_13  and  C_14
REMARK                            x       y       z     vdW  Elec       q    Type
REMARK                         _______ _______ _______ _____ _____    ______ ____
ROOT
ATOM      1  C   UNL     1       1.856   5.262  17.927  0.00  0.00    +0.000 C 
ENDROOT
BRANCH   1   2
ATOM      2  C   UNL     1       2.549   3.938  18.260  0.00  0.00    +0.000 C 
BRANCH   2   3
ATOM      3  N   UNL     1       3.496   4.090  19.361  0.00  0.00    +0.000 NA
ATOM      4  H   UNL     1       3.682   5.074  19.554  0.00  0.00    +0.000 HD
BRANCH   3   5
ATOM      5  C   UNL     1       4.775   3.445  19.071  0.00  0.00    +0.000 C 
BRANCH   5  10
ATOM      6  C   UNL     1       6.934   5.088  16.382  0.00  0.00    +0.000 A 
ATOM      7  C   UNL     1       7.486   6.153  17.098  0.00  0.00    +0.000 A 
ATOM      8  C   UNL     1       7.154   6.356  18.436  0.00  0.00    +0.000 A 
ATOM      9  C   UNL     1       6.271   5.484  19.072  0.00  0.00    +0.000 A 
ATOM     10  C   UNL     1       5.713   4.403  18.374  0.00  0.00    +0.000 A 
ATOM     11  C   UNL     1       6.046   4.219  17.021  0.00  0.00    +0.000 A 
BRANCH   6  13
ATOM     12  C   UNL     1       6.478   4.317  14.181  0.00  0.00    +0.000 C 
ATOM     13  O   UNL     1       7.342   5.001  15.079  0.00  0.00    +0.000 OA
ENDBRANCH   6  13
ENDBRANCH   5  10
ENDBRANCH   3   5
ENDBRANCH   2   3
ENDBRANCH   1   2
BRANCH   1  14
ATOM     14  C   UNL     1       2.692   6.477  18.317  0.00  0.00    +0.000 C 
BRANCH  14  15
ATOM     15  O   UNL     1       2.555   6.710  19.718  0.00  0.00    +0.000 OA
BRANCH  15  16
ATOM     16  C   UNL     1       1.811   7.805  20.072  0.00  0.00    +0.000 A 
ATOM     17  C   UNL     1       1.644   8.753  19.065  0.00  0.00    +0.000 A 
ATOM     18  C   UNL     1       0.878   9.899  19.290  0.00  0.00    +0.000 A 
ATOM     19  C   UNL     1       0.271  10.120  20.535  0.00  0.00    +0.000 A 
ATOM     20  C   UNL     1      -0.538  11.242  20.772  0.00  0.00    +0.000 A 
ATOM     21  C   UNL     1      -1.126  11.448  22.022  0.00  0.00    +0.000 A 
ATOM     22  C   UNL     1      -0.891  10.549  23.058  0.00  0.00    +0.000 A 
ATOM     23  C   UNL     1      -0.097   9.424  22.836  0.00  0.00    +0.000 A 
ATOM     24  C   UNL     1       0.474   9.185  21.575  0.00  0.00    +0.000 A 
ATOM     25  C   UNL     1       1.237   8.032  21.327  0.00  0.00    +0.000 A 
ENDBRANCH  15  16
ENDBRANCH  14  15
ENDBRANCH   1  14
TORSDOF 8
ENDMDL
MODEL 6
REMARK VINA RESULT:      -6.8      2.077      6.543
REMARK  Name = 
REMARK  9 active torsions:
REMARK  status: ('A' for Active; 'I' for Inactive)
REMARK    1  A    between atoms: C_1  and  O_2
REMARK    2  A    between atoms: O_2  and  C_3
REMARK    3  A    between atoms: C_7  and  C_8
REMARK    4  A    between atoms: C_8  and  N_9
REMARK    5  A    between atoms: N_9  and  C_10
REMARK    6  A    between atoms: C_10  and  C_11
REMARK    7  A    between atoms: C_11  and  C_12
REMARK    8  A    between atoms: C_12  and  O_13
REMARK    9  A    between atoms: O_13  and  C_14
REMARK                            x       y       z     vdW  Elec       q    Type
REMARK                         _______ _______ _______ _____ _____    ______ ____
ROOT
ATOM      1  C   UNL     1       6.214   5.712  16.265  0.00  0.00    +0.000 C 
ENDROOT
BRANCH   1   2
ATOM      2  C   UNL     1       5.475   7.021  16.561  0.00  0.00    +0.000 C 
BRANCH   2   3
ATOM      3  N   UNL     1       4.666   6.916  17.772  0.00  0.00    +0.000 NA
ATOM      4  H   UNL     1       4.891   6.070  18.294  0.00  0.00    +0.000 HD
BRANCH   3   5
ATOM      5  C   UNL     1       3.237   6.885  17.469  0.00  0.00    +0.000 C 
BRANCH   5  10
ATOM      6  C   UNL     1       1.157   9.414  19.437  0.00  0.00    +0.000 A 
ATOM      7  C   UNL     1       1.000   8.741  20.651  0.00  0.00    +0.000 A 
ATOM      8  C   UNL     1       1.543   7.471  20.834  0.00  0.00    +0.000 A 
ATOM      9  C   UNL     1       2.260   6.868  19.802  0.00  0.00    +0.000 A 
ATOM     10  C   UNL     1       2.439   7.531  18.578  0.00  0.00    +0.000 A 
ATOM     11  C   UNL     1       1.873   8.804  18.403  0.00  0.00    +0.000 A 
BRANCH   6  13
ATOM     12  C   UNL     1      -0.792  10.732  19.764  0.00  0.00    +0.000 C 
ATOM     13  O   UNL     1       0.577  10.652  19.389  0.00  0.00    +0.000 OA
ENDBRANCH   6  13
ENDBRANCH   5  10
ENDBRANCH   3   5
ENDBRANCH   2   3
ENDBRANCH   1   2
BRANCH   1  14
ATOM     14  C   UNL     1       5.321   4.670  15.599  0.00  0.00    +0.000 C 
BRANCH  14  15
ATOM     15  O   UNL     1       5.284   3.498  16.411  0.00  0.00    +0.000 OA
BRANCH  15  16
ATOM     16  C   UNL     1       4.257   3.430  17.317  0.00  0.00    +0.000 A 
ATOM     17  C   UNL     1       2.981   3.539  16.768  0.00  0.00    +0.000 A 
ATOM     18  C   UNL     1       1.849   3.453  17.582  0.00  0.00    +0.000 A 
ATOM     19  C   UNL     1       1.978   3.264  18.966  0.00  0.00    +0.000 A 
ATOM     20  C   UNL     1       0.856   3.131  19.799  0.00  0.00    +0.000 A 
ATOM     21  C   UNL     1       1.005   2.952  21.176  0.00  0.00    +0.000 A 
ATOM     22  C   UNL     1       2.277   2.929  21.740  0.00  0.00    +0.000 A 
ATOM     23  C   UNL     1       3.402   3.050  20.926  0.00  0.00    +0.000 A 
ATOM     24  C   UNL     1       3.270   3.198  19.535  0.00  0.00    +0.000 A 
ATOM     25  C   UNL     1       4.396   3.274  18.699  0.00  0.00    +0.000 A 
ENDBRANCH  15  16
ENDBRANCH  14  15
ENDBRANCH   1  14
TORSDOF 8
ENDMDL
MODEL 7
REMARK VINA RESULT:      -6.6      5.239      7.605
REMARK  Name = 
REMARK  9 active torsions:
REMARK  status: ('A' for Active; 'I' for Inactive)
REMARK    1  A    between atoms: C_1  and  O_2
REMARK    2  A    between atoms: O_2  and  C_3
REMARK    3  A    between atoms: C_7  and  C_8
REMARK    4  A    between atoms: C_8  and  N_9
REMARK    5  A    between atoms: N_9  and  C_10
REMARK    6  A    between atoms: C_10  and  C_11
REMARK    7  A    between atoms: C_11  and  C_12
REMARK    8  A    between atoms: C_12  and  O_13
REMARK    9  A    between atoms: O_13  and  C_14
REMARK                            x       y       z     vdW  Elec       q    Type
REMARK                         _______ _______ _______ _____ _____    ______ ____
ROOT
ATOM      1  C   UNL     1       8.199   6.769  18.379  0.00  0.00    +0.000 C 
ENDROOT
BRANCH   1   2
ATOM      2  C   UNL     1       7.825   8.167  17.877  0.00  0.00    +0.000 C 
BRANCH   2   3
ATOM      3  N   UNL     1       8.568   9.206  18.584  0.00  0.00    +0.000 NA
ATOM      4  H   UNL     1       8.092   9.479  19.444  0.00  0.00    +0.000 HD
BRANCH   3   5
ATOM      5  C   UNL     1       8.733  10.406  17.768  0.00  0.00    +0.000 C 
BRANCH   5  10
ATOM      6  C   UNL     1      10.485  13.685  18.647  0.00  0.00    +0.000 A 
ATOM      7  C   UNL     1      11.194  13.310  19.791  0.00  0.00    +0.000 A 
ATOM      8  C   UNL     1      11.097  12.012  20.292  0.00  0.00    +0.000 A 
ATOM      9  C   UNL     1      10.295  11.076  19.641  0.00  0.00    +0.000 A 
ATOM     10  C   UNL     1       9.583  11.430  18.485  0.00  0.00    +0.000 A 
ATOM     11  C   UNL     1       9.679  12.745  18.001  0.00  0.00    +0.000 A 
BRANCH   6  13
ATOM     12  C   UNL     1      11.491  15.207  17.124  0.00  0.00    +0.000 C 
ATOM     13  O   UNL     1      10.668  14.985  18.261  0.00  0.00    +0.000 OA
ENDBRANCH   6  13
ENDBRANCH   5  10
ENDBRANCH   3   5
ENDBRANCH   2   3
ENDBRANCH   1   2
BRANCH   1  14
ATOM     14  C   UNL     1       6.984   5.956  18.815  0.00  0.00    +0.000 C 
BRANCH  14  15
ATOM     15  O   UNL     1       5.936   6.134  17.862  0.00  0.00    +0.000 OA
BRANCH  15  16
ATOM     16  C   UNL     1       4.797   5.403  18.084  0.00  0.00    +0.000 A 
ATOM     17  C   UNL     1       4.399   4.597  17.019  0.00  0.00    +0.000 A 
ATOM     18  C   UNL     1       3.272   3.779  17.132  0.00  0.00    +0.000 A 
ATOM     19  C   UNL     1       2.518   3.762  18.315  0.00  0.00    +0.000 A 
ATOM     20  C   UNL     1       1.408   2.916  18.467  0.00  0.00    +0.000 A 
ATOM     21  C   UNL     1       0.664   2.921  19.649  0.00  0.00    +0.000 A 
ATOM     22  C   UNL     1       1.006   3.786  20.683  0.00  0.00    +0.000 A 
ATOM     23  C   UNL     1       2.112   4.626  20.551  0.00  0.00    +0.000 A 
ATOM     24  C   UNL     1       2.890   4.610  19.381  0.00  0.00    +0.000 A 
ATOM     25  C   UNL     1       4.033   5.416  19.254  0.00  0.00    +0.000 A 
ENDBRANCH  15  16
ENDBRANCH  14  15
ENDBRANCH   1  14
TORSDOF 8
ENDMDL
MODEL 8
REMARK VINA RESULT:      -6.6      5.256      7.969
REMARK  Name = 
REMARK  9 active torsions:
REMARK  status: ('A' for Active; 'I' for Inactive)
REMARK    1  A    between atoms: C_1  and  O_2
REMARK    2  A    between atoms: O_2  and  C_3
REMARK    3  A    between atoms: C_7  and  C_8
REMARK    4  A    between atoms: C_8  and  N_9
REMARK    5  A    between atoms: N_9  and  C_10
REMARK    6  A    between atoms: C_10  and  C_11
REMARK    7  A    between atoms: C_11  and  C_12
REMARK    8  A    between atoms: C_12  and  O_13
REMARK    9  A    between atoms: O_13  and  C_14
REMARK                            x       y       z     vdW  Elec       q    Type
REMARK                         _______ _______ _______ _____ _____    ______ ____
ROOT
ATOM      1  C   UNL     1       7.844   7.305  18.070  0.00  0.00    +0.000 C 
ENDROOT
BRANCH   1   2
ATOM      2  C   UNL     1       7.153   6.777  16.808  0.00  0.00    +0.000 C 
BRANCH   2   3
ATOM      3  N   UNL     1       6.378   5.572  17.087  0.00  0.00    +0.000 NA
ATOM      4  H   UNL     1       5.669   5.416  16.370  0.00  0.00    +0.000 HD
BRANCH   3   5
ATOM      5  C   UNL     1       5.695   5.651  18.376  0.00  0.00    +0.000 C 
BRANCH   5  10
ATOM      6  C   UNL     1       2.381   4.088  19.459  0.00  0.00    +0.000 A 
ATOM      7  C   UNL     1       2.008   3.420  18.290  0.00  0.00    +0.000 A 
ATOM      8  C   UNL     1       2.808   3.484  17.150  0.00  0.00    +0.000 A 
ATOM      9  C   UNL     1       3.996   4.212  17.177  0.00  0.00    +0.000 A 
ATOM     10  C   UNL     1       4.394   4.882  18.343  0.00  0.00    +0.000 A 
ATOM     11  C   UNL     1       3.571   4.821  19.480  0.00  0.00    +0.000 A 
BRANCH   6  13
ATOM     12  C   UNL     1       2.033   3.384  21.701  0.00  0.00    +0.000 C 
ATOM     13  O   UNL     1       1.510   3.944  20.504  0.00  0.00    +0.000 OA
ENDBRANCH   6  13
ENDBRANCH   5  10
ENDBRANCH   3   5
ENDBRANCH   2   3
ENDBRANCH   1   2
BRANCH   1  14
ATOM     14  C   UNL     1       8.259   8.767  17.944  0.00  0.00    +0.000 C 
BRANCH  14  15
ATOM     15  O   UNL     1       8.729   9.230  19.210  0.00  0.00    +0.000 OA
BRANCH  15  16
ATOM     16  C   UNL     1       9.466  10.386  19.187  0.00  0.00    +0.000 A 
ATOM     17  C   UNL     1       9.785  10.904  20.441  0.00  0.00    +0.000 A 
ATOM     18  C   UNL     1      10.560  12.061  20.553  0.00  0.00    +0.000 A 
ATOM     19  C   UNL     1      11.023  12.724  19.407  0.00  0.00    +0.000 A 
ATOM     20  C   UNL     1      11.839  13.863  19.495  0.00  0.00    +0.000 A 
ATOM     21  C   UNL     1      12.281  14.515  18.342  0.00  0.00    +0.000 A 
ATOM     22  C   UNL     1      11.894  14.052  17.088  0.00  0.00    +0.000 A 
ATOM     23  C   UNL     1      11.091  12.917  16.984  0.00  0.00    +0.000 A 
ATOM     24  C   UNL     1      10.665  12.230  18.133  0.00  0.00    +0.000 A 
ATOM     25  C   UNL     1       9.895  11.059  18.040  0.00  0.00    +0.000 A 
ENDBRANCH  15  16
ENDBRANCH  14  15
ENDBRANCH   1  14
TORSDOF 8
ENDMDL
MODEL 9
REMARK VINA RESULT:      -6.6      5.230      7.492
REMARK  Name = 
REMARK  9 active torsions:
REMARK  status: ('A' for Active; 'I' for Inactive)
REMARK    1  A    between atoms: C_1  and  O_2
REMARK    2  A    between atoms: O_2  and  C_3
REMARK    3  A    between atoms: C_7  and  C_8
REMARK    4  A    between atoms: C_8  and  N_9
REMARK    5  A    between atoms: N_9  and  C_10
REMARK    6  A    between atoms: C_10  and  C_11
REMARK    7  A    between atoms: C_11  and  C_12
REMARK    8  A    between atoms: C_12  and  O_13
REMARK    9  A    between atoms: O_13  and  C_14
REMARK                            x       y       z     vdW  Elec       q    Type
REMARK                         _______ _______ _______ _____ _____    ______ ____
ROOT
ATOM      1  C   UNL     1       6.790   7.363  17.848  0.00  0.00    +0.000 C 
ENDROOT
BRANCH   1   2
ATOM      2  C   UNL     1       8.130   8.080  17.660  0.00  0.00    +0.000 C 
BRANCH   2   3
ATOM      3  N   UNL     1       8.001   9.519  17.870  0.00  0.00    +0.000 NA
ATOM      4  H   UNL     1       8.135  10.032  16.999  0.00  0.00    +0.000 HD
BRANCH   3   5
ATOM      5  C   UNL     1       8.981  10.018  18.833  0.00  0.00    +0.000 C 
BRANCH   5  10
ATOM      6  C   UNL     1       9.375  13.708  17.927  0.00  0.00    +0.000 A 
ATOM      7  C   UNL     1      10.686  13.724  17.442  0.00  0.00    +0.000 A 
ATOM      8  C   UNL     1      11.449  12.558  17.422  0.00  0.00    +0.000 A 
ATOM      9  C   UNL     1      10.899  11.362  17.878  0.00  0.00    +0.000 A 
ATOM     10  C   UNL     1       9.583  11.321  18.360  0.00  0.00    +0.000 A 
ATOM     11  C   UNL     1       8.830  12.507  18.389  0.00  0.00    +0.000 A 
BRANCH   6  13
ATOM     12  C   UNL     1       8.953  15.789  18.994  0.00  0.00    +0.000 C 
ATOM     13  O   UNL     1       8.737  14.918  17.891  0.00  0.00    +0.000 OA
ENDBRANCH   6  13
ENDBRANCH   5  10
ENDBRANCH   3   5
ENDBRANCH   2   3
ENDBRANCH   1   2
BRANCH   1  14
ATOM     14  C   UNL     1       6.602   6.206  16.872  0.00  0.00    +0.000 C 
BRANCH  14  15
ATOM     15  O   UNL     1       5.252   6.200  16.408  0.00  0.00    +0.000 OA
BRANCH  15  16
ATOM     16  C   UNL     1       4.386   5.392  17.098  0.00  0.00    +0.000 A 
ATOM     17  C   UNL     1       4.340   4.070  16.659  0.00  0.00    +0.000 A 
ATOM     18  C   UNL     1       3.520   3.138  17.301  0.00  0.00    +0.000 A 
ATOM     19  C   UNL     1       2.726   3.519  18.393  0.00  0.00    +0.000 A 
ATOM     20  C   UNL     1       1.928   2.592  19.081  0.00  0.00    +0.000 A 
ATOM     21  C   UNL     1       1.136   2.992  20.159  0.00  0.00    +0.000 A 
ATOM     22  C   UNL     1       1.113   4.329  20.547  0.00  0.00    +0.000 A 
ATOM     23  C   UNL     1       1.907   5.260  19.879  0.00  0.00    +0.000 A 
ATOM     24  C   UNL     1       2.734   4.867  18.814  0.00  0.00    +0.000 A 
ATOM     25  C   UNL     1       3.573   5.787  18.164  0.00  0.00    +0.000 A 
ENDBRANCH  15  16
ENDBRANCH  14  15
ENDBRANCH   1  14
TORSDOF 8
ENDMDL
