MODEL 1
REMARK VINA RESULT:      -8.4      0.000      0.000
REMARK  Name = 
REMARK  8 active torsions:
REMARK  status: ('A' for Active; 'I' for Inactive)
REMARK    1  A    between atoms: C_1  and  C_2
REMARK    2  A    between atoms: C_2  and  C_3
REMARK    3  A    between atoms: C_10  and  N_11
REMARK    4  A    between atoms: N_11  and  C_12
REMARK    5  A    between atoms: C_12  and  N_14
REMARK    6  A    between atoms: N_14  and  C_15
REMARK    7  A    between atoms: C_18  and  O_19
REMARK    8  A    between atoms: O_19  and  C_20
REMARK                            x       y       z     vdW  Elec       q    Type
REMARK                         _______ _______ _______ _____ _____    ______ ____
ROOT
ATOM      1  C   UNL     1       7.033   5.497  16.784  0.00  0.00    +0.000 C 
ATOM      2  S   UNL     1       7.840   4.723  18.035  0.00  0.00    +0.000 S 
ENDROOT
BRANCH   1   3
ATOM      3  N   UNL     1       5.950   6.264  17.122  0.00  0.00    +0.000 N 
ATOM      4  H   UNL     1       6.146   7.260  17.094  0.00  0.00    +0.000 HD
BRANCH   3  14
ATOM      5  C   UNL     1       3.137   1.693  18.148  0.00  0.00    +0.000 C 
ATOM      6  C   UNL     1       3.302   2.675  19.326  0.00  0.00    +0.000 C 
ATOM      7  C   UNL     1       4.532   2.244  20.152  0.00  0.00    +0.000 C 
ATOM      8  C   UNL     1       2.073   2.600  20.257  0.00  0.00    +0.000 C 
ATOM      9  C   UNL     1       0.881   3.293  19.622  0.00  0.00    +0.000 C 
ATOM     10  O   UNL     1       1.131   4.683  19.435  0.00  0.00    +0.000 OA
ATOM     11  C   UNL     1       2.347   4.988  18.894  0.00  0.00    +0.000 A 
ATOM     12  C   UNL     1       2.463   6.302  18.448  0.00  0.00    +0.000 A 
ATOM     13  C   UNL     1       3.649   6.753  17.876  0.00  0.00    +0.000 A 
ATOM     14  C   UNL     1       4.740   5.897  17.751  0.00  0.00    +0.000 A 
ATOM     15  C   UNL     1       4.615   4.570  18.196  0.00  0.00    +0.000 A 
ATOM     16  C   UNL     1       3.428   4.101  18.798  0.00  0.00    +0.000 A 
ENDBRANCH   3  14
ENDBRANCH   1   3
BRANCH   1  17
ATOM     17  N   UNL     1       7.433   5.529  15.474  0.00  0.00    +0.000 N 
ATOM     18  H   UNL     1       8.371   5.879  15.326  0.00  0.00    +0.000 HD
BRANCH  17  19
ATOM     19  C   UNL     1       6.807   4.866  14.389  0.00  0.00    +0.000 A 
ATOM     20  C   UNL     1       5.539   4.306  14.533  0.00  0.00    +0.000 A 
ATOM     21  C   UNL     1       4.951   3.625  13.469  0.00  0.00    +0.000 A 
ATOM     22  C   UNL     1       5.605   3.509  12.240  0.00  0.00    +0.000 A 
ATOM     23  C   UNL     1       6.850   4.115  12.079  0.00  0.00    +0.000 A 
ATOM     24  C   UNL     1       7.434   4.824  13.145  0.00  0.00    +0.000 A 
BRANCH  22  25
ATOM     25  O   UNL     1       4.926   2.749  11.344  0.00  0.00    +0.000 OA
BRANCH  25  26
ATOM     26  C   UNL     1       3.713   3.195  10.770  0.00  0.00    +0.000 C 
ATOM     27  F   UNL     1       3.619   4.536  10.658  0.00  0.00    +0.000 F 
ATOM     28  F   UNL     1       3.551   2.636   9.552  0.00  0.00    +0.000 F 
ATOM     29  F   UNL     1       2.699   2.775  11.561  0.00  0.00    +0.000 F 
ENDBRANCH  25  26
ENDBRANCH  22  25
ENDBRANCH  17  19
ENDBRANCH   1  17
TORSDOF 6
ENDMDL
MODEL 2
REMARK VINA RESULT:      -8.3      1.650      1.840
REMARK  Name = 
REMARK  8 active torsions:
REMARK  status: ('A' for Active; 'I' for Inactive)
REMARK    1  A    between atoms: C_1  and  C_2
REMARK    2  A    between atoms: C_2  and  C_3
REMARK    3  A    between atoms: C_10  and  N_11
REMARK    4  A    between atoms: N_11  and  C_12
REMARK    5  A    between atoms: C_12  and  N_14
REMARK    6  A    between atoms: N_14  and  C_15
REMARK    7  A    between atoms: C_18  and  O_19
REMARK    8  A    between atoms: O_19  and  C_20
REMARK                            x       y       z     vdW  Elec       q    Type
REMARK                         _______ _______ _______ _____ _____    ______ ____
ROOT
ATOM      1  C   UNL     1       6.777   6.517  16.629  0.00  0.00    +0.000 C 
ATOM      2  S   UNL     1       7.490   7.791  17.456  0.00  0.00    +0.000 S 
ENDROOT
BRANCH   1   3
ATOM      3  N   UNL     1       5.415   6.548  16.491  0.00  0.00    +0.000 N 
ATOM      4  H   UNL     1       5.112   7.038  15.654  0.00  0.00    +0.000 HD
BRANCH   3  14
ATOM      5  C   UNL     1       2.537   2.223  18.186  0.00  0.00    +0.000 C 
ATOM      6  C   UNL     1       3.135   3.123  19.287  0.00  0.00    +0.000 C 
ATOM      7  C   UNL     1       4.495   2.533  19.714  0.00  0.00    +0.000 C 
ATOM      8  C   UNL     1       2.221   3.119  20.532  0.00  0.00    +0.000 C 
ATOM      9  C   UNL     1       0.979   3.955  20.283  0.00  0.00    +0.000 C 
ATOM     10  O   UNL     1       1.313   5.322  20.061  0.00  0.00    +0.000 OA
ATOM     11  C   UNL     1       2.350   5.536  19.199  0.00  0.00    +0.000 A 
ATOM     12  C   UNL     1       2.475   6.855  18.767  0.00  0.00    +0.000 A 
ATOM     13  C   UNL     1       3.490   7.217  17.887  0.00  0.00    +0.000 A 
ATOM     14  C   UNL     1       4.402   6.268  17.434  0.00  0.00    +0.000 A 
ATOM     15  C   UNL     1       4.267   4.938  17.867  0.00  0.00    +0.000 A 
ATOM     16  C   UNL     1       3.258   4.555  18.776  0.00  0.00    +0.000 A 
ENDBRANCH   3  14
ENDBRANCH   1   3
BRANCH   1  17
ATOM     17  N   UNL     1       7.445   5.516  15.973  0.00  0.00    +0.000 N 
ATOM     18  H   UNL     1       8.189   5.083  16.506  0.00  0.00    +0.000 HD
BRANCH  17  19
ATOM     19  C   UNL     1       7.017   4.853  14.796  0.00  0.00    +0.000 A 
ATOM     20  C   UNL     1       5.996   3.905  14.843  0.00  0.00    +0.000 A 
ATOM     21  C   UNL     1       5.611   3.234  13.685  0.00  0.00    +0.000 A 
ATOM     22  C   UNL     1       6.220   3.510  12.458  0.00  0.00    +0.000 A 
ATOM     23  C   UNL     1       7.204   4.495  12.401  0.00  0.00    +0.000 A 
ATOM     24  C   UNL     1       7.577   5.192  13.565  0.00  0.00    +0.000 A 
BRANCH  22  25
ATOM     25  O   UNL     1       5.780   2.712  11.453  0.00  0.00    +0.000 OA
BRANCH  25  26
ATOM     26  C   UNL     1       6.474   1.535  11.089  0.00  0.00    +0.000 C 
ATOM     27  F   UNL     1       7.737   1.475  11.557  0.00  0.00    +0.000 F 
ATOM     28  F   UNL     1       5.791   0.452  11.516  0.00  0.00    +0.000 F 
ATOM     29  F   UNL     1       6.532   1.487   9.738  0.00  0.00    +0.000 F 
ENDBRANCH  25  26
ENDBRANCH  22  25
ENDBRANCH  17  19
ENDBRANCH   1  17
TORSDOF 6
ENDMDL
MODEL 3
REMARK VINA RESULT:      -8.1      1.547      1.920
REMARK  Name = 
REMARK  8 active torsions:
REMARK  status: ('A' for Active; 'I' for Inactive)
REMARK    1  A    between atoms: C_1  and  C_2
REMARK    2  A    between atoms: C_2  and  C_3
REMARK    3  A    between atoms: C_10  and  N_11
REMARK    4  A    between atoms: N_11  and  C_12
REMARK    5  A    between atoms: C_12  and  N_14
REMARK    6  A    between atoms: N_14  and  C_15
REMARK    7  A    between atoms: C_18  and  O_19
REMARK    8  A    between atoms: O_19  and  C_20
REMARK                            x       y       z     vdW  Elec       q    Type
REMARK                         _______ _______ _______ _____ _____    ______ ____
ROOT
ATOM      1  C   UNL     1       6.855   6.160  16.890  0.00  0.00    +0.000 C 
ATOM      2  S   UNL     1       7.555   6.392  18.397  0.00  0.00    +0.000 S 
ENDROOT
BRANCH   1   3
ATOM      3  N   UNL     1       5.505   6.374  16.790  0.00  0.00    +0.000 N 
ATOM      4  H   UNL     1       5.261   7.017  16.043  0.00  0.00    +0.000 HD
BRANCH   3  14
ATOM      5  C   UNL     1       2.398   2.090  18.150  0.00  0.00    +0.000 C 
ATOM      6  C   UNL     1       3.029   2.876  19.317  0.00  0.00    +0.000 C 
ATOM      7  C   UNL     1       4.354   2.189  19.707  0.00  0.00    +0.000 C 
ATOM      8  C   UNL     1       2.104   2.829  20.551  0.00  0.00    +0.000 C 
ATOM      9  C   UNL     1       0.908   3.743  20.356  0.00  0.00    +0.000 C 
ATOM     10  O   UNL     1       1.312   5.104  20.236  0.00  0.00    +0.000 OA
ATOM     11  C   UNL     1       2.368   5.326  19.399  0.00  0.00    +0.000 A 
ATOM     12  C   UNL     1       2.562   6.664  19.064  0.00  0.00    +0.000 A 
ATOM     13  C   UNL     1       3.603   7.038  18.219  0.00  0.00    +0.000 A 
ATOM     14  C   UNL     1       4.471   6.078  17.704  0.00  0.00    +0.000 A 
ATOM     15  C   UNL     1       4.265   4.729  18.039  0.00  0.00    +0.000 A 
ATOM     16  C   UNL     1       3.229   4.334  18.911  0.00  0.00    +0.000 A 
ENDBRANCH   3  14
ENDBRANCH   1   3
BRANCH   1  17
ATOM     17  N   UNL     1       7.530   5.896  15.727  0.00  0.00    +0.000 N 
ATOM     18  H   UNL     1       8.505   6.168  15.732  0.00  0.00    +0.000 HD
BRANCH  17  19
ATOM     19  C   UNL     1       7.097   5.044  14.681  0.00  0.00    +0.000 A 
ATOM     20  C   UNL     1       7.610   5.182  13.392  0.00  0.00    +0.000 A 
ATOM     21  C   UNL     1       7.149   4.362  12.364  0.00  0.00    +0.000 A 
ATOM     22  C   UNL     1       6.187   3.379  12.606  0.00  0.00    +0.000 A 
ATOM     23  C   UNL     1       5.713   3.204  13.906  0.00  0.00    +0.000 A 
ATOM     24  C   UNL     1       6.196   4.015  14.949  0.00  0.00    +0.000 A 
BRANCH  22  25
ATOM     25  O   UNL     1       5.796   2.726  11.482  0.00  0.00    +0.000 OA
BRANCH  25  26
ATOM     26  C   UNL     1       6.418   1.524  11.075  0.00  0.00    +0.000 C 
ATOM     27  F   UNL     1       6.327   1.279   9.752  0.00  0.00    +0.000 F 
ATOM     28  F   UNL     1       7.719   1.539  11.435  0.00  0.00    +0.000 F 
ATOM     29  F   UNL     1       5.815   0.502  11.726  0.00  0.00    +0.000 F 
ENDBRANCH  25  26
ENDBRANCH  22  25
ENDBRANCH  17  19
ENDBRANCH   1  17
TORSDOF 6
ENDMDL
MODEL 4
REMARK VINA RESULT:      -8.1      0.401      1.259
REMARK  Name = 
REMARK  8 active torsions:
REMARK  status: ('A' for Active; 'I' for Inactive)
REMARK    1  A    between atoms: C_1  and  C_2
REMARK    2  A    between atoms: C_2  and  C_3
REMARK    3  A    between atoms: C_10  and  N_11
REMARK    4  A    between atoms: N_11  and  C_12
REMARK    5  A    between atoms: C_12  and  N_14
REMARK    6  A    between atoms: N_14  and  C_15
REMARK    7  A    between atoms: C_18  and  O_19
REMARK    8  A    between atoms: O_19  and  C_20
REMARK                            x       y       z     vdW  Elec       q    Type
REMARK                         _______ _______ _______ _____ _____    ______ ____
ROOT
ATOM      1  C   UNL     1       6.893   5.994  16.781  0.00  0.00    +0.000 C 
ATOM      2  S   UNL     1       7.708   5.887  18.244  0.00  0.00    +0.000 S 
ENDROOT
BRANCH   1   3
ATOM      3  N   UNL     1       5.630   6.522  16.809  0.00  0.00    +0.000 N 
ATOM      4  H   UNL     1       5.568   7.425  16.349  0.00  0.00    +0.000 HD
BRANCH   3  14
ATOM      5  C   UNL     1       2.858   1.980  18.052  0.00  0.00    +0.000 C 
ATOM      6  C   UNL     1       3.218   2.907  19.231  0.00  0.00    +0.000 C 
ATOM      7  C   UNL     1       4.541   2.411  19.853  0.00  0.00    +0.000 C 
ATOM      8  C   UNL     1       2.134   2.821  20.326  0.00  0.00    +0.000 C 
ATOM      9  C   UNL     1       0.885   3.569  19.897  0.00  0.00    +0.000 C 
ATOM     10  O   UNL     1       1.147   4.959  19.730  0.00  0.00    +0.000 OA
ATOM     11  C   UNL     1       2.282   5.258  19.032  0.00  0.00    +0.000 A 
ATOM     12  C   UNL     1       2.371   6.587  18.625  0.00  0.00    +0.000 A 
ATOM     13  C   UNL     1       3.476   7.033  17.906  0.00  0.00    +0.000 A 
ATOM     14  C   UNL     1       4.512   6.158  17.591  0.00  0.00    +0.000 A 
ATOM     15  C   UNL     1       4.412   4.816  17.997  0.00  0.00    +0.000 A 
ATOM     16  C   UNL     1       3.311   4.351  18.746  0.00  0.00    +0.000 A 
ENDBRANCH   3  14
ENDBRANCH   1   3
BRANCH   1  17
ATOM     17  N   UNL     1       7.423   5.716  15.548  0.00  0.00    +0.000 N 
ATOM     18  H   UNL     1       8.413   5.912  15.459  0.00  0.00    +0.000 HD
BRANCH  17  19
ATOM     19  C   UNL     1       6.821   4.933  14.533  0.00  0.00    +0.000 A 
ATOM     20  C   UNL     1       7.335   4.928  13.238  0.00  0.00    +0.000 A 
ATOM     21  C   UNL     1       6.710   4.182  12.240  0.00  0.00    +0.000 A 
ATOM     22  C   UNL     1       5.578   3.414  12.520  0.00  0.00    +0.000 A 
ATOM     23  C   UNL     1       5.095   3.375  13.827  0.00  0.00    +0.000 A 
ATOM     24  C   UNL     1       5.740   4.108  14.841  0.00  0.00    +0.000 A 
BRANCH  22  25
ATOM     25  O   UNL     1       5.054   2.816  11.420  0.00  0.00    +0.000 OA
BRANCH  25  26
ATOM     26  C   UNL     1       3.817   3.231  10.875  0.00  0.00    +0.000 C 
ATOM     27  F   UNL     1       2.744   2.638  11.435  0.00  0.00    +0.000 F 
ATOM     28  F   UNL     1       3.694   4.571  10.992  0.00  0.00    +0.000 F 
ATOM     29  F   UNL     1       3.818   2.924   9.558  0.00  0.00    +0.000 F 
ENDBRANCH  25  26
ENDBRANCH  22  25
ENDBRANCH  17  19
ENDBRANCH   1  17
TORSDOF 6
ENDMDL
MODEL 5
REMARK VINA RESULT:      -8.0      6.301      8.674
REMARK  Name = 
REMARK  8 active torsions:
REMARK  status: ('A' for Active; 'I' for Inactive)
REMARK    1  A    between atoms: C_1  and  C_2
REMARK    2  A    between atoms: C_2  and  C_3
REMARK    3  A    between atoms: C_10  and  N_11
REMARK    4  A    between atoms: N_11  and  C_12
REMARK    5  A    between atoms: C_12  and  N_14
REMARK    6  A    between atoms: N_14  and  C_15
REMARK    7  A    between atoms: C_18  and  O_19
REMARK    8  A    between atoms: O_19  and  C_20
REMARK                            x       y       z     vdW  Elec       q    Type
REMARK                         _______ _______ _______ _____ _____    ______ ____
ROOT
ATOM      1  C   UNL     1       0.946   8.974  20.932  0.00  0.00    +0.000 C 
ATOM      2  S   UNL     1      -0.224   8.851  22.128  0.00  0.00    +0.000 S 
ENDROOT
BRANCH   1   3
ATOM      3  N   UNL     1       1.910   8.001  20.899  0.00  0.00    +0.000 N 
ATOM      4  H   UNL     1       2.629   8.133  21.603  0.00  0.00    +0.000 HD
BRANCH   3  14
ATOM      5  C   UNL     1       3.163   2.691  20.604  0.00  0.00    +0.000 C 
ATOM      6  C   UNL     1       2.081   3.195  19.627  0.00  0.00    +0.000 C 
ATOM      7  C   UNL     1       0.697   2.954  20.265  0.00  0.00    +0.000 C 
ATOM      8  C   UNL     1       2.131   2.384  18.314  0.00  0.00    +0.000 C 
ATOM      9  C   UNL     1       3.325   2.800  17.476  0.00  0.00    +0.000 C 
ATOM     10  O   UNL     1       3.226   4.164  17.076  0.00  0.00    +0.000 OA
ATOM     11  C   UNL     1       2.866   5.036  18.064  0.00  0.00    +0.000 A 
ATOM     12  C   UNL     1       3.056   6.377  17.742  0.00  0.00    +0.000 A 
ATOM     13  C   UNL     1       2.731   7.376  18.655  0.00  0.00    +0.000 A 
ATOM     14  C   UNL     1       2.200   7.047  19.900  0.00  0.00    +0.000 A 
ATOM     15  C   UNL     1       2.018   5.691  20.222  0.00  0.00    +0.000 A 
ATOM     16  C   UNL     1       2.321   4.666  19.301  0.00  0.00    +0.000 A 
ENDBRANCH   3  14
ENDBRANCH   1   3
BRANCH   1  17
ATOM     17  N   UNL     1       0.952   9.889  19.911  0.00  0.00    +0.000 N 
ATOM     18  H   UNL     1       1.850  10.015  19.461  0.00  0.00    +0.000 HD
BRANCH  17  19
ATOM     19  C   UNL     1      -0.185  10.421  19.254  0.00  0.00    +0.000 A 
ATOM     20  C   UNL     1      -0.879  11.502  19.795  0.00  0.00    +0.000 A 
ATOM     21  C   UNL     1      -2.017  11.992  19.158  0.00  0.00    +0.000 A 
ATOM     22  C   UNL     1      -2.471  11.428  17.964  0.00  0.00    +0.000 A 
ATOM     23  C   UNL     1      -1.748  10.381  17.394  0.00  0.00    +0.000 A 
ATOM     24  C   UNL     1      -0.584   9.902  18.023  0.00  0.00    +0.000 A 
BRANCH  22  25
ATOM     25  O   UNL     1      -3.633  11.974  17.523  0.00  0.00    +0.000 OA
BRANCH  25  26
ATOM     26  C   UNL     1      -4.736  11.166  17.164  0.00  0.00    +0.000 C 
ATOM     27  F   UNL     1      -5.916  11.819  17.157  0.00  0.00    +0.000 F 
ATOM     28  F   UNL     1      -4.525  10.620  15.948  0.00  0.00    +0.000 F 
ATOM     29  F   UNL     1      -4.827  10.160  18.065  0.00  0.00    +0.000 F 
ENDBRANCH  25  26
ENDBRANCH  22  25
ENDBRANCH  17  19
ENDBRANCH   1  17
TORSDOF 6
ENDMDL
MODEL 6
REMARK VINA RESULT:      -8.0      4.664      6.594
REMARK  Name = 
REMARK  8 active torsions:
REMARK  status: ('A' for Active; 'I' for Inactive)
REMARK    1  A    between atoms: C_1  and  C_2
REMARK    2  A    between atoms: C_2  and  C_3
REMARK    3  A    between atoms: C_10  and  N_11
REMARK    4  A    between atoms: N_11  and  C_12
REMARK    5  A    between atoms: C_12  and  N_14
REMARK    6  A    between atoms: N_14  and  C_15
REMARK    7  A    between atoms: C_18  and  O_19
REMARK    8  A    between atoms: O_19  and  C_20
REMARK                            x       y       z     vdW  Elec       q    Type
REMARK                         _______ _______ _______ _____ _____    ______ ____
ROOT
ATOM      1  C   UNL     1       2.134   6.229  19.846  0.00  0.00    +0.000 C 
ATOM      2  S   UNL     1       1.986   4.954  20.927  0.00  0.00    +0.000 S 
ENDROOT
BRANCH   1   3
ATOM      3  N   UNL     1       2.320   7.478  20.377  0.00  0.00    +0.000 N 
ATOM      4  H   UNL     1       3.274   7.640  20.685  0.00  0.00    +0.000 HD
BRANCH   3  14
ATOM      5  C   UNL     1       0.279  12.239  18.637  0.00  0.00    +0.000 C 
ATOM      6  C   UNL     1      -0.744  11.191  19.121  0.00  0.00    +0.000 C 
ATOM      7  C   UNL     1      -1.243  10.395  17.897  0.00  0.00    +0.000 C 
ATOM      8  C   UNL     1      -1.970  11.893  19.745  0.00  0.00    +0.000 C 
ATOM      9  C   UNL     1      -1.626  12.443  21.117  0.00  0.00    +0.000 C 
ATOM     10  O   UNL     1      -1.286  11.398  22.023  0.00  0.00    +0.000 OA
ATOM     11  C   UNL     1      -0.424  10.460  21.531  0.00  0.00    +0.000 A 
ATOM     12  C   UNL     1       0.126   9.622  22.500  0.00  0.00    +0.000 A 
ATOM     13  C   UNL     1       1.020   8.618  22.141  0.00  0.00    +0.000 A 
ATOM     14  C   UNL     1       1.370   8.431  20.806  0.00  0.00    +0.000 A 
ATOM     15  C   UNL     1       0.819   9.284  19.835  0.00  0.00    +0.000 A 
ATOM     16  C   UNL     1      -0.106  10.293  20.177  0.00  0.00    +0.000 A 
ENDBRANCH   3  14
ENDBRANCH   1   3
BRANCH   1  17
ATOM     17  N   UNL     1       2.209   6.117  18.482  0.00  0.00    +0.000 N 
ATOM     18  H   UNL     1       1.539   6.681  17.973  0.00  0.00    +0.000 HD
BRANCH  17  19
ATOM     19  C   UNL     1       3.279   5.553  17.745  0.00  0.00    +0.000 A 
ATOM     20  C   UNL     1       4.334   6.348  17.300  0.00  0.00    +0.000 A 
ATOM     21  C   UNL     1       5.361   5.788  16.544  0.00  0.00    +0.000 A 
ATOM     22  C   UNL     1       5.366   4.425  16.236  0.00  0.00    +0.000 A 
ATOM     23  C   UNL     1       4.339   3.620  16.725  0.00  0.00    +0.000 A 
ATOM     24  C   UNL     1       3.314   4.180  17.510  0.00  0.00    +0.000 A 
BRANCH  22  25
ATOM     25  O   UNL     1       6.395   4.064  15.428  0.00  0.00    +0.000 OA
BRANCH  25  26
ATOM     26  C   UNL     1       6.315   4.210  14.024  0.00  0.00    +0.000 C 
ATOM     27  F   UNL     1       6.634   3.094  13.337  0.00  0.00    +0.000 F 
ATOM     28  F   UNL     1       5.071   4.604  13.676  0.00  0.00    +0.000 F 
ATOM     29  F   UNL     1       7.180   5.182  13.656  0.00  0.00    +0.000 F 
ENDBRANCH  25  26
ENDBRANCH  22  25
ENDBRANCH  17  19
ENDBRANCH   1  17
TORSDOF 6
ENDMDL
MODEL 7
REMARK VINA RESULT:      -8.0      4.758      7.777
REMARK  Name = 
REMARK  8 active torsions:
REMARK  status: ('A' for Active; 'I' for Inactive)
REMARK    1  A    between atoms: C_1  and  C_2
REMARK    2  A    between atoms: C_2  and  C_3
REMARK    3  A    between atoms: C_10  and  N_11
REMARK    4  A    between atoms: N_11  and  C_12
REMARK    5  A    between atoms: C_12  and  N_14
REMARK    6  A    between atoms: N_14  and  C_15
REMARK    7  A    between atoms: C_18  and  O_19
REMARK    8  A    between atoms: O_19  and  C_20
REMARK                            x       y       z     vdW  Elec       q    Type
REMARK                         _______ _______ _______ _____ _____    ______ ____
ROOT
ATOM      1  C   UNL     1       2.178   4.605  20.568  0.00  0.00    +0.000 C 
ATOM      2  S   UNL     1       0.728   3.786  20.362  0.00  0.00    +0.000 S 
ENDROOT
BRANCH   1   3
ATOM      3  N   UNL     1       3.307   4.007  20.073  0.00  0.00    +0.000 N 
ATOM      4  H   UNL     1       3.950   3.711  20.800  0.00  0.00    +0.000 HD
BRANCH   3  14
ATOM      5  C   UNL     1       7.029   6.744  17.154  0.00  0.00    +0.000 C 
ATOM      6  C   UNL     1       7.068   5.206  17.045  0.00  0.00    +0.000 C 
ATOM      7  C   UNL     1       8.091   4.671  18.068  0.00  0.00    +0.000 C 
ATOM      8  C   UNL     1       7.556   4.785  15.642  0.00  0.00    +0.000 C 
ATOM      9  C   UNL     1       6.463   5.001  14.612  0.00  0.00    +0.000 C 
ATOM     10  O   UNL     1       5.329   4.182  14.881  0.00  0.00    +0.000 OA
ATOM     11  C   UNL     1       4.917   4.168  16.183  0.00  0.00    +0.000 A 
ATOM     12  C   UNL     1       3.655   3.611  16.379  0.00  0.00    +0.000 A 
ATOM     13  C   UNL     1       3.110   3.530  17.657  0.00  0.00    +0.000 A 
ATOM     14  C   UNL     1       3.823   3.996  18.759  0.00  0.00    +0.000 A 
ATOM     15  C   UNL     1       5.092   4.563  18.553  0.00  0.00    +0.000 A 
ATOM     16  C   UNL     1       5.671   4.634  17.269  0.00  0.00    +0.000 A 
ENDBRANCH   3  14
ENDBRANCH   1   3
BRANCH   1  17
ATOM     17  N   UNL     1       2.317   5.870  21.075  0.00  0.00    +0.000 N 
ATOM     18  H   UNL     1       2.952   5.944  21.862  0.00  0.00    +0.000 HD
BRANCH  17  19
ATOM     19  C   UNL     1       1.919   7.075  20.446  0.00  0.00    +0.000 A 
ATOM     20  C   UNL     1       1.174   8.028  21.139  0.00  0.00    +0.000 A 
ATOM     21  C   UNL     1       0.757   9.192  20.496  0.00  0.00    +0.000 A 
ATOM     22  C   UNL     1       1.091   9.436  19.162  0.00  0.00    +0.000 A 
ATOM     23  C   UNL     1       1.881   8.508  18.485  0.00  0.00    +0.000 A 
ATOM     24  C   UNL     1       2.324   7.344  19.140  0.00  0.00    +0.000 A 
BRANCH  22  25
ATOM     25  O   UNL     1       0.539  10.575  18.673  0.00  0.00    +0.000 OA
BRANCH  25  26
ATOM     26  C   UNL     1      -0.804  10.612  18.234  0.00  0.00    +0.000 C 
ATOM     27  F   UNL     1      -1.704  10.321  19.194  0.00  0.00    +0.000 F 
ATOM     28  F   UNL     1      -1.083  11.829  17.719  0.00  0.00    +0.000 F 
ATOM     29  F   UNL     1      -0.945   9.698  17.246  0.00  0.00    +0.000 F 
ENDBRANCH  25  26
ENDBRANCH  22  25
ENDBRANCH  17  19
ENDBRANCH   1  17
TORSDOF 6
ENDMDL
MODEL 8
REMARK VINA RESULT:      -7.9      3.762      5.580
REMARK  Name = 
REMARK  8 active torsions:
REMARK  status: ('A' for Active; 'I' for Inactive)
REMARK    1  A    between atoms: C_1  and  C_2
REMARK    2  A    between atoms: C_2  and  C_3
REMARK    3  A    between atoms: C_10  and  N_11
REMARK    4  A    between atoms: N_11  and  C_12
REMARK    5  A    between atoms: C_12  and  N_14
REMARK    6  A    between atoms: N_14  and  C_15
REMARK    7  A    between atoms: C_18  and  O_19
REMARK    8  A    between atoms: O_19  and  C_20
REMARK                            x       y       z     vdW  Elec       q    Type
REMARK                         _______ _______ _______ _____ _____    ______ ____
ROOT
ATOM      1  C   UNL     1       2.737   3.852  19.664  0.00  0.00    +0.000 C 
ATOM      2  S   UNL     1       1.528   2.823  19.122  0.00  0.00    +0.000 S 
ENDROOT
BRANCH   1   3
ATOM      3  N   UNL     1       2.341   4.989  20.318  0.00  0.00    +0.000 N 
ATOM      4  H   UNL     1       1.906   4.799  21.215  0.00  0.00    +0.000 HD
BRANCH   3  14
ATOM      5  C   UNL     1      -0.783   9.355  21.336  0.00  0.00    +0.000 C 
ATOM      6  C   UNL     1       0.731   9.613  21.198  0.00  0.00    +0.000 C 
ATOM      7  C   UNL     1       1.360   9.588  22.607  0.00  0.00    +0.000 C 
ATOM      8  C   UNL     1       0.979  11.018  20.609  0.00  0.00    +0.000 C 
ATOM      9  C   UNL     1       0.667  11.034  19.123  0.00  0.00    +0.000 C 
ATOM     10  O   UNL     1       1.533  10.162  18.404  0.00  0.00    +0.000 OA
ATOM     11  C   UNL     1       1.704   8.925  18.957  0.00  0.00    +0.000 A 
ATOM     12  C   UNL     1       2.304   7.996  18.109  0.00  0.00    +0.000 A 
ATOM     13  C   UNL     1       2.542   6.695  18.542  0.00  0.00    +0.000 A 
ATOM     14  C   UNL     1       2.192   6.307  19.833  0.00  0.00    +0.000 A 
ATOM     15  C   UNL     1       1.580   7.246  20.681  0.00  0.00    +0.000 A 
ATOM     16  C   UNL     1       1.351   8.576  20.267  0.00  0.00    +0.000 A 
ENDBRANCH   3  14
ENDBRANCH   1   3
BRANCH   1  17
ATOM     17  N   UNL     1       4.083   3.598  19.621  0.00  0.00    +0.000 N 
ATOM     18  H   UNL     1       4.413   2.945  20.322  0.00  0.00    +0.000 HD
BRANCH  17  19
ATOM     19  C   UNL     1       4.962   3.904  18.553  0.00  0.00    +0.000 A 
ATOM     20  C   UNL     1       4.698   3.451  17.261  0.00  0.00    +0.000 A 
ATOM     21  C   UNL     1       5.589   3.729  16.227  0.00  0.00    +0.000 A 
ATOM     22  C   UNL     1       6.745   4.478  16.456  0.00  0.00    +0.000 A 
ATOM     23  C   UNL     1       6.983   4.976  17.736  0.00  0.00    +0.000 A 
ATOM     24  C   UNL     1       6.071   4.718  18.776  0.00  0.00    +0.000 A 
BRANCH  22  25
ATOM     25  O   UNL     1       7.537   4.586  15.359  0.00  0.00    +0.000 OA
BRANCH  25  26
ATOM     26  C   UNL     1       6.994   4.855  14.082  0.00  0.00    +0.000 C 
ATOM     27  F   UNL     1       7.839   5.493  13.249  0.00  0.00    +0.000 F 
ATOM     28  F   UNL     1       6.589   3.702  13.506  0.00  0.00    +0.000 F 
ATOM     29  F   UNL     1       5.907   5.643  14.250  0.00  0.00    +0.000 F 
ENDBRANCH  25  26
ENDBRANCH  22  25
ENDBRANCH  17  19
ENDBRANCH   1  17
TORSDOF 6
ENDMDL
MODEL 9
REMARK VINA RESULT:      -7.9      5.060      8.016
REMARK  Name = 
REMARK  8 active torsions:
REMARK  status: ('A' for Active; 'I' for Inactive)
REMARK    1  A    between atoms: C_1  and  C_2
REMARK    2  A    between atoms: C_2  and  C_3
REMARK    3  A    between atoms: C_10  and  N_11
REMARK    4  A    between atoms: N_11  and  C_12
REMARK    5  A    between atoms: C_12  and  N_14
REMARK    6  A    between atoms: N_14  and  C_15
REMARK    7  A    between atoms: C_18  and  O_19
REMARK    8  A    between atoms: O_19  and  C_20
REMARK                            x       y       z     vdW  Elec       q    Type
REMARK                         _______ _______ _______ _____ _____    ______ ____
ROOT
ATOM      1  C   UNL     1       1.886   5.158  20.552  0.00  0.00    +0.000 C 
ATOM      2  S   UNL     1       1.619   3.727  21.386  0.00  0.00    +0.000 S 
ENDROOT
BRANCH   1   3
ATOM      3  N   UNL     1       1.905   5.089  19.184  0.00  0.00    +0.000 N 
ATOM      4  H   UNL     1       0.980   5.164  18.771  0.00  0.00    +0.000 HD
BRANCH   3  14
ATOM      5  C   UNL     1       6.624   7.019  17.219  0.00  0.00    +0.000 C 
ATOM      6  C   UNL     1       6.642   5.569  17.744  0.00  0.00    +0.000 C 
ATOM      7  C   UNL     1       7.110   5.589  19.214  0.00  0.00    +0.000 C 
ATOM      8  C   UNL     1       7.663   4.729  16.947  0.00  0.00    +0.000 C 
ATOM      9  C   UNL     1       7.122   4.404  15.567  0.00  0.00    +0.000 C 
ATOM     10  O   UNL     1       5.948   3.600  15.648  0.00  0.00    +0.000 OA
ATOM     11  C   UNL     1       5.022   4.013  16.562  0.00  0.00    +0.000 A 
ATOM     12  C   UNL     1       3.774   3.408  16.427  0.00  0.00    +0.000 A 
ATOM     13  C   UNL     1       2.734   3.733  17.293  0.00  0.00    +0.000 A 
ATOM     14  C   UNL     1       2.930   4.661  18.312  0.00  0.00    +0.000 A 
ATOM     15  C   UNL     1       4.188   5.275  18.437  0.00  0.00    +0.000 A 
ATOM     16  C   UNL     1       5.261   4.942  17.583  0.00  0.00    +0.000 A 
ENDBRANCH   3  14
ENDBRANCH   1   3
BRANCH   1  17
ATOM     17  N   UNL     1       1.964   6.407  21.111  0.00  0.00    +0.000 N 
ATOM     18  H   UNL     1       2.611   6.484  21.887  0.00  0.00    +0.000 HD
BRANCH  17  19
ATOM     19  C   UNL     1       1.483   7.612  20.543  0.00  0.00    +0.000 A 
ATOM     20  C   UNL     1       0.534   8.384  21.210  0.00  0.00    +0.000 A 
ATOM     21  C   UNL     1       0.042   9.549  20.623  0.00  0.00    +0.000 A 
ATOM     22  C   UNL     1       0.502   9.973  19.375  0.00  0.00    +0.000 A 
ATOM     23  C   UNL     1       1.490   9.231  18.732  0.00  0.00    +0.000 A 
ATOM     24  C   UNL     1       2.006   8.068  19.334  0.00  0.00    +0.000 A 
BRANCH  22  25
ATOM     25  O   UNL     1      -0.139  11.080  18.919  0.00  0.00    +0.000 OA
BRANCH  25  26
ATOM     26  C   UNL     1      -1.388  10.990  18.264  0.00  0.00    +0.000 C 
ATOM     27  F   UNL     1      -1.574  11.918  17.304  0.00  0.00    +0.000 F 
ATOM     28  F   UNL     1      -1.533   9.760  17.724  0.00  0.00    +0.000 F 
ATOM     29  F   UNL     1      -2.358  11.156  19.192  0.00  0.00    +0.000 F 
ENDBRANCH  25  26
ENDBRANCH  22  25
ENDBRANCH  17  19
ENDBRANCH   1  17
TORSDOF 6
ENDMDL
