MODEL 1
REMARK VINA RESULT:      -8.2      0.000      0.000
REMARK  Name = 
REMARK  8 active torsions:
REMARK  status: ('A' for Active; 'I' for Inactive)
REMARK    1  A    between atoms: C_1  and  O_2
REMARK    2  A    between atoms: O_2  and  C_3
REMARK    3  A    between atoms: C_9  and  C_10
REMARK    4  A    between atoms: N_20  and  C1*_21
REMARK    5  A    between atoms: C4*_23  and  C5*_24
REMARK    6  A    between atoms: C5*_24  and  O5*_25
REMARK    7  A    between atoms: C3*_26  and  O3*_27
REMARK    8  A    between atoms: C2*_28  and  O2*_29
REMARK                            x       y       z     vdW  Elec       q    Type
REMARK                         _______ _______ _______ _____ _____    ______ ____
ROOT
ATOM      1  C   UNL     1       2.243   4.098  18.959  0.00  0.00    +0.000 A 
ATOM      2  N   UNL     1       2.523   2.802  18.696  0.00  0.00    +0.000 NA
ATOM      3  C   UNL     1       3.504   2.544  17.815  0.00  0.00    +0.000 A 
ATOM      4  N   UNL     1       4.259   3.422  17.133  0.00  0.00    +0.000 NA
ATOM      5  C   UNL     1       3.938   4.696  17.419  0.00  0.00    +0.000 A 
ATOM      6  C   UNL     1       2.965   5.114  18.323  0.00  0.00    +0.000 A 
ATOM      7  C   UNL     1       3.013   6.537  18.348  0.00  0.00    +0.000 A 
ATOM      8  C   UNL     1       3.941   6.942  17.410  0.00  0.00    +0.000 A 
ATOM      9  N   UNL     1       4.524   5.814  16.875  0.00  0.00    +0.000 N 
ENDROOT
BRANCH   7  10
ATOM     10  C   UNL     1       2.274   7.463  19.249  0.00  0.00    +0.000 A 
ATOM     11  C   UNL     1       2.001   7.270  20.592  0.00  0.00    +0.000 A 
ATOM     12  C   UNL     1       1.185   8.355  21.014  0.00  0.00    +0.000 A 
ATOM     13  C   UNL     1       0.555   8.739  22.208  0.00  0.00    +0.000 A 
ATOM     14  C   UNL     1      -0.222   9.908  22.211  0.00  0.00    +0.000 A 
ATOM     15  C   UNL     1      -0.362  10.686  21.057  0.00  0.00    +0.000 A 
ATOM     16  C   UNL     1       0.271  10.326  19.863  0.00  0.00    +0.000 A 
ATOM     17  C   UNL     1       1.027   9.157  19.892  0.00  0.00    +0.000 A 
ATOM     18  O   UNL     1       1.695   8.629  18.839  0.00  0.00    +0.000 OA
ENDBRANCH   7  10
BRANCH   9  19
ATOM     19  C1* UNL     1       5.628   5.848  15.930  0.00  0.00    +0.000 C 
ATOM     20  O4* UNL     1       5.136   5.675  14.584  0.00  0.00    +0.000 OA
ATOM     21  C4* UNL     1       6.079   4.842  13.862  0.00  0.00    +0.000 C 
ATOM     22  C3* UNL     1       7.299   4.673  14.763  0.00  0.00    +0.000 C 
ATOM     23  C2* UNL     1       6.723   4.808  16.164  0.00  0.00    +0.000 C 
BRANCH  22  24
ATOM     24  O3* UNL     1       8.254   5.737  14.576  0.00  0.00    +0.000 OA
ATOM     25  H3* UNL     1       7.991   6.270  13.803  0.00  0.00    +0.000 HD
ENDBRANCH  22  24
BRANCH  23  26
ATOM     26  O2* UNL     1       7.718   5.246  17.091  0.00  0.00    +0.000 OA
ATOM     27  H2* UNL     1       7.651   6.224  17.120  0.00  0.00    +0.000 HD
ENDBRANCH  23  26
BRANCH  21  28
ATOM     28  C5* UNL     1       5.410   3.511  13.510  0.00  0.00    +0.000 C 
BRANCH  28  29
ATOM     29  O5* UNL     1       6.176   2.836  12.515  0.00  0.00    +0.000 OA
ATOM     30  H5* UNL     1       6.485   3.530  11.900  0.00  0.00    +0.000 HD
ENDBRANCH  28  29
ENDBRANCH  21  28
ENDBRANCH   9  19
BRANCH   1  32
ATOM     31  C   UNL     1       1.109   3.587  20.942  0.00  0.00    +0.000 C 
ATOM     32  O   UNL     1       1.187   4.407  19.786  0.00  0.00    +0.000 OA
ENDBRANCH   1  32
TORSDOF 7
ENDMDL
MODEL 2
REMARK VINA RESULT:      -8.2      0.512      1.103
REMARK  Name = 
REMARK  8 active torsions:
REMARK  status: ('A' for Active; 'I' for Inactive)
REMARK    1  A    between atoms: C_1  and  O_2
REMARK    2  A    between atoms: O_2  and  C_3
REMARK    3  A    between atoms: C_9  and  C_10
REMARK    4  A    between atoms: N_20  and  C1*_21
REMARK    5  A    between atoms: C4*_23  and  C5*_24
REMARK    6  A    between atoms: C5*_24  and  O5*_25
REMARK    7  A    between atoms: C3*_26  and  O3*_27
REMARK    8  A    between atoms: C2*_28  and  O2*_29
REMARK                            x       y       z     vdW  Elec       q    Type
REMARK                         _______ _______ _______ _____ _____    ______ ____
ROOT
ATOM      1  C   UNL     1       2.331   4.146  18.914  0.00  0.00    +0.000 A 
ATOM      2  N   UNL     1       2.673   2.850  18.740  0.00  0.00    +0.000 NA
ATOM      3  C   UNL     1       3.675   2.581  17.885  0.00  0.00    +0.000 A 
ATOM      4  N   UNL     1       4.397   3.446  17.152  0.00  0.00    +0.000 NA
ATOM      5  C   UNL     1       4.014   4.720  17.351  0.00  0.00    +0.000 A 
ATOM      6  C   UNL     1       3.013   5.151  18.218  0.00  0.00    +0.000 A 
ATOM      7  C   UNL     1       2.996   6.573  18.150  0.00  0.00    +0.000 A 
ATOM      8  C   UNL     1       3.915   6.958  17.195  0.00  0.00    +0.000 A 
ATOM      9  N   UNL     1       4.554   5.826  16.740  0.00  0.00    +0.000 N 
ENDROOT
BRANCH   7  10
ATOM     10  C   UNL     1       2.205   7.521  18.982  0.00  0.00    +0.000 A 
ATOM     11  C   UNL     1       1.640   8.715  18.568  0.00  0.00    +0.000 A 
ATOM     12  C   UNL     1       1.076   9.332  19.717  0.00  0.00    +0.000 A 
ATOM     13  C   UNL     1       0.402  10.533  19.989  0.00  0.00    +0.000 A 
ATOM     14  C   UNL     1       0.020  10.803  21.312  0.00  0.00    +0.000 A 
ATOM     15  C   UNL     1       0.291   9.897  22.342  0.00  0.00    +0.000 A 
ATOM     16  C   UNL     1       0.949   8.690  22.087  0.00  0.00    +0.000 A 
ATOM     17  C   UNL     1       1.321   8.456  20.765  0.00  0.00    +0.000 A 
ATOM     18  O   UNL     1       1.983   7.363  20.319  0.00  0.00    +0.000 OA
ENDBRANCH   7  10
BRANCH   9  19
ATOM     19  C1* UNL     1       5.666   5.849  15.804  0.00  0.00    +0.000 C 
ATOM     20  O4* UNL     1       5.188   5.634  14.458  0.00  0.00    +0.000 OA
ATOM     21  C4* UNL     1       6.148   4.794  13.767  0.00  0.00    +0.000 C 
ATOM     22  C3* UNL     1       7.362   4.665  14.683  0.00  0.00    +0.000 C 
ATOM     23  C2* UNL     1       6.772   4.830  16.074  0.00  0.00    +0.000 C 
BRANCH  22  24
ATOM     24  O3* UNL     1       8.305   5.736  14.475  0.00  0.00    +0.000 OA
ATOM     25  H3* UNL     1       8.647   5.689  13.563  0.00  0.00    +0.000 HD
ENDBRANCH  22  24
BRANCH  23  26
ATOM     26  O2* UNL     1       7.753   5.305  16.998  0.00  0.00    +0.000 OA
ATOM     27  H2* UNL     1       7.365   6.100  17.422  0.00  0.00    +0.000 HD
ENDBRANCH  23  26
BRANCH  21  28
ATOM     28  C5* UNL     1       5.499   3.446  13.445  0.00  0.00    +0.000 C 
BRANCH  28  29
ATOM     29  O5* UNL     1       6.218   2.804  12.395  0.00  0.00    +0.000 OA
ATOM     30  H5* UNL     1       6.005   3.305  11.582  0.00  0.00    +0.000 HD
ENDBRANCH  28  29
ENDBRANCH  21  28
ENDBRANCH   9  19
BRANCH   1  32
ATOM     31  C   UNL     1       1.217   3.737  20.931  0.00  0.00    +0.000 C 
ATOM     32  O   UNL     1       1.253   4.460  19.710  0.00  0.00    +0.000 OA
ENDBRANCH   1  32
TORSDOF 7
ENDMDL
MODEL 3
REMARK VINA RESULT:      -7.5      6.227     11.052
REMARK  Name = 
REMARK  8 active torsions:
REMARK  status: ('A' for Active; 'I' for Inactive)
REMARK    1  A    between atoms: C_1  and  O_2
REMARK    2  A    between atoms: O_2  and  C_3
REMARK    3  A    between atoms: C_9  and  C_10
REMARK    4  A    between atoms: N_20  and  C1*_21
REMARK    5  A    between atoms: C4*_23  and  C5*_24
REMARK    6  A    between atoms: C5*_24  and  O5*_25
REMARK    7  A    between atoms: C3*_26  and  O3*_27
REMARK    8  A    between atoms: C2*_28  and  O2*_29
REMARK                            x       y       z     vdW  Elec       q    Type
REMARK                         _______ _______ _______ _____ _____    ______ ____
ROOT
ATOM      1  C   UNL     1      -0.913  13.049  21.691  0.00  0.00    +0.000 A 
ATOM      2  N   UNL     1      -1.398  14.002  22.518  0.00  0.00    +0.000 NA
ATOM      3  C   UNL     1      -2.679  14.373  22.355  0.00  0.00    +0.000 A 
ATOM      4  N   UNL     1      -3.566  13.923  21.451  0.00  0.00    +0.000 NA
ATOM      5  C   UNL     1      -3.036  12.985  20.645  0.00  0.00    +0.000 A 
ATOM      6  C   UNL     1      -1.738  12.486  20.710  0.00  0.00    +0.000 A 
ATOM      7  C   UNL     1      -1.637  11.475  19.712  0.00  0.00    +0.000 A 
ATOM      8  C   UNL     1      -2.832  11.446  19.023  0.00  0.00    +0.000 A 
ATOM      9  N   UNL     1      -3.689  12.344  19.620  0.00  0.00    +0.000 N 
ENDROOT
BRANCH   7  10
ATOM     10  C   UNL     1      -0.503  10.543  19.463  0.00  0.00    +0.000 A 
ATOM     11  C   UNL     1       0.182  10.371  18.272  0.00  0.00    +0.000 A 
ATOM     12  C   UNL     1       1.106   9.310  18.470  0.00  0.00    +0.000 A 
ATOM     13  C   UNL     1       2.052   8.635  17.683  0.00  0.00    +0.000 A 
ATOM     14  C   UNL     1       2.772   7.577  18.258  0.00  0.00    +0.000 A 
ATOM     15  C   UNL     1       2.566   7.201  19.589  0.00  0.00    +0.000 A 
ATOM     16  C   UNL     1       1.638   7.871  20.392  0.00  0.00    +0.000 A 
ATOM     17  C   UNL     1       0.935   8.911  19.789  0.00  0.00    +0.000 A 
ATOM     18  O   UNL     1      -0.018   9.664  20.388  0.00  0.00    +0.000 OA
ENDBRANCH   7  10
BRANCH   9  19
ATOM     19  C1* UNL     1      -5.081  12.510  19.234  0.00  0.00    +0.000 C 
ATOM     20  O4* UNL     1      -5.947  11.932  20.235  0.00  0.00    +0.000 OA
ATOM     21  C4* UNL     1      -7.053  11.284  19.555  0.00  0.00    +0.000 C 
ATOM     22  C3* UNL     1      -6.950  11.665  18.082  0.00  0.00    +0.000 C 
ATOM     23  C2* UNL     1      -5.461  11.905  17.883  0.00  0.00    +0.000 C 
BRANCH  22  24
ATOM     24  O3* UNL     1      -7.636  12.903  17.800  0.00  0.00    +0.000 OA
ATOM     25  H3* UNL     1      -7.052  13.650  18.025  0.00  0.00    +0.000 HD
ENDBRANCH  22  24
BRANCH  23  26
ATOM     26  O2* UNL     1      -5.223  12.793  16.789  0.00  0.00    +0.000 OA
ATOM     27  H2* UNL     1      -4.866  12.239  16.062  0.00  0.00    +0.000 HD
ENDBRANCH  23  26
BRANCH  21  28
ATOM     28  C5* UNL     1      -6.971   9.773  19.786  0.00  0.00    +0.000 C 
BRANCH  28  29
ATOM     29  O5* UNL     1      -7.553   9.447  21.046  0.00  0.00    +0.000 OA
ATOM     30  H5* UNL     1      -7.028   9.930  21.715  0.00  0.00    +0.000 HD
ENDBRANCH  28  29
ENDBRANCH  21  28
ENDBRANCH   9  19
BRANCH   1  32
ATOM     31  C   UNL     1       1.264  13.529  20.978  0.00  0.00    +0.000 C 
ATOM     32  O   UNL     1       0.418  12.704  21.763  0.00  0.00    +0.000 OA
ENDBRANCH   1  32
TORSDOF 7
ENDMDL
MODEL 4
REMARK VINA RESULT:      -7.5      4.933      9.564
REMARK  Name = 
REMARK  8 active torsions:
REMARK  status: ('A' for Active; 'I' for Inactive)
REMARK    1  A    between atoms: C_1  and  O_2
REMARK    2  A    between atoms: O_2  and  C_3
REMARK    3  A    between atoms: C_9  and  C_10
REMARK    4  A    between atoms: N_20  and  C1*_21
REMARK    5  A    between atoms: C4*_23  and  C5*_24
REMARK    6  A    between atoms: C5*_24  and  O5*_25
REMARK    7  A    between atoms: C3*_26  and  O3*_27
REMARK    8  A    between atoms: C2*_28  and  O2*_29
REMARK                            x       y       z     vdW  Elec       q    Type
REMARK                         _______ _______ _______ _____ _____    ______ ____
ROOT
ATOM      1  C   UNL     1       0.183  10.935  21.772  0.00  0.00    +0.000 A 
ATOM      2  N   UNL     1      -0.459  11.647  22.725  0.00  0.00    +0.000 NA
ATOM      3  C   UNL     1      -1.602  12.262  22.378  0.00  0.00    +0.000 A 
ATOM      4  N   UNL     1      -2.207  12.275  21.178  0.00  0.00    +0.000 NA
ATOM      5  C   UNL     1      -1.528  11.562  20.261  0.00  0.00    +0.000 A 
ATOM      6  C   UNL     1      -0.348  10.856  20.479  0.00  0.00    +0.000 A 
ATOM      7  C   UNL     1      -0.025  10.208  19.253  0.00  0.00    +0.000 A 
ATOM      8  C   UNL     1      -0.957  10.600  18.314  0.00  0.00    +0.000 A 
ATOM      9  N   UNL     1      -1.888  11.396  18.945  0.00  0.00    +0.000 N 
ENDROOT
BRANCH   7  10
ATOM     10  C   UNL     1       1.062   9.224  18.995  0.00  0.00    +0.000 A 
ATOM     11  C   UNL     1       1.922   9.204  17.911  0.00  0.00    +0.000 A 
ATOM     12  C   UNL     1       2.717   8.033  18.028  0.00  0.00    +0.000 A 
ATOM     13  C   UNL     1       3.729   7.420  17.273  0.00  0.00    +0.000 A 
ATOM     14  C   UNL     1       4.262   6.204  17.726  0.00  0.00    +0.000 A 
ATOM     15  C   UNL     1       3.808   5.612  18.909  0.00  0.00    +0.000 A 
ATOM     16  C   UNL     1       2.811   6.215  19.681  0.00  0.00    +0.000 A 
ATOM     17  C   UNL     1       2.299   7.417  19.200  0.00  0.00    +0.000 A 
ATOM     18  O   UNL     1       1.318   8.142  19.787  0.00  0.00    +0.000 OA
ENDBRANCH   7  10
BRANCH   9  19
ATOM     19  C1* UNL     1      -3.084  11.908  18.296  0.00  0.00    +0.000 C 
ATOM     20  O4* UNL     1      -4.199  11.877  19.213  0.00  0.00    +0.000 OA
ATOM     21  C4* UNL     1      -5.382  11.483  18.472  0.00  0.00    +0.000 C 
ATOM     22  C3* UNL     1      -4.995  11.471  16.996  0.00  0.00    +0.000 C 
ATOM     23  C2* UNL     1      -3.505  11.171  17.025  0.00  0.00    +0.000 C 
BRANCH  22  24
ATOM     24  O3* UNL     1      -5.171  12.767  16.386  0.00  0.00    +0.000 OA
ATOM     25  H3* UNL     1      -4.861  13.455  17.004  0.00  0.00    +0.000 HD
ENDBRANCH  22  24
BRANCH  23  26
ATOM     26  O2* UNL     1      -2.855  11.667  15.853  0.00  0.00    +0.000 OA
ATOM     27  H2* UNL     1      -2.736  12.631  15.996  0.00  0.00    +0.000 HD
ENDBRANCH  23  26
BRANCH  21  28
ATOM     28  C5* UNL     1      -5.859  10.118  18.973  0.00  0.00    +0.000 C 
BRANCH  28  29
ATOM     29  O5* UNL     1      -7.269  10.006  18.794  0.00  0.00    +0.000 OA
ATOM     30  H5* UNL     1      -7.396   9.639  17.896  0.00  0.00    +0.000 HD
ENDBRANCH  28  29
ENDBRANCH  21  28
ENDBRANCH   9  19
BRANCH   1  32
ATOM     31  C   UNL     1       1.311   9.217  22.891  0.00  0.00    +0.000 C 
ATOM     32  O   UNL     1       1.402  10.364  22.060  0.00  0.00    +0.000 OA
ENDBRANCH   1  32
TORSDOF 7
ENDMDL
MODEL 5
REMARK VINA RESULT:      -7.4      2.909      8.077
REMARK  Name = 
REMARK  8 active torsions:
REMARK  status: ('A' for Active; 'I' for Inactive)
REMARK    1  A    between atoms: C_1  and  O_2
REMARK    2  A    between atoms: O_2  and  C_3
REMARK    3  A    between atoms: C_9  and  C_10
REMARK    4  A    between atoms: N_20  and  C1*_21
REMARK    5  A    between atoms: C4*_23  and  C5*_24
REMARK    6  A    between atoms: C5*_24  and  O5*_25
REMARK    7  A    between atoms: C3*_26  and  O3*_27
REMARK    8  A    between atoms: C2*_28  and  O2*_29
REMARK                            x       y       z     vdW  Elec       q    Type
REMARK                         _______ _______ _______ _____ _____    ______ ____
ROOT
ATOM      1  C   UNL     1       1.820   6.884  20.579  0.00  0.00    +0.000 A 
ATOM      2  N   UNL     1       0.966   7.088  21.608  0.00  0.00    +0.000 NA
ATOM      3  C   UNL     1       0.251   8.225  21.605  0.00  0.00    +0.000 A 
ATOM      4  N   UNL     1       0.276   9.220  20.702  0.00  0.00    +0.000 NA
ATOM      5  C   UNL     1       1.146   8.978  19.705  0.00  0.00    +0.000 A 
ATOM      6  C   UNL     1       1.934   7.839  19.563  0.00  0.00    +0.000 A 
ATOM      7  C   UNL     1       2.648   7.985  18.339  0.00  0.00    +0.000 A 
ATOM      8  C   UNL     1       2.343   9.228  17.822  0.00  0.00    +0.000 A 
ATOM      9  N   UNL     1       1.401   9.810  18.642  0.00  0.00    +0.000 N 
ENDROOT
BRANCH   7  10
ATOM     10  C   UNL     1       3.519   6.986  17.661  0.00  0.00    +0.000 A 
ATOM     11  C   UNL     1       3.234   5.648  17.448  0.00  0.00    +0.000 A 
ATOM     12  C   UNL     1       4.390   5.063  16.865  0.00  0.00    +0.000 A 
ATOM     13  C   UNL     1       4.767   3.778  16.442  0.00  0.00    +0.000 A 
ATOM     14  C   UNL     1       6.060   3.592  15.931  0.00  0.00    +0.000 A 
ATOM     15  C   UNL     1       6.959   4.658  15.832  0.00  0.00    +0.000 A 
ATOM     16  C   UNL     1       6.596   5.947  16.235  0.00  0.00    +0.000 A 
ATOM     17  C   UNL     1       5.309   6.096  16.744  0.00  0.00    +0.000 A 
ATOM     18  O   UNL     1       4.778   7.253  17.207  0.00  0.00    +0.000 OA
ENDBRANCH   7  10
BRANCH   9  19
ATOM     19  C1* UNL     1       0.757  11.081  18.355  0.00  0.00    +0.000 C 
ATOM     20  O4* UNL     1       1.173  12.077  19.314  0.00  0.00    +0.000 OA
ATOM     21  C4* UNL     1       0.023  12.901  19.637  0.00  0.00    +0.000 C 
ATOM     22  C3* UNL     1      -1.089  12.505  18.670  0.00  0.00    +0.000 C 
ATOM     23  C2* UNL     1      -0.771  11.054  18.343  0.00  0.00    +0.000 C 
BRANCH  22  24
ATOM     24  O3* UNL     1      -1.024  13.257  17.441  0.00  0.00    +0.000 OA
ATOM     25  H3* UNL     1      -0.537  14.087  17.601  0.00  0.00    +0.000 HD
ENDBRANCH  22  24
BRANCH  23  26
ATOM     26  O2* UNL     1      -1.311  10.681  17.074  0.00  0.00    +0.000 OA
ATOM     27  H2* UNL     1      -0.684  10.029  16.693  0.00  0.00    +0.000 HD
ENDBRANCH  23  26
BRANCH  21  28
ATOM     28  C5* UNL     1      -0.357  12.684  21.103  0.00  0.00    +0.000 C 
BRANCH  28  29
ATOM     29  O5* UNL     1       0.671  11.951  21.764  0.00  0.00    +0.000 OA
ATOM     30  H5* UNL     1       0.344  11.032  21.829  0.00  0.00    +0.000 HD
ENDBRANCH  28  29
ENDBRANCH  21  28
ENDBRANCH   9  19
BRANCH   1  32
ATOM     31  C   UNL     1       1.949   4.564  20.854  0.00  0.00    +0.000 C 
ATOM     32  O   UNL     1       2.637   5.776  20.588  0.00  0.00    +0.000 OA
ENDBRANCH   1  32
TORSDOF 7
ENDMDL
MODEL 6
REMARK VINA RESULT:      -7.4      2.029      3.522
REMARK  Name = 
REMARK  8 active torsions:
REMARK  status: ('A' for Active; 'I' for Inactive)
REMARK    1  A    between atoms: C_1  and  O_2
REMARK    2  A    between atoms: O_2  and  C_3
REMARK    3  A    between atoms: C_9  and  C_10
REMARK    4  A    between atoms: N_20  and  C1*_21
REMARK    5  A    between atoms: C4*_23  and  C5*_24
REMARK    6  A    between atoms: C5*_24  and  O5*_25
REMARK    7  A    between atoms: C3*_26  and  O3*_27
REMARK    8  A    between atoms: C2*_28  and  O2*_29
REMARK                            x       y       z     vdW  Elec       q    Type
REMARK                         _______ _______ _______ _____ _____    ______ ____
ROOT
ATOM      1  C   UNL     1       1.601   6.624  20.517  0.00  0.00    +0.000 A 
ATOM      2  N   UNL     1       1.801   5.503  21.245  0.00  0.00    +0.000 NA
ATOM      3  C   UNL     1       2.706   4.620  20.792  0.00  0.00    +0.000 A 
ATOM      4  N   UNL     1       3.454   4.694  19.677  0.00  0.00    +0.000 NA
ATOM      5  C   UNL     1       3.213   5.819  18.981  0.00  0.00    +0.000 A 
ATOM      6  C   UNL     1       2.326   6.831  19.337  0.00  0.00    +0.000 A 
ATOM      7  C   UNL     1       2.443   7.847  18.346  0.00  0.00    +0.000 A 
ATOM      8  C   UNL     1       3.323   7.394  17.384  0.00  0.00    +0.000 A 
ATOM      9  N   UNL     1       3.814   6.175  17.797  0.00  0.00    +0.000 N 
ENDROOT
BRANCH   7  10
ATOM     10  C   UNL     1       1.812   9.195  18.336  0.00  0.00    +0.000 A 
ATOM     11  C   UNL     1       2.465  10.416  18.352  0.00  0.00    +0.000 A 
ATOM     12  C   UNL     1       1.466  11.423  18.443  0.00  0.00    +0.000 A 
ATOM     13  C   UNL     1       1.452  12.824  18.528  0.00  0.00    +0.000 A 
ATOM     14  C   UNL     1       0.214  13.476  18.642  0.00  0.00    +0.000 A 
ATOM     15  C   UNL     1      -0.984  12.756  18.661  0.00  0.00    +0.000 A 
ATOM     16  C   UNL     1      -0.989  11.361  18.563  0.00  0.00    +0.000 A 
ATOM     17  C   UNL     1       0.256  10.745  18.459  0.00  0.00    +0.000 A 
ATOM     18  O   UNL     1       0.464   9.409  18.377  0.00  0.00    +0.000 OA
ENDBRANCH   7  10
BRANCH   9  19
ATOM     19  C1* UNL     1       4.851   5.442  17.090  0.00  0.00    +0.000 C 
ATOM     20  O4* UNL     1       5.615   4.642  18.018  0.00  0.00    +0.000 OA
ATOM     21  C4* UNL     1       7.008   4.690  17.615  0.00  0.00    +0.000 C 
ATOM     22  C3* UNL     1       7.052   5.391  16.261  0.00  0.00    +0.000 C 
ATOM     23  C2* UNL     1       5.834   6.301  16.296  0.00  0.00    +0.000 C 
BRANCH  22  24
ATOM     24  O3* UNL     1       6.876   4.463  15.171  0.00  0.00    +0.000 OA
ATOM     25  H3* UNL     1       6.209   4.817  14.554  0.00  0.00    +0.000 HD
ENDBRANCH  22  24
BRANCH  23  26
ATOM     26  O2* UNL     1       5.373   6.598  14.975  0.00  0.00    +0.000 OA
ATOM     27  H2* UNL     1       4.714   7.317  15.073  0.00  0.00    +0.000 HD
ENDBRANCH  23  26
BRANCH  21  28
ATOM     28  C5* UNL     1       7.819   5.419  18.689  0.00  0.00    +0.000 C 
BRANCH  28  29
ATOM     29  O5* UNL     1       7.127   5.364  19.934  0.00  0.00    +0.000 OA
ATOM     30  H5* UNL     1       7.198   4.436  20.238  0.00  0.00    +0.000 HD
ENDBRANCH  28  29
ENDBRANCH  21  28
ENDBRANCH   9  19
BRANCH   1  32
ATOM     31  C   UNL     1       1.085   8.540  21.756  0.00  0.00    +0.000 C 
ATOM     32  O   UNL     1       0.620   7.512  20.896  0.00  0.00    +0.000 OA
ENDBRANCH   1  32
TORSDOF 7
ENDMDL
MODEL 7
REMARK VINA RESULT:      -7.3      2.998      8.092
REMARK  Name = 
REMARK  8 active torsions:
REMARK  status: ('A' for Active; 'I' for Inactive)
REMARK    1  A    between atoms: C_1  and  O_2
REMARK    2  A    between atoms: O_2  and  C_3
REMARK    3  A    between atoms: C_9  and  C_10
REMARK    4  A    between atoms: N_20  and  C1*_21
REMARK    5  A    between atoms: C4*_23  and  C5*_24
REMARK    6  A    between atoms: C5*_24  and  O5*_25
REMARK    7  A    between atoms: C3*_26  and  O3*_27
REMARK    8  A    between atoms: C2*_28  and  O2*_29
REMARK                            x       y       z     vdW  Elec       q    Type
REMARK                         _______ _______ _______ _____ _____    ______ ____
ROOT
ATOM      1  C   UNL     1       1.853   6.832  20.540  0.00  0.00    +0.000 A 
ATOM      2  N   UNL     1       0.976   7.021  21.552  0.00  0.00    +0.000 NA
ATOM      3  C   UNL     1       0.243   8.147  21.538  0.00  0.00    +0.000 A 
ATOM      4  N   UNL     1       0.270   9.144  20.637  0.00  0.00    +0.000 NA
ATOM      5  C   UNL     1       1.163   8.918  19.657  0.00  0.00    +0.000 A 
ATOM      6  C   UNL     1       1.972   7.792  19.528  0.00  0.00    +0.000 A 
ATOM      7  C   UNL     1       2.708   7.952  18.319  0.00  0.00    +0.000 A 
ATOM      8  C   UNL     1       2.393   9.191  17.798  0.00  0.00    +0.000 A 
ATOM      9  N   UNL     1       1.426   9.756  18.601  0.00  0.00    +0.000 N 
ENDROOT
BRANCH   7  10
ATOM     10  C   UNL     1       3.607   6.968  17.656  0.00  0.00    +0.000 A 
ATOM     11  C   UNL     1       4.724   7.253  16.890  0.00  0.00    +0.000 A 
ATOM     12  C   UNL     1       5.205   6.018  16.377  0.00  0.00    +0.000 A 
ATOM     13  C   UNL     1       6.252   5.614  15.534  0.00  0.00    +0.000 A 
ATOM     14  C   UNL     1       6.380   4.251  15.227  0.00  0.00    +0.000 A 
ATOM     15  C   UNL     1       5.495   3.305  15.754  0.00  0.00    +0.000 A 
ATOM     16  C   UNL     1       4.455   3.688  16.607  0.00  0.00    +0.000 A 
ATOM     17  C   UNL     1       4.351   5.048  16.885  0.00  0.00    +0.000 A 
ATOM     18  O   UNL     1       3.404   5.619  17.666  0.00  0.00    +0.000 OA
ENDBRANCH   7  10
BRANCH   9  19
ATOM     19  C1* UNL     1       0.768  11.018  18.303  0.00  0.00    +0.000 C 
ATOM     20  O4* UNL     1       1.206  12.037  19.227  0.00  0.00    +0.000 OA
ATOM     21  C4* UNL     1       0.063  12.863  19.565  0.00  0.00    +0.000 C 
ATOM     22  C3* UNL     1      -1.076  12.440  18.640  0.00  0.00    +0.000 C 
ATOM     23  C2* UNL     1      -0.760  10.984  18.337  0.00  0.00    +0.000 C 
BRANCH  22  24
ATOM     24  O3* UNL     1      -1.050  13.164  17.393  0.00  0.00    +0.000 OA
ATOM     25  H3* UNL     1      -1.714  13.878  17.425  0.00  0.00    +0.000 HD
ENDBRANCH  22  24
BRANCH  23  26
ATOM     26  O2* UNL     1      -1.335  10.579  17.093  0.00  0.00    +0.000 OA
ATOM     27  H2* UNL     1      -1.807  11.365  16.744  0.00  0.00    +0.000 HD
ENDBRANCH  23  26
BRANCH  21  28
ATOM     28  C5* UNL     1      -0.274  12.679  21.046  0.00  0.00    +0.000 C 
BRANCH  28  29
ATOM     29  O5* UNL     1       0.747  11.911  21.679  0.00  0.00    +0.000 OA
ATOM     30  H5* UNL     1       1.447  11.793  21.006  0.00  0.00    +0.000 HD
ENDBRANCH  28  29
ENDBRANCH  21  28
ENDBRANCH   9  19
BRANCH   1  32
ATOM     31  C   UNL     1       2.011   4.511  20.789  0.00  0.00    +0.000 C 
ATOM     32  O   UNL     1       2.688   5.738  20.563  0.00  0.00    +0.000 OA
ENDBRANCH   1  32
TORSDOF 7
ENDMDL
MODEL 8
REMARK VINA RESULT:      -7.3      2.116      7.460
REMARK  Name = 
REMARK  8 active torsions:
REMARK  status: ('A' for Active; 'I' for Inactive)
REMARK    1  A    between atoms: C_1  and  O_2
REMARK    2  A    between atoms: O_2  and  C_3
REMARK    3  A    between atoms: C_9  and  C_10
REMARK    4  A    between atoms: N_20  and  C1*_21
REMARK    5  A    between atoms: C4*_23  and  C5*_24
REMARK    6  A    between atoms: C5*_24  and  O5*_25
REMARK    7  A    between atoms: C3*_26  and  O3*_27
REMARK    8  A    between atoms: C2*_28  and  O2*_29
REMARK                            x       y       z     vdW  Elec       q    Type
REMARK                         _______ _______ _______ _____ _____    ______ ____
ROOT
ATOM      1  C   UNL     1       3.444   3.731  19.543  0.00  0.00    +0.000 A 
ATOM      2  N   UNL     1       2.753   3.288  20.617  0.00  0.00    +0.000 NA
ATOM      3  C   UNL     1       1.863   4.127  21.173  0.00  0.00    +0.000 A 
ATOM      4  N   UNL     1       1.564   5.385  20.805  0.00  0.00    +0.000 NA
ATOM      5  C   UNL     1       2.283   5.784  19.740  0.00  0.00    +0.000 A 
ATOM      6  C   UNL     1       3.220   5.021  19.049  0.00  0.00    +0.000 A 
ATOM      7  C   UNL     1       3.683   5.822  17.966  0.00  0.00    +0.000 A 
ATOM      8  C   UNL     1       3.087   7.061  18.077  0.00  0.00    +0.000 A 
ATOM      9  N   UNL     1       2.210   7.018  19.139  0.00  0.00    +0.000 N 
ENDROOT
BRANCH   7  10
ATOM     10  C   UNL     1       4.587   5.423  16.852  0.00  0.00    +0.000 A 
ATOM     11  C   UNL     1       5.817   5.978  16.544  0.00  0.00    +0.000 A 
ATOM     12  C   UNL     1       6.266   5.360  15.346  0.00  0.00    +0.000 A 
ATOM     13  C   UNL     1       7.385   5.480  14.507  0.00  0.00    +0.000 A 
ATOM     14  C   UNL     1       7.448   4.682  13.354  0.00  0.00    +0.000 A 
ATOM     15  C   UNL     1       6.428   3.777  13.045  0.00  0.00    +0.000 A 
ATOM     16  C   UNL     1       5.314   3.634  13.877  0.00  0.00    +0.000 A 
ATOM     17  C   UNL     1       5.279   4.445  15.008  0.00  0.00    +0.000 A 
ATOM     18  O   UNL     1       4.280   4.472  15.922  0.00  0.00    +0.000 OA
ENDBRANCH   7  10
BRANCH   9  19
ATOM     19  C1* UNL     1       1.319   8.110  19.494  0.00  0.00    +0.000 C 
ATOM     20  O4* UNL     1       1.098   8.963  18.350  0.00  0.00    +0.000 OA
ATOM     21  C4* UNL     1       1.066  10.338  18.811  0.00  0.00    +0.000 C 
ATOM     22  C3* UNL     1       1.067  10.292  20.337  0.00  0.00    +0.000 C 
ATOM     23  C2* UNL     1       1.791   8.992  20.649  0.00  0.00    +0.000 C 
BRANCH  22  24
ATOM     24  O3* UNL     1      -0.270  10.190  20.870  0.00  0.00    +0.000 OA
ATOM     25  H3* UNL     1      -0.219   9.951  21.815  0.00  0.00    +0.000 HD
ENDBRANCH  22  24
BRANCH  23  26
ATOM     26  O2* UNL     1       1.411   8.484  21.929  0.00  0.00    +0.000 OA
ATOM     27  H2* UNL     1       0.439   8.606  21.992  0.00  0.00    +0.000 HD
ENDBRANCH  23  26
BRANCH  21  28
ATOM     28  C5* UNL     1       2.268  11.091  18.238  0.00  0.00    +0.000 C 
BRANCH  28  29
ATOM     29  O5* UNL     1       1.878  12.413  17.873  0.00  0.00    +0.000 OA
ATOM     30  H5* UNL     1       1.605  12.361  16.935  0.00  0.00    +0.000 HD
ENDBRANCH  28  29
ENDBRANCH  21  28
ENDBRANCH   9  19
BRANCH   1  32
ATOM     31  C   UNL     1       3.944   1.718  18.460  0.00  0.00    +0.000 C 
ATOM     32  O   UNL     1       4.429   2.938  18.999  0.00  0.00    +0.000 OA
ENDBRANCH   1  32
TORSDOF 7
ENDMDL
MODEL 9
REMARK VINA RESULT:      -7.3      5.165     10.410
REMARK  Name = 
REMARK  8 active torsions:
REMARK  status: ('A' for Active; 'I' for Inactive)
REMARK    1  A    between atoms: C_1  and  O_2
REMARK    2  A    between atoms: O_2  and  C_3
REMARK    3  A    between atoms: C_9  and  C_10
REMARK    4  A    between atoms: N_20  and  C1*_21
REMARK    5  A    between atoms: C4*_23  and  C5*_24
REMARK    6  A    between atoms: C5*_24  and  O5*_25
REMARK    7  A    between atoms: C3*_26  and  O3*_27
REMARK    8  A    between atoms: C2*_28  and  O2*_29
REMARK                            x       y       z     vdW  Elec       q    Type
REMARK                         _______ _______ _______ _____ _____    ______ ____
ROOT
ATOM      1  C   UNL     1      -1.819  10.721  18.456  0.00  0.00    +0.000 A 
ATOM      2  N   UNL     1      -2.891  11.496  18.179  0.00  0.00    +0.000 NA
ATOM      3  C   UNL     1      -3.279  12.379  19.115  0.00  0.00    +0.000 A 
ATOM      4  N   UNL     1      -2.738  12.596  20.326  0.00  0.00    +0.000 NA
ATOM      5  C   UNL     1      -1.683  11.796  20.560  0.00  0.00    +0.000 A 
ATOM      6  C   UNL     1      -1.155  10.855  19.680  0.00  0.00    +0.000 A 
ATOM      7  C   UNL     1      -0.014  10.290  20.320  0.00  0.00    +0.000 A 
ATOM      8  C   UNL     1       0.069  10.835  21.585  0.00  0.00    +0.000 A 
ATOM      9  N   UNL     1      -0.930  11.776  21.710  0.00  0.00    +0.000 N 
ENDROOT
BRANCH   7  10
ATOM     10  C   UNL     1       0.980   9.340  19.749  0.00  0.00    +0.000 A 
ATOM     11  C   UNL     1       1.619   9.445  18.526  0.00  0.00    +0.000 A 
ATOM     12  C   UNL     1       2.392   8.266  18.356  0.00  0.00    +0.000 A 
ATOM     13  C   UNL     1       3.228   7.742  17.356  0.00  0.00    +0.000 A 
ATOM     14  C   UNL     1       3.805   6.479  17.557  0.00  0.00    +0.000 A 
ATOM     15  C   UNL     1       3.567   5.754  18.729  0.00  0.00    +0.000 A 
ATOM     16  C   UNL     1       2.749   6.266  19.741  0.00  0.00    +0.000 A 
ATOM     17  C   UNL     1       2.186   7.518  19.507  0.00  0.00    +0.000 A 
ATOM     18  O   UNL     1       1.352   8.172  20.349  0.00  0.00    +0.000 OA
ENDBRANCH   7  10
BRANCH   9  19
ATOM     19  C1* UNL     1      -1.087  12.636  22.871  0.00  0.00    +0.000 C 
ATOM     20  O4* UNL     1      -2.331  12.343  23.542  0.00  0.00    +0.000 OA
ATOM     21  C4* UNL     1      -2.905  13.595  23.996  0.00  0.00    +0.000 C 
ATOM     22  C3* UNL     1      -1.853  14.675  23.761  0.00  0.00    +0.000 C 
ATOM     23  C2* UNL     1      -1.054  14.137  22.584  0.00  0.00    +0.000 C 
BRANCH  22  24
ATOM     24  O3* UNL     1      -0.954  14.799  24.882  0.00  0.00    +0.000 OA
ATOM     25  H3* UNL     1      -0.060  15.011  24.553  0.00  0.00    +0.000 HD
ENDBRANCH  22  24
BRANCH  23  26
ATOM     26  O2* UNL     1       0.271  14.672  22.571  0.00  0.00    +0.000 OA
ATOM     27  H2* UNL     1       0.494  14.867  23.507  0.00  0.00    +0.000 HD
ENDBRANCH  23  26
BRANCH  21  28
ATOM     28  C5* UNL     1      -4.207  13.858  23.237  0.00  0.00    +0.000 C 
BRANCH  28  29
ATOM     29  O5* UNL     1      -4.695  12.639  22.681  0.00  0.00    +0.000 OA
ATOM     30  H5* UNL     1      -4.239  11.924  23.167  0.00  0.00    +0.000 HD
ENDBRANCH  28  29
ENDBRANCH  21  28
ENDBRANCH   9  19
BRANCH   1  32
ATOM     31  C   UNL     1      -2.187   9.758  16.355  0.00  0.00    +0.000 C 
ATOM     32  O   UNL     1      -1.443   9.742  17.564  0.00  0.00    +0.000 OA
ENDBRANCH   1  32
TORSDOF 7
ENDMDL
