MODEL 1
REMARK VINA RESULT:      -6.5      0.000      0.000
REMARK  Name = 
REMARK  4 active torsions:
REMARK  status: ('A' for Active; 'I' for Inactive)
REMARK    1  A    between atoms: C_2  and  C_3
REMARK    2  A    between atoms: C_3  and  N_4
REMARK    3  A    between atoms: C_5  and  C_7
REMARK    4  A    between atoms: N_14  and  O_15
REMARK                            x       y       z     vdW  Elec       q    Type
REMARK                         _______ _______ _______ _____ _____    ______ ____
ROOT
ATOM      1  N   UNL     1       5.760   4.071  13.780  0.00  0.00    +0.000 N 
ATOM      2  C   UNL     1       6.279   4.905  14.743  0.00  0.00    +0.000 C 
ATOM      3  O   UNL     1       7.410   5.373  14.679  0.00  0.00    +0.000 OA
ATOM      4  H   UNL     1       4.765   3.869  13.744  0.00  0.00    +0.000 HD
ENDROOT
BRANCH   2   5
ATOM      5  C   UNL     1       5.381   5.266  15.868  0.00  0.00    +0.000 A 
ATOM      6  C   UNL     1       5.170   6.598  16.246  0.00  0.00    +0.000 A 
ATOM      7  C   UNL     1       4.307   6.889  17.307  0.00  0.00    +0.000 A 
ATOM      8  C   UNL     1       3.666   5.854  17.989  0.00  0.00    +0.000 A 
ATOM      9 CL   UNL     1       2.624   6.216  19.310  0.00  0.00    +0.000 Cl
ATOM     10  C   UNL     1       3.862   4.528  17.608  0.00  0.00    +0.000 A 
ATOM     11  C   UNL     1       4.713   4.234  16.540  0.00  0.00    +0.000 A 
ENDBRANCH   2   5
BRANCH   1  12
ATOM     12  C   UNL     1       6.556   3.710  12.616  0.00  0.00    +0.000 C 
BRANCH  12  14
ATOM     13  O   UNL     1       4.697   2.703  11.433  0.00  0.00    +0.000 OA
ATOM     14  C   UNL     1       5.877   2.605  11.794  0.00  0.00    +0.000 C 
ATOM     15  N   UNL     1       6.643   1.528  11.479  0.00  0.00    +0.000 N 
ATOM     16  H   UNL     1       7.602   1.480  11.790  0.00  0.00    +0.000 HD
BRANCH  15  17
ATOM     17  O   UNL     1       6.197   0.426  10.722  0.00  0.00    +0.000 OA
ATOM     18  H   UNL     1       6.254  -0.366  11.295  0.00  0.00    +0.000 HD
ENDBRANCH  15  17
ENDBRANCH  12  14
ENDBRANCH   1  12
TORSDOF 4
ENDMDL
MODEL 2
REMARK VINA RESULT:      -6.5      3.023      4.416
REMARK  Name = 
REMARK  4 active torsions:
REMARK  status: ('A' for Active; 'I' for Inactive)
REMARK    1  A    between atoms: C_2  and  C_3
REMARK    2  A    between atoms: C_3  and  N_4
REMARK    3  A    between atoms: C_5  and  C_7
REMARK    4  A    between atoms: N_14  and  O_15
REMARK                            x       y       z     vdW  Elec       q    Type
REMARK                         _______ _______ _______ _____ _____    ______ ____
ROOT
ATOM      1  N   UNL     1       6.542   4.199  18.119  0.00  0.00    +0.000 N 
ATOM      2  C   UNL     1       5.471   4.996  18.452  0.00  0.00    +0.000 C 
ATOM      3  O   UNL     1       5.350   6.149  18.054  0.00  0.00    +0.000 OA
ATOM      4  H   UNL     1       6.518   3.196  18.281  0.00  0.00    +0.000 HD
ENDROOT
BRANCH   2   5
ATOM      5  C   UNL     1       4.415   4.379  19.292  0.00  0.00    +0.000 A 
ATOM      6  C   UNL     1       4.430   3.015  19.613  0.00  0.00    +0.000 A 
ATOM      7  C   UNL     1       3.418   2.481  20.416  0.00  0.00    +0.000 A 
ATOM      8  C   UNL     1       2.393   3.303  20.886  0.00  0.00    +0.000 A 
ATOM      9 CL   UNL     1       1.135   2.636  21.852  0.00  0.00    +0.000 Cl
ATOM     10  C   UNL     1       2.380   4.663  20.580  0.00  0.00    +0.000 A 
ATOM     11  C   UNL     1       3.398   5.203  19.790  0.00  0.00    +0.000 A 
ENDBRANCH   2   5
BRANCH   1  12
ATOM     12  C   UNL     1       7.596   4.710  17.255  0.00  0.00    +0.000 C 
BRANCH  12  14
ATOM     13  O   UNL     1       7.523   5.488  14.961  0.00  0.00    +0.000 OA
ATOM     14  C   UNL     1       7.202   4.610  15.774  0.00  0.00    +0.000 C 
ATOM     15  N   UNL     1       6.499   3.508  15.408  0.00  0.00    +0.000 N 
ATOM     16  H   UNL     1       6.254   2.811  16.096  0.00  0.00    +0.000 HD
BRANCH  15  17
ATOM     17  O   UNL     1       6.064   3.238  14.095  0.00  0.00    +0.000 OA
ATOM     18  H   UNL     1       6.862   3.130  13.537  0.00  0.00    +0.000 HD
ENDBRANCH  15  17
ENDBRANCH  12  14
ENDBRANCH   1  12
TORSDOF 4
ENDMDL
MODEL 3
REMARK VINA RESULT:      -6.5      0.090      1.254
REMARK  Name = 
REMARK  4 active torsions:
REMARK  status: ('A' for Active; 'I' for Inactive)
REMARK    1  A    between atoms: C_2  and  C_3
REMARK    2  A    between atoms: C_3  and  N_4
REMARK    3  A    between atoms: C_5  and  C_7
REMARK    4  A    between atoms: N_14  and  O_15
REMARK                            x       y       z     vdW  Elec       q    Type
REMARK                         _______ _______ _______ _____ _____    ______ ____
ROOT
ATOM      1  N   UNL     1       5.720   4.036  13.736  0.00  0.00    +0.000 N 
ATOM      2  C   UNL     1       6.252   4.852  14.707  0.00  0.00    +0.000 C 
ATOM      3  O   UNL     1       7.382   5.321  14.638  0.00  0.00    +0.000 OA
ATOM      4  H   UNL     1       4.724   3.835  13.709  0.00  0.00    +0.000 HD
ENDROOT
BRANCH   2   5
ATOM      5  C   UNL     1       5.367   5.196  15.848  0.00  0.00    +0.000 A 
ATOM      6  C   UNL     1       4.691   4.211  16.581  0.00  0.00    +0.000 A 
ATOM      7  C   UNL     1       3.875   4.583  17.654  0.00  0.00    +0.000 A 
ATOM      8  C   UNL     1       3.730   5.931  17.985  0.00  0.00    +0.000 A 
ATOM      9 CL   UNL     1       2.706   6.386  19.291  0.00  0.00    +0.000 Cl
ATOM     10  C   UNL     1       4.411   6.914  17.268  0.00  0.00    +0.000 A 
ATOM     11  C   UNL     1       5.239   6.544  16.205  0.00  0.00    +0.000 A 
ENDBRANCH   2   5
BRANCH   1  12
ATOM     12  C   UNL     1       6.502   3.693  12.557  0.00  0.00    +0.000 C 
BRANCH  12  14
ATOM     13  O   UNL     1       4.662   2.628  11.395  0.00  0.00    +0.000 OA
ATOM     14  C   UNL     1       5.843   2.559  11.759  0.00  0.00    +0.000 C 
ATOM     15  N   UNL     1       6.628   1.489  11.468  0.00  0.00    +0.000 N 
ATOM     16  H   UNL     1       7.587   1.465  11.780  0.00  0.00    +0.000 HD
BRANCH  15  17
ATOM     17  O   UNL     1       6.203   0.363  10.735  0.00  0.00    +0.000 OA
ATOM     18  H   UNL     1       6.960  -0.255  10.680  0.00  0.00    +0.000 HD
ENDBRANCH  15  17
ENDBRANCH  12  14
ENDBRANCH   1  12
TORSDOF 4
ENDMDL
MODEL 4
REMARK VINA RESULT:      -6.4      5.173      6.292
REMARK  Name = 
REMARK  4 active torsions:
REMARK  status: ('A' for Active; 'I' for Inactive)
REMARK    1  A    between atoms: C_2  and  C_3
REMARK    2  A    between atoms: C_3  and  N_4
REMARK    3  A    between atoms: C_5  and  C_7
REMARK    4  A    between atoms: N_14  and  O_15
REMARK                            x       y       z     vdW  Elec       q    Type
REMARK                         _______ _______ _______ _____ _____    ______ ____
ROOT
ATOM      1  N   UNL     1       3.767   3.223  17.879  0.00  0.00    +0.000 N 
ATOM      2  C   UNL     1       4.748   3.599  18.767  0.00  0.00    +0.000 C 
ATOM      3  O   UNL     1       5.003   2.967  19.785  0.00  0.00    +0.000 OA
ATOM      4  H   UNL     1       3.717   3.633  16.950  0.00  0.00    +0.000 HD
ENDROOT
BRANCH   2   5
ATOM      5  C   UNL     1       5.542   4.803  18.414  0.00  0.00    +0.000 A 
ATOM      6  C   UNL     1       5.081   5.745  17.485  0.00  0.00    +0.000 A 
ATOM      7  C   UNL     1       5.861   6.867  17.191  0.00  0.00    +0.000 A 
ATOM      8  C   UNL     1       7.097   7.041  17.817  0.00  0.00    +0.000 A 
ATOM      9 CL   UNL     1       8.064   8.412  17.434  0.00  0.00    +0.000 Cl
ATOM     10  C   UNL     1       7.553   6.114  18.752  0.00  0.00    +0.000 A 
ATOM     11  C   UNL     1       6.770   4.998  19.058  0.00  0.00    +0.000 A 
ENDBRANCH   2   5
BRANCH   1  12
ATOM     12  C   UNL     1       2.978   2.024  18.123  0.00  0.00    +0.000 C 
BRANCH  12  14
ATOM     13  O   UNL     1       0.596   2.403  18.355  0.00  0.00    +0.000 OA
ATOM     14  C   UNL     1       1.701   2.347  18.912  0.00  0.00    +0.000 C 
ATOM     15  N   UNL     1       1.849   2.551  20.246  0.00  0.00    +0.000 N 
ATOM     16  H   UNL     1       2.764   2.498  20.668  0.00  0.00    +0.000 HD
BRANCH  15  17
ATOM     17  O   UNL     1       0.792   2.844  21.131  0.00  0.00    +0.000 OA
ATOM     18  H   UNL     1       0.141   2.116  21.061  0.00  0.00    +0.000 HD
ENDBRANCH  15  17
ENDBRANCH  12  14
ENDBRANCH   1  12
TORSDOF 4
ENDMDL
MODEL 5
REMARK VINA RESULT:      -6.4      2.272      3.479
REMARK  Name = 
REMARK  4 active torsions:
REMARK  status: ('A' for Active; 'I' for Inactive)
REMARK    1  A    between atoms: C_2  and  C_3
REMARK    2  A    between atoms: C_3  and  N_4
REMARK    3  A    between atoms: C_5  and  C_7
REMARK    4  A    between atoms: N_14  and  O_15
REMARK                            x       y       z     vdW  Elec       q    Type
REMARK                         _______ _______ _______ _____ _____    ______ ____
ROOT
ATOM      1  N   UNL     1       5.913   4.493  16.409  0.00  0.00    +0.000 N 
ATOM      2  C   UNL     1       5.888   4.348  17.777  0.00  0.00    +0.000 C 
ATOM      3  O   UNL     1       6.879   4.505  18.481  0.00  0.00    +0.000 OA
ATOM      4  H   UNL     1       5.051   4.568  15.875  0.00  0.00    +0.000 HD
ENDROOT
BRANCH   2   5
ATOM      5  C   UNL     1       4.574   4.035  18.391  0.00  0.00    +0.000 A 
ATOM      6  C   UNL     1       4.461   3.190  19.503  0.00  0.00    +0.000 A 
ATOM      7  C   UNL     1       3.201   2.932  20.052  0.00  0.00    +0.000 A 
ATOM      8  C   UNL     1       2.063   3.508  19.487  0.00  0.00    +0.000 A 
ATOM      9 CL   UNL     1       0.512   3.168  20.151  0.00  0.00    +0.000 Cl
ATOM     10  C   UNL     1       2.171   4.360  18.389  0.00  0.00    +0.000 A 
ATOM     11  C   UNL     1       3.430   4.632  17.847  0.00  0.00    +0.000 A 
ENDBRANCH   2   5
BRANCH   1  12
ATOM     12  C   UNL     1       7.151   4.853  15.732  0.00  0.00    +0.000 C 
BRANCH  12  14
ATOM     13  O   UNL     1       7.562   5.399  13.408  0.00  0.00    +0.000 OA
ATOM     14  C   UNL     1       7.050   4.615  14.218  0.00  0.00    +0.000 C 
ATOM     15  N   UNL     1       6.383   3.500  13.824  0.00  0.00    +0.000 N 
ATOM     16  H   UNL     1       5.977   2.883  14.511  0.00  0.00    +0.000 HD
BRANCH  15  17
ATOM     17  O   UNL     1       6.201   3.113  12.482  0.00  0.00    +0.000 OA
ATOM     18  H   UNL     1       5.568   2.365  12.475  0.00  0.00    +0.000 HD
ENDBRANCH  15  17
ENDBRANCH  12  14
ENDBRANCH   1  12
TORSDOF 4
ENDMDL
MODEL 6
REMARK VINA RESULT:      -6.4      3.106      4.022
REMARK  Name = 
REMARK  4 active torsions:
REMARK  status: ('A' for Active; 'I' for Inactive)
REMARK    1  A    between atoms: C_2  and  C_3
REMARK    2  A    between atoms: C_3  and  N_4
REMARK    3  A    between atoms: C_5  and  C_7
REMARK    4  A    between atoms: N_14  and  O_15
REMARK                            x       y       z     vdW  Elec       q    Type
REMARK                         _______ _______ _______ _____ _____    ______ ____
ROOT
ATOM      1  N   UNL     1       4.784   4.941  16.466  0.00  0.00    +0.000 N 
ATOM      2  C   UNL     1       3.950   4.385  17.409  0.00  0.00    +0.000 C 
ATOM      3  O   UNL     1       3.805   3.175  17.539  0.00  0.00    +0.000 OA
ATOM      4  H   UNL     1       5.049   5.921  16.514  0.00  0.00    +0.000 HD
ENDROOT
BRANCH   2   5
ATOM      5  C   UNL     1       3.252   5.326  18.320  0.00  0.00    +0.000 A 
ATOM      6  C   UNL     1       3.129   6.689  18.021  0.00  0.00    +0.000 A 
ATOM      7  C   UNL     1       2.455   7.535  18.906  0.00  0.00    +0.000 A 
ATOM      8  C   UNL     1       1.914   7.021  20.086  0.00  0.00    +0.000 A 
ATOM      9 CL   UNL     1       1.106   8.071  21.185  0.00  0.00    +0.000 Cl
ATOM     10  C   UNL     1       2.021   5.663  20.381  0.00  0.00    +0.000 A 
ATOM     11  C   UNL     1       2.683   4.813  19.492  0.00  0.00    +0.000 A 
ENDBRANCH   2   5
BRANCH   1  12
ATOM     12  C   UNL     1       5.547   4.087  15.568  0.00  0.00    +0.000 C 
BRANCH  12  14
ATOM     13  O   UNL     1       7.840   4.565  16.189  0.00  0.00    +0.000 OA
ATOM     14  C   UNL     1       6.956   4.648  15.325  0.00  0.00    +0.000 C 
ATOM     15  N   UNL     1       7.179   5.224  14.116  0.00  0.00    +0.000 N 
ATOM     16  H   UNL     1       6.435   5.274  13.435  0.00  0.00    +0.000 HD
BRANCH  15  17
ATOM     17  O   UNL     1       8.408   5.779  13.711  0.00  0.00    +0.000 OA
ATOM     18  H   UNL     1       9.051   5.632  14.435  0.00  0.00    +0.000 HD
ENDBRANCH  15  17
ENDBRANCH  12  14
ENDBRANCH   1  12
TORSDOF 4
ENDMDL
MODEL 7
REMARK VINA RESULT:      -6.4      3.861      5.156
REMARK  Name = 
REMARK  4 active torsions:
REMARK  status: ('A' for Active; 'I' for Inactive)
REMARK    1  A    between atoms: C_2  and  C_3
REMARK    2  A    between atoms: C_3  and  N_4
REMARK    3  A    between atoms: C_5  and  C_7
REMARK    4  A    between atoms: N_14  and  O_15
REMARK                            x       y       z     vdW  Elec       q    Type
REMARK                         _______ _______ _______ _____ _____    ______ ____
ROOT
ATOM      1  N   UNL     1       4.965   3.683  17.050  0.00  0.00    +0.000 N 
ATOM      2  C   UNL     1       4.058   4.518  17.662  0.00  0.00    +0.000 C 
ATOM      3  O   UNL     1       3.824   5.653  17.265  0.00  0.00    +0.000 OA
ATOM      4  H   UNL     1       4.987   2.689  17.262  0.00  0.00    +0.000 HD
ENDROOT
BRANCH   2   5
ATOM      5  C   UNL     1       3.317   3.962  18.822  0.00  0.00    +0.000 A 
ATOM      6  C   UNL     1       3.915   3.071  19.722  0.00  0.00    +0.000 A 
ATOM      7  C   UNL     1       3.179   2.581  20.805  0.00  0.00    +0.000 A 
ATOM      8  C   UNL     1       1.851   2.974  20.981  0.00  0.00    +0.000 A 
ATOM      9 CL   UNL     1       0.941   2.349  22.301  0.00  0.00    +0.000 Cl
ATOM     10  C   UNL     1       1.256   3.871  20.095  0.00  0.00    +0.000 A 
ATOM     11  C   UNL     1       1.993   4.373  19.020  0.00  0.00    +0.000 A 
ENDBRANCH   2   5
BRANCH   1  12
ATOM     12  C   UNL     1       5.695   4.131  15.874  0.00  0.00    +0.000 C 
BRANCH  12  14
ATOM     13  O   UNL     1       8.010   4.398  16.540  0.00  0.00    +0.000 OA
ATOM     14  C   UNL     1       6.936   4.948  16.263  0.00  0.00    +0.000 C 
ATOM     15  N   UNL     1       6.792   6.299  16.275  0.00  0.00    +0.000 N 
ATOM     16  H   UNL     1       5.901   6.715  16.044  0.00  0.00    +0.000 HD
BRANCH  15  17
ATOM     17  O   UNL     1       7.819   7.208  16.593  0.00  0.00    +0.000 OA
ATOM     18  H   UNL     1       8.547   7.066  15.953  0.00  0.00    +0.000 HD
ENDBRANCH  15  17
ENDBRANCH  12  14
ENDBRANCH   1  12
TORSDOF 4
ENDMDL
MODEL 8
REMARK VINA RESULT:      -6.3      3.200      4.301
REMARK  Name = 
REMARK  4 active torsions:
REMARK  status: ('A' for Active; 'I' for Inactive)
REMARK    1  A    between atoms: C_2  and  C_3
REMARK    2  A    between atoms: C_3  and  N_4
REMARK    3  A    between atoms: C_5  and  C_7
REMARK    4  A    between atoms: N_14  and  O_15
REMARK                            x       y       z     vdW  Elec       q    Type
REMARK                         _______ _______ _______ _____ _____    ______ ____
ROOT
ATOM      1  N   UNL     1       6.177   4.273  17.321  0.00  0.00    +0.000 N 
ATOM      2  C   UNL     1       6.025   4.598  18.650  0.00  0.00    +0.000 C 
ATOM      3  O   UNL     1       6.847   5.260  19.272  0.00  0.00    +0.000 OA
ATOM      4  H   UNL     1       5.397   3.913  16.779  0.00  0.00    +0.000 HD
ENDROOT
BRANCH   2   5
ATOM      5  C   UNL     1       4.773   4.148  19.308  0.00  0.00    +0.000 A 
ATOM      6  C   UNL     1       4.533   2.798  19.595  0.00  0.00    +0.000 A 
ATOM      7  C   UNL     1       3.342   2.423  20.223  0.00  0.00    +0.000 A 
ATOM      8  C   UNL     1       2.394   3.392  20.555  0.00  0.00    +0.000 A 
ATOM      9 CL   UNL     1       0.918   2.924  21.306  0.00  0.00    +0.000 Cl
ATOM     10  C   UNL     1       2.633   4.738  20.284  0.00  0.00    +0.000 A 
ATOM     11  C   UNL     1       3.829   5.118  19.669  0.00  0.00    +0.000 A 
ENDBRANCH   2   5
BRANCH   1  12
ATOM     12  C   UNL     1       7.351   4.722  16.587  0.00  0.00    +0.000 C 
BRANCH  12  14
ATOM     13  O   UNL     1       6.260   3.922  14.577  0.00  0.00    +0.000 OA
ATOM     14  C   UNL     1       7.117   4.666  15.071  0.00  0.00    +0.000 C 
ATOM     15  N   UNL     1       7.890   5.483  14.309  0.00  0.00    +0.000 N 
ATOM     16  H   UNL     1       8.580   6.078  14.744  0.00  0.00    +0.000 HD
BRANCH  15  17
ATOM     17  O   UNL     1       7.809   5.578  12.906  0.00  0.00    +0.000 OA
ATOM     18  H   UNL     1       7.282   4.816  12.590  0.00  0.00    +0.000 HD
ENDBRANCH  15  17
ENDBRANCH  12  14
ENDBRANCH   1  12
TORSDOF 4
ENDMDL
MODEL 9
REMARK VINA RESULT:      -6.3      2.086      3.277
REMARK  Name = 
REMARK  4 active torsions:
REMARK  status: ('A' for Active; 'I' for Inactive)
REMARK    1  A    between atoms: C_2  and  C_3
REMARK    2  A    between atoms: C_3  and  N_4
REMARK    3  A    between atoms: C_5  and  C_7
REMARK    4  A    between atoms: N_14  and  O_15
REMARK                            x       y       z     vdW  Elec       q    Type
REMARK                         _______ _______ _______ _____ _____    ______ ____
ROOT
ATOM      1  N   UNL     1       6.057   4.634  16.452  0.00  0.00    +0.000 N 
ATOM      2  C   UNL     1       4.970   5.442  16.698  0.00  0.00    +0.000 C 
ATOM      3  O   UNL     1       4.884   6.590  16.278  0.00  0.00    +0.000 OA
ATOM      4  H   UNL     1       6.014   3.634  16.625  0.00  0.00    +0.000 HD
ENDROOT
BRANCH   2   5
ATOM      5  C   UNL     1       3.853   4.841  17.470  0.00  0.00    +0.000 A 
ATOM      6  C   UNL     1       3.376   3.552  17.196  0.00  0.00    +0.000 A 
ATOM      7  C   UNL     1       2.328   3.025  17.956  0.00  0.00    +0.000 A 
ATOM      8  C   UNL     1       1.755   3.786  18.977  0.00  0.00    +0.000 A 
ATOM      9 CL   UNL     1       0.448   3.143  19.893  0.00  0.00    +0.000 Cl
ATOM     10  C   UNL     1       2.235   5.064  19.262  0.00  0.00    +0.000 A 
ATOM     11  C   UNL     1       3.292   5.587  18.513  0.00  0.00    +0.000 A 
ENDBRANCH   2   5
BRANCH   1  12
ATOM     12  C   UNL     1       7.172   5.129  15.658  0.00  0.00    +0.000 C 
BRANCH  12  14
ATOM     13  O   UNL     1       7.555   5.377  13.278  0.00  0.00    +0.000 OA
ATOM     14  C   UNL     1       7.039   4.711  14.186  0.00  0.00    +0.000 C 
ATOM     15  N   UNL     1       6.340   3.573  13.941  0.00  0.00    +0.000 N 
ATOM     16  H   UNL     1       5.932   3.054  14.705  0.00  0.00    +0.000 HD
BRANCH  15  17
ATOM     17  O   UNL     1       6.125   3.029  12.659  0.00  0.00    +0.000 OA
ATOM     18  H   UNL     1       6.839   2.379  12.493  0.00  0.00    +0.000 HD
ENDBRANCH  15  17
ENDBRANCH  12  14
ENDBRANCH   1  12
TORSDOF 4
ENDMDL
