MODEL 1
REMARK VINA RESULT:      -8.0      0.000      0.000
REMARK  Name = 
REMARK  7 active torsions:
REMARK  status: ('A' for Active; 'I' for Inactive)
REMARK    1  A    between atoms: N_2  and  C_4
REMARK    2  A    between atoms: C_10  and  C_11
REMARK    3  A    between atoms: C_11  and  C_12
REMARK    4  A    between atoms: C_12  and  O_13
REMARK    5  A    between atoms: O_13  and  C_14
REMARK    6  A    between atoms: C_17  and  O_18
REMARK    7  A    between atoms: O_18  and  C_19
REMARK                            x       y       z     vdW  Elec       q    Type
REMARK                         _______ _______ _______ _____ _____    ______ ____
ROOT
ATOM      1  C   UNL     1       1.327   4.648  19.900  0.00  0.00    +0.000 C 
ENDROOT
BRANCH   1   8
ATOM      2  C   UNL     1       6.076   4.195  17.939  0.00  0.00    +0.000 A 
ATOM      3  C   UNL     1       5.143   3.927  16.954  0.00  0.00    +0.000 A 
ATOM      4  N   UNL     1       4.009   3.619  17.647  0.00  0.00    +0.000 N 
ATOM      5  C   UNL     1       4.283   3.699  18.979  0.00  0.00    +0.000 A 
ATOM      6  N   UNL     1       5.531   4.038  19.198  0.00  0.00    +0.000 NA
ATOM      7  O   UNL     1       3.420   3.401  19.941  0.00  0.00    +0.000 OA
ATOM      8  C   UNL     1       2.032   3.321  19.589  0.00  0.00    +0.000 C 
ATOM      9  C   UNL     1       1.752   2.792  18.174  0.00  0.00    +0.000 C 
ATOM     10  C   UNL     1       2.729   3.255  17.105  0.00  0.00    +0.000 C 
BRANCH   2  12
ATOM     11  O   UNL     1       7.898   4.519  16.591  0.00  0.00    +0.000 OA
ATOM     12  N   UNL     1       7.458   4.584  17.751  0.00  0.00    +0.000 N 
ATOM     13  O   UNL     1       8.099   4.952  18.742  0.00  0.00    +0.000 OA
ENDBRANCH   2  12
ENDBRANCH   1   8
BRANCH   1  14
ATOM     14  C   UNL     1       2.246   5.574  20.705  0.00  0.00    +0.000 C 
BRANCH  14  15
ATOM     15  O   UNL     1       2.800   6.549  19.819  0.00  0.00    +0.000 OA
BRANCH  15  16
ATOM     16  C   UNL     1       2.051   7.683  19.645  0.00  0.00    +0.000 A 
ATOM     17  C   UNL     1       2.035   8.195  18.349  0.00  0.00    +0.000 A 
ATOM     18  C   UNL     1       1.286   9.336  18.051  0.00  0.00    +0.000 A 
ATOM     19  C   UNL     1       0.518   9.964  19.035  0.00  0.00    +0.000 A 
ATOM     20  C   UNL     1       0.560   9.471  20.338  0.00  0.00    +0.000 A 
ATOM     21  C   UNL     1       1.307   8.324  20.637  0.00  0.00    +0.000 A 
BRANCH  19  22
ATOM     22  O   UNL     1      -0.171  11.058  18.617  0.00  0.00    +0.000 OA
BRANCH  22  23
ATOM     23  C   UNL     1      -1.555  10.939  18.320  0.00  0.00    +0.000 C 
ATOM     24  F   UNL     1      -2.058   9.697  18.486  0.00  0.00    +0.000 F 
ATOM     25  F   UNL     1      -2.254  11.797  19.094  0.00  0.00    +0.000 F 
ATOM     26  F   UNL     1      -1.746  11.288  17.027  0.00  0.00    +0.000 F 
ENDBRANCH  22  23
ENDBRANCH  19  22
ENDBRANCH  15  16
ENDBRANCH  14  15
ENDBRANCH   1  14
TORSDOF 7
ENDMDL
MODEL 2
REMARK VINA RESULT:      -8.0      0.874      1.457
REMARK  Name = 
REMARK  7 active torsions:
REMARK  status: ('A' for Active; 'I' for Inactive)
REMARK    1  A    between atoms: N_2  and  C_4
REMARK    2  A    between atoms: C_10  and  C_11
REMARK    3  A    between atoms: C_11  and  C_12
REMARK    4  A    between atoms: C_12  and  O_13
REMARK    5  A    between atoms: O_13  and  C_14
REMARK    6  A    between atoms: C_17  and  O_18
REMARK    7  A    between atoms: O_18  and  C_19
REMARK                            x       y       z     vdW  Elec       q    Type
REMARK                         _______ _______ _______ _____ _____    ______ ____
ROOT
ATOM      1  C   UNL     1       2.438   4.192  21.089  0.00  0.00    +0.000 C 
ENDROOT
BRANCH   1   8
ATOM      2  C   UNL     1       5.879   4.801  17.296  0.00  0.00    +0.000 A 
ATOM      3  C   UNL     1       4.601   4.869  16.773  0.00  0.00    +0.000 A 
ATOM      4  N   UNL     1       3.826   4.254  17.713  0.00  0.00    +0.000 N 
ATOM      5  C   UNL     1       4.630   3.841  18.732  0.00  0.00    +0.000 A 
ATOM      6  N   UNL     1       5.887   4.147  18.512  0.00  0.00    +0.000 NA
ATOM      7  O   UNL     1       4.213   3.151  19.783  0.00  0.00    +0.000 OA
ATOM      8  C   UNL     1       2.803   3.126  20.047  0.00  0.00    +0.000 C 
ATOM      9  C   UNL     1       1.909   3.156  18.797  0.00  0.00    +0.000 C 
ATOM     10  C   UNL     1       2.405   4.046  17.669  0.00  0.00    +0.000 C 
BRANCH   2  12
ATOM     11  O   UNL     1       7.204   6.550  16.641  0.00  0.00    +0.000 OA
ATOM     12  N   UNL     1       7.095   5.314  16.700  0.00  0.00    +0.000 N 
ATOM     13  O   UNL     1       7.934   4.499  16.298  0.00  0.00    +0.000 OA
ENDBRANCH   2  12
ENDBRANCH   1   8
BRANCH   1  14
ATOM     14  C   UNL     1       1.679   5.352  20.435  0.00  0.00    +0.000 C 
BRANCH  14  15
ATOM     15  O   UNL     1       2.607   6.402  20.153  0.00  0.00    +0.000 OA
BRANCH  15  16
ATOM     16  C   UNL     1       2.059   7.558  19.662  0.00  0.00    +0.000 A 
ATOM     17  C   UNL     1       1.305   8.295  20.573  0.00  0.00    +0.000 A 
ATOM     18  C   UNL     1       0.716   9.503  20.188  0.00  0.00    +0.000 A 
ATOM     19  C   UNL     1       0.899  10.007  18.897  0.00  0.00    +0.000 A 
ATOM     20  C   UNL     1       1.625   9.254  17.977  0.00  0.00    +0.000 A 
ATOM     21  C   UNL     1       2.219   8.045  18.363  0.00  0.00    +0.000 A 
BRANCH  19  22
ATOM     22  O   UNL     1       0.283  11.192  18.651  0.00  0.00    +0.000 OA
BRANCH  22  23
ATOM     23  C   UNL     1      -1.108  11.208  18.360  0.00  0.00    +0.000 C 
ATOM     24  F   UNL     1      -1.906  11.267  19.447  0.00  0.00    +0.000 F 
ATOM     25  F   UNL     1      -1.386  12.261  17.562  0.00  0.00    +0.000 F 
ATOM     26  F   UNL     1      -1.417  10.077  17.687  0.00  0.00    +0.000 F 
ENDBRANCH  22  23
ENDBRANCH  19  22
ENDBRANCH  15  16
ENDBRANCH  14  15
ENDBRANCH   1  14
TORSDOF 7
ENDMDL
MODEL 3
REMARK VINA RESULT:      -7.9      0.421      1.028
REMARK  Name = 
REMARK  7 active torsions:
REMARK  status: ('A' for Active; 'I' for Inactive)
REMARK    1  A    between atoms: N_2  and  C_4
REMARK    2  A    between atoms: C_10  and  C_11
REMARK    3  A    between atoms: C_11  and  C_12
REMARK    4  A    between atoms: C_12  and  O_13
REMARK    5  A    between atoms: O_13  and  C_14
REMARK    6  A    between atoms: C_17  and  O_18
REMARK    7  A    between atoms: O_18  and  C_19
REMARK                            x       y       z     vdW  Elec       q    Type
REMARK                         _______ _______ _______ _____ _____    ______ ____
ROOT
ATOM      1  C   UNL     1       1.344   4.367  20.080  0.00  0.00    +0.000 C 
ENDROOT
BRANCH   1   8
ATOM      2  C   UNL     1       6.072   4.340  18.022  0.00  0.00    +0.000 A 
ATOM      3  C   UNL     1       5.140   4.077  17.036  0.00  0.00    +0.000 A 
ATOM      4  N   UNL     1       4.040   3.655  17.724  0.00  0.00    +0.000 N 
ATOM      5  C   UNL     1       4.334   3.666  19.054  0.00  0.00    +0.000 A 
ATOM      6  N   UNL     1       5.563   4.068  19.275  0.00  0.00    +0.000 NA
ATOM      7  O   UNL     1       3.510   3.254  20.007  0.00  0.00    +0.000 OA
ATOM      8  C   UNL     1       2.123   3.110  19.672  0.00  0.00    +0.000 C 
ATOM      9  C   UNL     1       1.848   2.658  18.230  0.00  0.00    +0.000 C 
ATOM     10  C   UNL     1       2.775   3.248  17.179  0.00  0.00    +0.000 C 
BRANCH   2  12
ATOM     11  O   UNL     1       8.026   4.420  16.829  0.00  0.00    +0.000 OA
ATOM     12  N   UNL     1       7.425   4.825  17.838  0.00  0.00    +0.000 N 
ATOM     13  O   UNL     1       7.883   5.601  18.683  0.00  0.00    +0.000 OA
ENDBRANCH   2  12
ENDBRANCH   1   8
BRANCH   1  14
ATOM     14  C   UNL     1       2.280   5.401  20.717  0.00  0.00    +0.000 C 
BRANCH  14  15
ATOM     15  O   UNL     1       2.801   6.242  19.685  0.00  0.00    +0.000 OA
BRANCH  15  16
ATOM     16  C   UNL     1       2.133   7.423  19.492  0.00  0.00    +0.000 A 
ATOM     17  C   UNL     1       1.510   7.948  20.623  0.00  0.00    +0.000 A 
ATOM     18  C   UNL     1       0.819   9.160  20.548  0.00  0.00    +0.000 A 
ATOM     19  C   UNL     1       0.766   9.880  19.352  0.00  0.00    +0.000 A 
ATOM     20  C   UNL     1       1.361   9.339  18.214  0.00  0.00    +0.000 A 
ATOM     21  C   UNL     1       2.058   8.126  18.289  0.00  0.00    +0.000 A 
BRANCH  19  22
ATOM     22  O   UNL     1       0.071  11.046  19.412  0.00  0.00    +0.000 OA
BRANCH  22  23
ATOM     23  C   UNL     1      -1.257  11.093  18.908  0.00  0.00    +0.000 C 
ATOM     24  F   UNL     1      -1.803   9.884  18.659  0.00  0.00    +0.000 F 
ATOM     25  F   UNL     1      -2.045  11.752  19.784  0.00  0.00    +0.000 F 
ATOM     26  F   UNL     1      -1.248  11.785  17.746  0.00  0.00    +0.000 F 
ENDBRANCH  22  23
ENDBRANCH  19  22
ENDBRANCH  15  16
ENDBRANCH  14  15
ENDBRANCH   1  14
TORSDOF 7
ENDMDL
MODEL 4
REMARK VINA RESULT:      -7.9      4.137      5.861
REMARK  Name = 
REMARK  7 active torsions:
REMARK  status: ('A' for Active; 'I' for Inactive)
REMARK    1  A    between atoms: N_2  and  C_4
REMARK    2  A    between atoms: C_10  and  C_11
REMARK    3  A    between atoms: C_11  and  C_12
REMARK    4  A    between atoms: C_12  and  O_13
REMARK    5  A    between atoms: O_13  and  C_14
REMARK    6  A    between atoms: C_17  and  O_18
REMARK    7  A    between atoms: O_18  and  C_19
REMARK                            x       y       z     vdW  Elec       q    Type
REMARK                         _______ _______ _______ _____ _____    ______ ____
ROOT
ATOM      1  C   UNL     1       5.997   7.413  17.645  0.00  0.00    +0.000 C 
ENDROOT
BRANCH   1   8
ATOM      2  C   UNL     1       6.360   4.008  13.789  0.00  0.00    +0.000 A 
ATOM      3  C   UNL     1       5.816   3.389  14.899  0.00  0.00    +0.000 A 
ATOM      4  N   UNL     1       6.187   4.191  15.939  0.00  0.00    +0.000 N 
ATOM      5  C   UNL     1       6.923   5.225  15.445  0.00  0.00    +0.000 A 
ATOM      6  N   UNL     1       7.058   5.144  14.143  0.00  0.00    +0.000 NA
ATOM      7  O   UNL     1       7.496   6.160  16.190  0.00  0.00    +0.000 OA
ATOM      8  C   UNL     1       7.048   6.299  17.545  0.00  0.00    +0.000 C 
ATOM      9  C   UNL     1       6.623   4.989  18.226  0.00  0.00    +0.000 C 
ATOM     10  C   UNL     1       5.885   4.005  17.332  0.00  0.00    +0.000 C 
BRANCH   2  12
ATOM     11  O   UNL     1       7.306   3.615  11.741  0.00  0.00    +0.000 OA
ATOM     12  N   UNL     1       6.261   3.573  12.411  0.00  0.00    +0.000 N 
ATOM     13  O   UNL     1       5.160   3.191  12.000  0.00  0.00    +0.000 OA
ENDBRANCH   2  12
ENDBRANCH   1   8
BRANCH   1  14
ATOM     14  C   UNL     1       4.687   6.983  16.974  0.00  0.00    +0.000 C 
BRANCH  14  15
ATOM     15  O   UNL     1       3.597   7.590  17.672  0.00  0.00    +0.000 OA
BRANCH  15  16
ATOM     16  C   UNL     1       2.871   6.751  18.477  0.00  0.00    +0.000 A 
ATOM     17  C   UNL     1       2.623   5.484  17.950  0.00  0.00    +0.000 A 
ATOM     18  C   UNL     1       1.911   4.539  18.692  0.00  0.00    +0.000 A 
ATOM     19  C   UNL     1       1.464   4.833  19.983  0.00  0.00    +0.000 A 
ATOM     20  C   UNL     1       1.684   6.110  20.497  0.00  0.00    +0.000 A 
ATOM     21  C   UNL     1       2.401   7.057  19.755  0.00  0.00    +0.000 A 
BRANCH  19  22
ATOM     22  O   UNL     1       0.792   3.827  20.602  0.00  0.00    +0.000 OA
BRANCH  22  23
ATOM     23  C   UNL     1       1.522   2.830  21.303  0.00  0.00    +0.000 C 
ATOM     24  F   UNL     1       0.886   2.327  22.383  0.00  0.00    +0.000 F 
ATOM     25  F   UNL     1       1.813   1.815  20.462  0.00  0.00    +0.000 F 
ATOM     26  F   UNL     1       2.686   3.371  21.729  0.00  0.00    +0.000 F 
ENDBRANCH  22  23
ENDBRANCH  19  22
ENDBRANCH  15  16
ENDBRANCH  14  15
ENDBRANCH   1  14
TORSDOF 7
ENDMDL
MODEL 5
REMARK VINA RESULT:      -7.8      0.786      1.046
REMARK  Name = 
REMARK  7 active torsions:
REMARK  status: ('A' for Active; 'I' for Inactive)
REMARK    1  A    between atoms: N_2  and  C_4
REMARK    2  A    between atoms: C_10  and  C_11
REMARK    3  A    between atoms: C_11  and  C_12
REMARK    4  A    between atoms: C_12  and  O_13
REMARK    5  A    between atoms: O_13  and  C_14
REMARK    6  A    between atoms: C_17  and  O_18
REMARK    7  A    between atoms: O_18  and  C_19
REMARK                            x       y       z     vdW  Elec       q    Type
REMARK                         _______ _______ _______ _____ _____    ______ ____
ROOT
ATOM      1  C   UNL     1       2.034   4.032  20.850  0.00  0.00    +0.000 C 
ENDROOT
BRANCH   1   8
ATOM      2  C   UNL     1       5.798   4.358  17.340  0.00  0.00    +0.000 A 
ATOM      3  C   UNL     1       4.610   4.034  16.712  0.00  0.00    +0.000 A 
ATOM      4  N   UNL     1       3.833   3.530  17.713  0.00  0.00    +0.000 N 
ATOM      5  C   UNL     1       4.551   3.555  18.871  0.00  0.00    +0.000 A 
ATOM      6  N   UNL     1       5.754   4.043  18.683  0.00  0.00    +0.000 NA
ATOM      7  O   UNL     1       4.121   3.078  20.030  0.00  0.00    +0.000 OA
ATOM      8  C   UNL     1       2.714   2.836  20.170  0.00  0.00    +0.000 C 
ATOM      9  C   UNL     1       2.006   2.373  18.888  0.00  0.00    +0.000 C 
ATOM     10  C   UNL     1       2.488   3.035  17.607  0.00  0.00    +0.000 C 
BRANCH   2  12
ATOM     11  O   UNL     1       6.803   5.976  16.069  0.00  0.00    +0.000 OA
ATOM     12  N   UNL     1       6.977   4.941  16.733  0.00  0.00    +0.000 N 
ATOM     13  O   UNL     1       8.063   4.379  16.915  0.00  0.00    +0.000 OA
ENDBRANCH   2  12
ENDBRANCH   1   8
BRANCH   1  14
ATOM     14  C   UNL     1       1.680   5.112  19.821  0.00  0.00    +0.000 C 
BRANCH  14  15
ATOM     15  O   UNL     1       2.567   6.219  19.999  0.00  0.00    +0.000 OA
BRANCH  15  16
ATOM     16  C   UNL     1       2.016   7.456  19.790  0.00  0.00    +0.000 A 
ATOM     17  C   UNL     1       2.119   7.944  18.489  0.00  0.00    +0.000 A 
ATOM     18  C   UNL     1       1.572   9.186  18.156  0.00  0.00    +0.000 A 
ATOM     19  C   UNL     1       0.889   9.944  19.110  0.00  0.00    +0.000 A 
ATOM     20  C   UNL     1       0.814   9.471  20.419  0.00  0.00    +0.000 A 
ATOM     21  C   UNL     1       1.358   8.224  20.753  0.00  0.00    +0.000 A 
BRANCH  19  22
ATOM     22  O   UNL     1       0.398  11.128  18.660  0.00  0.00    +0.000 OA
BRANCH  22  23
ATOM     23  C   UNL     1      -1.008  11.315  18.579  0.00  0.00    +0.000 C 
ATOM     24  F   UNL     1      -1.602  11.611  19.755  0.00  0.00    +0.000 F 
ATOM     25  F   UNL     1      -1.279  12.300  17.696  0.00  0.00    +0.000 F 
ATOM     26  F   UNL     1      -1.565  10.172  18.117  0.00  0.00    +0.000 F 
ENDBRANCH  22  23
ENDBRANCH  19  22
ENDBRANCH  15  16
ENDBRANCH  14  15
ENDBRANCH   1  14
TORSDOF 7
ENDMDL
MODEL 6
REMARK VINA RESULT:      -7.8      1.960      2.816
REMARK  Name = 
REMARK  7 active torsions:
REMARK  status: ('A' for Active; 'I' for Inactive)
REMARK    1  A    between atoms: N_2  and  C_4
REMARK    2  A    between atoms: C_10  and  C_11
REMARK    3  A    between atoms: C_11  and  C_12
REMARK    4  A    between atoms: C_12  and  O_13
REMARK    5  A    between atoms: O_13  and  C_14
REMARK    6  A    between atoms: C_17  and  O_18
REMARK    7  A    between atoms: O_18  and  C_19
REMARK                            x       y       z     vdW  Elec       q    Type
REMARK                         _______ _______ _______ _____ _____    ______ ____
ROOT
ATOM      1  C   UNL     1       5.162   5.620  19.307  0.00  0.00    +0.000 C 
ENDROOT
BRANCH   1   8
ATOM      2  C   UNL     1       6.934   4.747  14.543  0.00  0.00    +0.000 A 
ATOM      3  C   UNL     1       5.628   4.304  14.637  0.00  0.00    +0.000 A 
ATOM      4  N   UNL     1       5.427   4.148  15.977  0.00  0.00    +0.000 N 
ATOM      5  C   UNL     1       6.577   4.479  16.627  0.00  0.00    +0.000 A 
ATOM      6  N   UNL     1       7.519   4.841  15.790  0.00  0.00    +0.000 NA
ATOM      7  O   UNL     1       6.752   4.382  17.938  0.00  0.00    +0.000 OA
ATOM      8  C   UNL     1       5.582   4.250  18.758  0.00  0.00    +0.000 C 
ATOM      9  C   UNL     1       4.428   3.463  18.120  0.00  0.00    +0.000 C 
ATOM     10  C   UNL     1       4.228   3.701  16.631  0.00  0.00    +0.000 C 
BRANCH   2  12
ATOM     11  O   UNL     1       8.587   5.895  13.451  0.00  0.00    +0.000 OA
ATOM     12  N   UNL     1       7.660   5.076  13.334  0.00  0.00    +0.000 N 
ATOM     13  O   UNL     1       7.317   4.526  12.282  0.00  0.00    +0.000 OA
ENDBRANCH   2  12
ENDBRANCH   1   8
BRANCH   1  14
ATOM     14  C   UNL     1       3.643   5.683  19.502  0.00  0.00    +0.000 C 
BRANCH  14  15
ATOM     15  O   UNL     1       3.079   6.459  18.442  0.00  0.00    +0.000 OA
BRANCH  15  16
ATOM     16  C   UNL     1       2.375   7.568  18.832  0.00  0.00    +0.000 A 
ATOM     17  C   UNL     1       2.187   8.533  17.844  0.00  0.00    +0.000 A 
ATOM     18  C   UNL     1       1.464   9.697  18.124  0.00  0.00    +0.000 A 
ATOM     19  C   UNL     1       0.894   9.898  19.383  0.00  0.00    +0.000 A 
ATOM     20  C   UNL     1       1.110   8.948  20.380  0.00  0.00    +0.000 A 
ATOM     21  C   UNL     1       1.830   7.780  20.100  0.00  0.00    +0.000 A 
BRANCH  19  22
ATOM     22  O   UNL     1       0.210  11.064  19.526  0.00  0.00    +0.000 OA
BRANCH  22  23
ATOM     23  C   UNL     1      -1.147  11.130  19.112  0.00  0.00    +0.000 C 
ATOM     24  F   UNL     1      -1.985  11.662  20.027  0.00  0.00    +0.000 F 
ATOM     25  F   UNL     1      -1.234  11.853  17.975  0.00  0.00    +0.000 F 
ATOM     26  F   UNL     1      -1.575   9.875  18.846  0.00  0.00    +0.000 F 
ENDBRANCH  22  23
ENDBRANCH  19  22
ENDBRANCH  15  16
ENDBRANCH  14  15
ENDBRANCH   1  14
TORSDOF 7
ENDMDL
MODEL 7
REMARK VINA RESULT:      -7.8      4.215      5.906
REMARK  Name = 
REMARK  7 active torsions:
REMARK  status: ('A' for Active; 'I' for Inactive)
REMARK    1  A    between atoms: N_2  and  C_4
REMARK    2  A    between atoms: C_10  and  C_11
REMARK    3  A    between atoms: C_11  and  C_12
REMARK    4  A    between atoms: C_12  and  O_13
REMARK    5  A    between atoms: O_13  and  C_14
REMARK    6  A    between atoms: C_17  and  O_18
REMARK    7  A    between atoms: O_18  and  C_19
REMARK                            x       y       z     vdW  Elec       q    Type
REMARK                         _______ _______ _______ _____ _____    ______ ____
ROOT
ATOM      1  C   UNL     1       5.983   7.485  17.852  0.00  0.00    +0.000 C 
ENDROOT
BRANCH   1   8
ATOM      2  C   UNL     1       6.568   4.173  13.942  0.00  0.00    +0.000 A 
ATOM      3  C   UNL     1       5.984   3.523  15.013  0.00  0.00    +0.000 A 
ATOM      4  N   UNL     1       6.296   4.305  16.086  0.00  0.00    +0.000 N 
ATOM      5  C   UNL     1       7.039   5.360  15.648  0.00  0.00    +0.000 A 
ATOM      6  N   UNL     1       7.233   5.311  14.352  0.00  0.00    +0.000 NA
ATOM      7  O   UNL     1       7.565   6.285  16.439  0.00  0.00    +0.000 OA
ATOM      8  C   UNL     1       7.054   6.388  17.775  0.00  0.00    +0.000 C 
ATOM      9  C   UNL     1       6.618   5.057  18.407  0.00  0.00    +0.000 C 
ATOM     10  C   UNL     1       5.934   4.084  17.459  0.00  0.00    +0.000 C 
BRANCH   2  12
ATOM     11  O   UNL     1       5.719   2.884  12.251  0.00  0.00    +0.000 OA
ATOM     12  N   UNL     1       6.537   3.769  12.552  0.00  0.00    +0.000 N 
ATOM     13  O   UNL     1       7.314   4.325  11.767  0.00  0.00    +0.000 OA
ENDBRANCH   2  12
ENDBRANCH   1   8
BRANCH   1  14
ATOM     14  C   UNL     1       4.812   7.166  16.916  0.00  0.00    +0.000 C 
BRANCH  14  15
ATOM     15  O   UNL     1       3.597   7.564  17.554  0.00  0.00    +0.000 OA
BRANCH  15  16
ATOM     16  C   UNL     1       2.962   6.589  18.278  0.00  0.00    +0.000 A 
ATOM     17  C   UNL     1       2.564   6.961  19.561  0.00  0.00    +0.000 A 
ATOM     18  C   UNL     1       1.889   6.053  20.381  0.00  0.00    +0.000 A 
ATOM     19  C   UNL     1       1.574   4.772  19.921  0.00  0.00    +0.000 A 
ATOM     20  C   UNL     1       2.001   4.389  18.650  0.00  0.00    +0.000 A 
ATOM     21  C   UNL     1       2.674   5.300  17.826  0.00  0.00    +0.000 A 
BRANCH  19  22
ATOM     22  O   UNL     1       0.909   3.989  20.810  0.00  0.00    +0.000 OA
BRANCH  22  23
ATOM     23  C   UNL     1       1.538   2.819  21.315  0.00  0.00    +0.000 C 
ATOM     24  F   UNL     1       1.736   1.850  20.396  0.00  0.00    +0.000 F 
ATOM     25  F   UNL     1       2.729   3.150  21.858  0.00  0.00    +0.000 F 
ATOM     26  F   UNL     1       0.758   2.303  22.292  0.00  0.00    +0.000 F 
ENDBRANCH  22  23
ENDBRANCH  19  22
ENDBRANCH  15  16
ENDBRANCH  14  15
ENDBRANCH   1  14
TORSDOF 7
ENDMDL
MODEL 8
REMARK VINA RESULT:      -7.7      1.676      1.918
REMARK  Name = 
REMARK  7 active torsions:
REMARK  status: ('A' for Active; 'I' for Inactive)
REMARK    1  A    between atoms: N_2  and  C_4
REMARK    2  A    between atoms: C_10  and  C_11
REMARK    3  A    between atoms: C_11  and  C_12
REMARK    4  A    between atoms: C_12  and  O_13
REMARK    5  A    between atoms: O_13  and  C_14
REMARK    6  A    between atoms: C_17  and  O_18
REMARK    7  A    between atoms: O_18  and  C_19
REMARK                            x       y       z     vdW  Elec       q    Type
REMARK                         _______ _______ _______ _____ _____    ______ ____
ROOT
ATOM      1  C   UNL     1       2.234   4.444  21.083  0.00  0.00    +0.000 C 
ENDROOT
BRANCH   1   8
ATOM      2  C   UNL     1       5.897   4.558  17.454  0.00  0.00    +0.000 A 
ATOM      3  C   UNL     1       4.654   4.664  16.858  0.00  0.00    +0.000 A 
ATOM      4  N   UNL     1       3.794   4.170  17.794  0.00  0.00    +0.000 N 
ATOM      5  C   UNL     1       4.517   3.786  18.883  0.00  0.00    +0.000 A 
ATOM      6  N   UNL     1       5.800   3.998  18.712  0.00  0.00    +0.000 NA
ATOM      7  O   UNL     1       4.002   3.203  19.956  0.00  0.00    +0.000 OA
ATOM      8  C   UNL     1       2.582   3.283  20.142  0.00  0.00    +0.000 C 
ATOM      9  C   UNL     1       1.758   3.274  18.846  0.00  0.00    +0.000 C 
ATOM     10  C   UNL     1       2.367   4.045  17.686  0.00  0.00    +0.000 C 
BRANCH   2  12
ATOM     11  O   UNL     1       7.187   6.007  16.237  0.00  0.00    +0.000 OA
ATOM     12  N   UNL     1       7.172   4.951  16.891  0.00  0.00    +0.000 N 
ATOM     13  O   UNL     1       8.148   4.221  17.099  0.00  0.00    +0.000 OA
ENDBRANCH   2  12
ENDBRANCH   1   8
BRANCH   1  14
ATOM     14  C   UNL     1       1.512   5.561  20.322  0.00  0.00    +0.000 C 
BRANCH  14  15
ATOM     15  O   UNL     1       2.477   6.539  19.923  0.00  0.00    +0.000 OA
BRANCH  15  16
ATOM     16  C   UNL     1       1.985   7.799  19.707  0.00  0.00    +0.000 A 
ATOM     17  C   UNL     1       2.211   8.318  18.433  0.00  0.00    +0.000 A 
ATOM     18  C   UNL     1       1.734   9.587  18.095  0.00  0.00    +0.000 A 
ATOM     19  C   UNL     1       0.999  10.343  19.011  0.00  0.00    +0.000 A 
ATOM     20  C   UNL     1       0.802   9.838  20.295  0.00  0.00    +0.000 A 
ATOM     21  C   UNL     1       1.275   8.564  20.635  0.00  0.00    +0.000 A 
BRANCH  19  22
ATOM     22  O   UNL     1       0.586  11.555  18.558  0.00  0.00    +0.000 OA
BRANCH  22  23
ATOM     23  C   UNL     1       1.417  12.692  18.749  0.00  0.00    +0.000 C 
ATOM     24  F   UNL     1       2.220  12.621  19.832  0.00  0.00    +0.000 F 
ATOM     25  F   UNL     1       2.185  12.874  17.653  0.00  0.00    +0.000 F 
ATOM     26  F   UNL     1       0.627  13.779  18.895  0.00  0.00    +0.000 F 
ENDBRANCH  22  23
ENDBRANCH  19  22
ENDBRANCH  15  16
ENDBRANCH  14  15
ENDBRANCH   1  14
TORSDOF 7
ENDMDL
MODEL 9
REMARK VINA RESULT:      -7.7      1.309      1.462
REMARK  Name = 
REMARK  7 active torsions:
REMARK  status: ('A' for Active; 'I' for Inactive)
REMARK    1  A    between atoms: N_2  and  C_4
REMARK    2  A    between atoms: C_10  and  C_11
REMARK    3  A    between atoms: C_11  and  C_12
REMARK    4  A    between atoms: C_12  and  O_13
REMARK    5  A    between atoms: O_13  and  C_14
REMARK    6  A    between atoms: C_17  and  O_18
REMARK    7  A    between atoms: O_18  and  C_19
REMARK                            x       y       z     vdW  Elec       q    Type
REMARK                         _______ _______ _______ _____ _____    ______ ____
ROOT
ATOM      1  C   UNL     1       1.364   4.536  19.754  0.00  0.00    +0.000 C 
ENDROOT
BRANCH   1   8
ATOM      2  C   UNL     1       6.064   4.291  17.645  0.00  0.00    +0.000 A 
ATOM      3  C   UNL     1       5.122   3.879  16.720  0.00  0.00    +0.000 A 
ATOM      4  N   UNL     1       4.040   3.541  17.478  0.00  0.00    +0.000 N 
ATOM      5  C   UNL     1       4.351   3.743  18.789  0.00  0.00    +0.000 A 
ATOM      6  N   UNL     1       5.576   4.190  18.932  0.00  0.00    +0.000 NA
ATOM      7  O   UNL     1       3.548   3.456  19.803  0.00  0.00    +0.000 OA
ATOM      8  C   UNL     1       2.159   3.245  19.513  0.00  0.00    +0.000 C 
ATOM      9  C   UNL     1       1.872   2.591  18.153  0.00  0.00    +0.000 C 
ATOM     10  C   UNL     1       2.774   3.042  17.015  0.00  0.00    +0.000 C 
BRANCH   2  12
ATOM     11  O   UNL     1       7.498   5.852  16.778  0.00  0.00    +0.000 OA
ATOM     12  N   UNL     1       7.405   4.766  17.374  0.00  0.00    +0.000 N 
ATOM     13  O   UNL     1       8.355   4.070  17.750  0.00  0.00    +0.000 OA
ENDBRANCH   2  12
ENDBRANCH   1   8
BRANCH   1  14
ATOM     14  C   UNL     1       2.132   5.479  20.686  0.00  0.00    +0.000 C 
BRANCH  14  15
ATOM     15  O   UNL     1       2.803   6.460  19.892  0.00  0.00    +0.000 OA
BRANCH  15  16
ATOM     16  C   UNL     1       2.109   7.622  19.677  0.00  0.00    +0.000 A 
ATOM     17  C   UNL     1       2.134   8.099  18.368  0.00  0.00    +0.000 A 
ATOM     18  C   UNL     1       1.442   9.265  18.029  0.00  0.00    +0.000 A 
ATOM     19  C   UNL     1       0.690   9.953  18.984  0.00  0.00    +0.000 A 
ATOM     20  C   UNL     1       0.691   9.493  20.301  0.00  0.00    +0.000 A 
ATOM     21  C   UNL     1       1.381   8.322  20.640  0.00  0.00    +0.000 A 
BRANCH  19  22
ATOM     22  O   UNL     1       0.058  11.065  18.528  0.00  0.00    +0.000 OA
BRANCH  22  23
ATOM     23  C   UNL     1       0.567  12.347  18.870  0.00  0.00    +0.000 C 
ATOM     24  F   UNL     1       0.239  13.328  18.004  0.00  0.00    +0.000 F 
ATOM     25  F   UNL     1       0.126  12.689  20.100  0.00  0.00    +0.000 F 
ATOM     26  F   UNL     1       1.916  12.273  18.913  0.00  0.00    +0.000 F 
ENDBRANCH  22  23
ENDBRANCH  19  22
ENDBRANCH  15  16
ENDBRANCH  14  15
ENDBRANCH   1  14
TORSDOF 7
ENDMDL
