MODEL 1
REMARK VINA RESULT:      -7.7      0.000      0.000
REMARK  Name = 
REMARK  5 active torsions:
REMARK  status: ('A' for Active; 'I' for Inactive)
REMARK    1  A    between atoms: C_1  and  O_2
REMARK    2  A    between atoms: O_2  and  C_3
REMARK    3  A    between atoms: C_6  and  C_7
REMARK    4  A    between atoms: C_7  and  C_8
REMARK    5  A    between atoms: C_14  and  C_15
REMARK                            x       y       z     vdW  Elec       q    Type
REMARK                         _______ _______ _______ _____ _____    ______ ____
ROOT
ATOM      1  C   UNL     1       3.894   3.165  17.651  0.00  0.00    +0.000 A 
ATOM      2  N   UNL     1       3.958   1.864  17.873  0.00  0.00    +0.000 NA
ATOM      3  N   UNL     1       3.292   1.600  19.045  0.00  0.00    +0.000 NA
ATOM      4  C   UNL     1       2.824   2.742  19.486  0.00  0.00    +0.000 A 
ATOM      5  N   UNL     1       3.126   3.766  18.624  0.00  0.00    +0.000 N 
ATOM      6  N   UNL     1       2.845   5.101  18.726  0.00  0.00    +0.000 NA
ATOM      7  C   UNL     1       1.959   5.450  19.621  0.00  0.00    +0.000 C 
ATOM      8  C   UNL     1       1.080   4.492  20.416  0.00  0.00    +0.000 C 
ATOM      9  S   UNL     1       1.993   3.036  20.959  0.00  0.00    +0.000 S 
ENDROOT
BRANCH   7  10
ATOM     10  C   UNL     1       1.744   6.918  19.843  0.00  0.00    +0.000 A 
ATOM     11  C   UNL     1       2.008   7.865  18.848  0.00  0.00    +0.000 A 
ATOM     12  C   UNL     1       1.737   9.217  19.074  0.00  0.00    +0.000 A 
ATOM     13  C   UNL     1       1.216   9.630  20.300  0.00  0.00    +0.000 A 
ATOM     14  C   UNL     1       0.970   8.697  21.304  0.00  0.00    +0.000 A 
ATOM     15  C   UNL     1       1.233   7.343  21.080  0.00  0.00    +0.000 A 
ENDBRANCH   7  10
BRANCH   1  16
ATOM     16  C   UNL     1       4.554   3.910  16.546  0.00  0.00    +0.000 C 
BRANCH  16  20
ATOM     17  C   UNL     1       7.468   6.763  18.001  0.00  0.00    +0.000 A 
ATOM     18  C   UNL     1       6.397   7.188  17.217  0.00  0.00    +0.000 A 
ATOM     19  C   UNL     1       5.457   6.270  16.744  0.00  0.00    +0.000 A 
ATOM     20  C   UNL     1       5.591   4.902  17.028  0.00  0.00    +0.000 A 
ATOM     21  C   UNL     1       6.687   4.480  17.791  0.00  0.00    +0.000 A 
ATOM     22  C   UNL     1       7.619   5.404  18.276  0.00  0.00    +0.000 A 
BRANCH  17  24
ATOM     23  C   UNL     1       8.123   9.026  17.814  0.00  0.00    +0.000 C 
ATOM     24  O   UNL     1       8.324   7.750  18.411  0.00  0.00    +0.000 OA
ENDBRANCH  17  24
ENDBRANCH  16  20
ENDBRANCH   1  16
TORSDOF 4
ENDMDL
MODEL 2
REMARK VINA RESULT:      -7.6      2.174      2.971
REMARK  Name = 
REMARK  5 active torsions:
REMARK  status: ('A' for Active; 'I' for Inactive)
REMARK    1  A    between atoms: C_1  and  O_2
REMARK    2  A    between atoms: O_2  and  C_3
REMARK    3  A    between atoms: C_6  and  C_7
REMARK    4  A    between atoms: C_7  and  C_8
REMARK    5  A    between atoms: C_14  and  C_15
REMARK                            x       y       z     vdW  Elec       q    Type
REMARK                         _______ _______ _______ _____ _____    ______ ____
ROOT
ATOM      1  C   UNL     1       5.086   4.173  19.166  0.00  0.00    +0.000 A 
ATOM      2  N   UNL     1       5.201   2.880  19.410  0.00  0.00    +0.000 NA
ATOM      3  N   UNL     1       4.106   2.487  20.140  0.00  0.00    +0.000 NA
ATOM      4  C   UNL     1       3.348   3.544  20.295  0.00  0.00    +0.000 A 
ATOM      5  N   UNL     1       3.886   4.636  19.660  0.00  0.00    +0.000 N 
ATOM      6  N   UNL     1       3.425   5.922  19.602  0.00  0.00    +0.000 NA
ATOM      7  C   UNL     1       2.190   6.124  19.976  0.00  0.00    +0.000 C 
ATOM      8  C   UNL     1       1.169   5.034  20.281  0.00  0.00    +0.000 C 
ATOM      9  S   UNL     1       1.899   3.671  21.207  0.00  0.00    +0.000 S 
ENDROOT
BRANCH   7  10
ATOM     10  C   UNL     1       1.715   7.545  20.052  0.00  0.00    +0.000 A 
ATOM     11  C   UNL     1       1.776   8.408  18.952  0.00  0.00    +0.000 A 
ATOM     12  C   UNL     1       1.267   9.705  19.047  0.00  0.00    +0.000 A 
ATOM     13  C   UNL     1       0.710  10.152  20.245  0.00  0.00    +0.000 A 
ATOM     14  C   UNL     1       0.664   9.307  21.351  0.00  0.00    +0.000 A 
ATOM     15  C   UNL     1       1.165   8.006  21.258  0.00  0.00    +0.000 A 
ENDBRANCH   7  10
BRANCH   1  16
ATOM     16  C   UNL     1       6.084   5.041  18.486  0.00  0.00    +0.000 C 
BRANCH  16  20
ATOM     17  C   UNL     1       6.315   4.306  14.225  0.00  0.00    +0.000 A 
ATOM     18  C   UNL     1       7.423   4.788  14.917  0.00  0.00    +0.000 A 
ATOM     19  C   UNL     1       7.352   5.029  16.291  0.00  0.00    +0.000 A 
ATOM     20  C   UNL     1       6.155   4.814  16.990  0.00  0.00    +0.000 A 
ATOM     21  C   UNL     1       5.035   4.359  16.281  0.00  0.00    +0.000 A 
ATOM     22  C   UNL     1       5.115   4.104  14.907  0.00  0.00    +0.000 A 
BRANCH  17  24
ATOM     23  C   UNL     1       5.612   3.175  12.272  0.00  0.00    +0.000 C 
ATOM     24  O   UNL     1       6.501   4.103  12.884  0.00  0.00    +0.000 OA
ENDBRANCH  17  24
ENDBRANCH  16  20
ENDBRANCH   1  16
TORSDOF 4
ENDMDL
MODEL 3
REMARK VINA RESULT:      -7.6      0.210      1.003
REMARK  Name = 
REMARK  5 active torsions:
REMARK  status: ('A' for Active; 'I' for Inactive)
REMARK    1  A    between atoms: C_1  and  O_2
REMARK    2  A    between atoms: O_2  and  C_3
REMARK    3  A    between atoms: C_6  and  C_7
REMARK    4  A    between atoms: C_7  and  C_8
REMARK    5  A    between atoms: C_14  and  C_15
REMARK                            x       y       z     vdW  Elec       q    Type
REMARK                         _______ _______ _______ _____ _____    ______ ____
ROOT
ATOM      1  C   UNL     1       4.023   3.211  17.856  0.00  0.00    +0.000 A 
ATOM      2  N   UNL     1       4.106   1.922  18.133  0.00  0.00    +0.000 NA
ATOM      3  N   UNL     1       3.419   1.694  19.300  0.00  0.00    +0.000 NA
ATOM      4  C   UNL     1       2.920   2.843  19.683  0.00  0.00    +0.000 A 
ATOM      5  N   UNL     1       3.223   3.837  18.786  0.00  0.00    +0.000 N 
ATOM      6  N   UNL     1       2.915   5.169  18.828  0.00  0.00    +0.000 NA
ATOM      7  C   UNL     1       2.004   5.538  19.688  0.00  0.00    +0.000 C 
ATOM      8  C   UNL     1       1.124   4.596  20.504  0.00  0.00    +0.000 C 
ATOM      9  S   UNL     1       2.052   3.181  21.125  0.00  0.00    +0.000 S 
ENDROOT
BRANCH   7  10
ATOM     10  C   UNL     1       1.757   7.009  19.845  0.00  0.00    +0.000 A 
ATOM     11  C   UNL     1       1.945   7.909  18.791  0.00  0.00    +0.000 A 
ATOM     12  C   UNL     1       1.646   9.263  18.960  0.00  0.00    +0.000 A 
ATOM     13  C   UNL     1       1.172   9.726  20.187  0.00  0.00    +0.000 A 
ATOM     14  C   UNL     1       1.001   8.841  21.248  0.00  0.00    +0.000 A 
ATOM     15  C   UNL     1       1.292   7.485  21.081  0.00  0.00    +0.000 A 
ENDBRANCH   7  10
BRANCH   1  16
ATOM     16  C   UNL     1       4.693   3.923  16.735  0.00  0.00    +0.000 C 
BRANCH  16  20
ATOM     17  C   UNL     1       7.501   6.973  17.984  0.00  0.00    +0.000 A 
ATOM     18  C   UNL     1       7.635   5.664  18.441  0.00  0.00    +0.000 A 
ATOM     19  C   UNL     1       6.729   4.678  18.042  0.00  0.00    +0.000 A 
ATOM     20  C   UNL     1       5.655   4.997  17.197  0.00  0.00    +0.000 A 
ATOM     21  C   UNL     1       5.510   6.323  16.767  0.00  0.00    +0.000 A 
ATOM     22  C   UNL     1       6.428   7.305  17.157  0.00  0.00    +0.000 A 
BRANCH  17  24
ATOM     23  C   UNL     1       8.277   9.205  18.025  0.00  0.00    +0.000 C 
ATOM     24  O   UNL     1       8.447   7.853  18.437  0.00  0.00    +0.000 OA
ENDBRANCH  17  24
ENDBRANCH  16  20
ENDBRANCH   1  16
TORSDOF 4
ENDMDL
MODEL 4
REMARK VINA RESULT:      -7.5      2.226      3.183
REMARK  Name = 
REMARK  5 active torsions:
REMARK  status: ('A' for Active; 'I' for Inactive)
REMARK    1  A    between atoms: C_1  and  O_2
REMARK    2  A    between atoms: O_2  and  C_3
REMARK    3  A    between atoms: C_6  and  C_7
REMARK    4  A    between atoms: C_7  and  C_8
REMARK    5  A    between atoms: C_14  and  C_15
REMARK                            x       y       z     vdW  Elec       q    Type
REMARK                         _______ _______ _______ _____ _____    ______ ____
ROOT
ATOM      1  C   UNL     1       5.106   4.279  19.112  0.00  0.00    +0.000 A 
ATOM      2  N   UNL     1       5.268   3.001  19.402  0.00  0.00    +0.000 NA
ATOM      3  N   UNL     1       4.215   2.609  20.192  0.00  0.00    +0.000 NA
ATOM      4  C   UNL     1       3.435   3.651  20.338  0.00  0.00    +0.000 A 
ATOM      5  N   UNL     1       3.915   4.729  19.638  0.00  0.00    +0.000 N 
ATOM      6  N   UNL     1       3.416   6.000  19.548  0.00  0.00    +0.000 NA
ATOM      7  C   UNL     1       2.192   6.184  19.965  0.00  0.00    +0.000 C 
ATOM      8  C   UNL     1       1.215   5.081  20.357  0.00  0.00    +0.000 C 
ATOM      9  S   UNL     1       2.022   3.776  21.304  0.00  0.00    +0.000 S 
ENDROOT
BRANCH   7  10
ATOM     10  C   UNL     1       1.681   7.594  20.005  0.00  0.00    +0.000 A 
ATOM     11  C   UNL     1       1.129   8.150  21.165  0.00  0.00    +0.000 A 
ATOM     12  C   UNL     1       0.720   9.486  21.178  0.00  0.00    +0.000 A 
ATOM     13  C   UNL     1       0.846  10.267  20.030  0.00  0.00    +0.000 A 
ATOM     14  C   UNL     1       1.375   9.716  18.866  0.00  0.00    +0.000 A 
ATOM     15  C   UNL     1       1.792   8.383  18.850  0.00  0.00    +0.000 A 
ENDBRANCH   7  10
BRANCH   1  16
ATOM     16  C   UNL     1       6.051   5.144  18.357  0.00  0.00    +0.000 C 
BRANCH  16  20
ATOM     17  C   UNL     1       6.283   4.117  14.156  0.00  0.00    +0.000 A 
ATOM     18  C   UNL     1       7.319   4.819  14.767  0.00  0.00    +0.000 A 
ATOM     19  C   UNL     1       7.246   5.154  16.121  0.00  0.00    +0.000 A 
ATOM     20  C   UNL     1       6.117   4.813  16.880  0.00  0.00    +0.000 A 
ATOM     21  C   UNL     1       5.065   4.134  16.251  0.00  0.00    +0.000 A 
ATOM     22  C   UNL     1       5.148   3.786  14.897  0.00  0.00    +0.000 A 
BRANCH  17  24
ATOM     23  C   UNL     1       5.317   3.353  12.139  0.00  0.00    +0.000 C 
ATOM     24  O   UNL     1       6.464   3.839  12.828  0.00  0.00    +0.000 OA
ENDBRANCH  17  24
ENDBRANCH  16  20
ENDBRANCH   1  16
TORSDOF 4
ENDMDL
MODEL 5
REMARK VINA RESULT:      -7.4      2.110      3.020
REMARK  Name = 
REMARK  5 active torsions:
REMARK  status: ('A' for Active; 'I' for Inactive)
REMARK    1  A    between atoms: C_1  and  O_2
REMARK    2  A    between atoms: O_2  and  C_3
REMARK    3  A    between atoms: C_6  and  C_7
REMARK    4  A    between atoms: C_7  and  C_8
REMARK    5  A    between atoms: C_14  and  C_15
REMARK                            x       y       z     vdW  Elec       q    Type
REMARK                         _______ _______ _______ _____ _____    ______ ____
ROOT
ATOM      1  C   UNL     1       5.033   4.094  19.278  0.00  0.00    +0.000 A 
ATOM      2  N   UNL     1       5.138   2.797  19.508  0.00  0.00    +0.000 NA
ATOM      3  N   UNL     1       4.019   2.397  20.196  0.00  0.00    +0.000 NA
ATOM      4  C   UNL     1       3.258   3.454  20.341  0.00  0.00    +0.000 A 
ATOM      5  N   UNL     1       3.818   4.552  19.738  0.00  0.00    +0.000 N 
ATOM      6  N   UNL     1       3.362   5.840  19.682  0.00  0.00    +0.000 NA
ATOM      7  C   UNL     1       2.115   6.040  20.017  0.00  0.00    +0.000 C 
ATOM      8  C   UNL     1       1.083   4.948  20.275  0.00  0.00    +0.000 C 
ATOM      9  S   UNL     1       1.781   3.571  21.206  0.00  0.00    +0.000 S 
ENDROOT
BRANCH   7  10
ATOM     10  C   UNL     1       1.640   7.461  20.097  0.00  0.00    +0.000 A 
ATOM     11  C   UNL     1       1.123   8.005  21.278  0.00  0.00    +0.000 A 
ATOM     12  C   UNL     1       0.748   9.350  21.327  0.00  0.00    +0.000 A 
ATOM     13  C   UNL     1       0.873  10.152  20.193  0.00  0.00    +0.000 A 
ATOM     14  C   UNL     1       1.366   9.614  19.008  0.00  0.00    +0.000 A 
ATOM     15  C   UNL     1       1.749   8.271  18.956  0.00  0.00    +0.000 A 
ENDBRANCH   7  10
BRANCH   1  16
ATOM     16  C   UNL     1       6.054   4.968  18.642  0.00  0.00    +0.000 C 
BRANCH  16  20
ATOM     17  C   UNL     1       6.423   4.403  14.364  0.00  0.00    +0.000 A 
ATOM     18  C   UNL     1       5.230   4.095  15.015  0.00  0.00    +0.000 A 
ATOM     19  C   UNL     1       5.109   4.274  16.395  0.00  0.00    +0.000 A 
ATOM     20  C   UNL     1       6.194   4.740  17.151  0.00  0.00    +0.000 A 
ATOM     21  C   UNL     1       7.400   5.018  16.494  0.00  0.00    +0.000 A 
ATOM     22  C   UNL     1       7.513   4.852  15.109  0.00  0.00    +0.000 A 
BRANCH  17  24
ATOM     23  C   UNL     1       5.465   3.258  12.532  0.00  0.00    +0.000 C 
ATOM     24  O   UNL     1       6.426   4.192  13.012  0.00  0.00    +0.000 OA
ENDBRANCH  17  24
ENDBRANCH  16  20
ENDBRANCH   1  16
TORSDOF 4
ENDMDL
MODEL 6
REMARK VINA RESULT:      -7.4      0.921      1.404
REMARK  Name = 
REMARK  5 active torsions:
REMARK  status: ('A' for Active; 'I' for Inactive)
REMARK    1  A    between atoms: C_1  and  O_2
REMARK    2  A    between atoms: O_2  and  C_3
REMARK    3  A    between atoms: C_6  and  C_7
REMARK    4  A    between atoms: C_7  and  C_8
REMARK    5  A    between atoms: C_14  and  C_15
REMARK                            x       y       z     vdW  Elec       q    Type
REMARK                         _______ _______ _______ _____ _____    ______ ____
ROOT
ATOM      1  C   UNL     1       4.536   3.695  18.334  0.00  0.00    +0.000 A 
ATOM      2  N   UNL     1       4.667   2.476  18.825  0.00  0.00    +0.000 NA
ATOM      3  N   UNL     1       3.876   2.382  19.943  0.00  0.00    +0.000 NA
ATOM      4  C   UNL     1       3.270   3.535  20.084  0.00  0.00    +0.000 A 
ATOM      5  N   UNL     1       3.604   4.396  19.069  0.00  0.00    +0.000 N 
ATOM      6  N   UNL     1       3.213   5.690  18.862  0.00  0.00    +0.000 NA
ATOM      7  C   UNL     1       2.195   6.118  19.560  0.00  0.00    +0.000 C 
ATOM      8  C   UNL     1       1.294   5.250  20.432  0.00  0.00    +0.000 C 
ATOM      9  S   UNL     1       2.235   4.027  21.362  0.00  0.00    +0.000 S 
ENDROOT
BRANCH   7  10
ATOM     10  C   UNL     1       1.844   7.572  19.450  0.00  0.00    +0.000 A 
ATOM     11  C   UNL     1       1.300   8.287  20.522  0.00  0.00    +0.000 A 
ATOM     12  C   UNL     1       1.043   9.654  20.398  0.00  0.00    +0.000 A 
ATOM     13  C   UNL     1       1.313  10.310  19.197  0.00  0.00    +0.000 A 
ATOM     14  C   UNL     1       1.835   9.602  18.118  0.00  0.00    +0.000 A 
ATOM     15  C   UNL     1       2.100   8.236  18.240  0.00  0.00    +0.000 A 
ENDBRANCH   7  10
BRANCH   1  16
ATOM     16  C   UNL     1       5.276   4.272  17.180  0.00  0.00    +0.000 C 
BRANCH  16  20
ATOM     17  C   UNL     1       7.950   7.464  18.371  0.00  0.00    +0.000 A 
ATOM     18  C   UNL     1       6.999   7.676  17.375  0.00  0.00    +0.000 A 
ATOM     19  C   UNL     1       6.137   6.648  16.986  0.00  0.00    +0.000 A 
ATOM     20  C   UNL     1       6.232   5.378  17.574  0.00  0.00    +0.000 A 
ATOM     21  C   UNL     1       7.211   5.163  18.554  0.00  0.00    +0.000 A 
ATOM     22  C   UNL     1       8.064   6.200  18.951  0.00  0.00    +0.000 A 
BRANCH  17  24
ATOM     23  C   UNL     1       8.461   9.729  17.937  0.00  0.00    +0.000 C 
ATOM     24  O   UNL     1       8.737   8.542  18.673  0.00  0.00    +0.000 OA
ENDBRANCH  17  24
ENDBRANCH  16  20
ENDBRANCH   1  16
TORSDOF 4
ENDMDL
MODEL 7
REMARK VINA RESULT:      -7.4      0.140      1.399
REMARK  Name = 
REMARK  5 active torsions:
REMARK  status: ('A' for Active; 'I' for Inactive)
REMARK    1  A    between atoms: C_1  and  O_2
REMARK    2  A    between atoms: O_2  and  C_3
REMARK    3  A    between atoms: C_6  and  C_7
REMARK    4  A    between atoms: C_7  and  C_8
REMARK    5  A    between atoms: C_14  and  C_15
REMARK                            x       y       z     vdW  Elec       q    Type
REMARK                         _______ _______ _______ _____ _____    ______ ____
ROOT
ATOM      1  C   UNL     1       3.936   3.062  17.655  0.00  0.00    +0.000 A 
ATOM      2  N   UNL     1       3.994   1.760  17.877  0.00  0.00    +0.000 NA
ATOM      3  N   UNL     1       3.300   1.495  19.032  0.00  0.00    +0.000 NA
ATOM      4  C   UNL     1       2.822   2.636  19.463  0.00  0.00    +0.000 A 
ATOM      5  N   UNL     1       3.145   3.662  18.611  0.00  0.00    +0.000 N 
ATOM      6  N   UNL     1       2.862   4.996  18.709  0.00  0.00    +0.000 NA
ATOM      7  C   UNL     1       1.956   5.345  19.583  0.00  0.00    +0.000 C 
ATOM      8  C   UNL     1       1.057   4.385  20.355  0.00  0.00    +0.000 C 
ATOM      9  S   UNL     1       1.956   2.928  20.916  0.00  0.00    +0.000 S 
ENDROOT
BRANCH   7  10
ATOM     10  C   UNL     1       1.736   6.813  19.802  0.00  0.00    +0.000 A 
ATOM     11  C   UNL     1       1.318   7.323  21.036  0.00  0.00    +0.000 A 
ATOM     12  C   UNL     1       1.183   8.702  21.217  0.00  0.00    +0.000 A 
ATOM     13  C   UNL     1       1.451   9.575  20.163  0.00  0.00    +0.000 A 
ATOM     14  C   UNL     1       1.847   9.074  18.926  0.00  0.00    +0.000 A 
ATOM     15  C   UNL     1       1.990   7.697  18.742  0.00  0.00    +0.000 A 
ENDBRANCH   7  10
BRANCH   1  16
ATOM     16  C   UNL     1       4.622   3.808  16.567  0.00  0.00    +0.000 C 
BRANCH  16  20
ATOM     17  C   UNL     1       7.400   6.829  17.951  0.00  0.00    +0.000 A 
ATOM     18  C   UNL     1       7.574   5.494  18.310  0.00  0.00    +0.000 A 
ATOM     19  C   UNL     1       6.678   4.518  17.868  0.00  0.00    +0.000 A 
ATOM     20  C   UNL     1       5.574   4.869  17.077  0.00  0.00    +0.000 A 
ATOM     21  C   UNL     1       5.389   6.218  16.745  0.00  0.00    +0.000 A 
ATOM     22  C   UNL     1       6.297   7.192  17.178  0.00  0.00    +0.000 A 
BRANCH  17  24
ATOM     23  C   UNL     1       8.234   9.040  17.978  0.00  0.00    +0.000 C 
ATOM     24  O   UNL     1       8.340   7.697  18.437  0.00  0.00    +0.000 OA
ENDBRANCH  17  24
ENDBRANCH  16  20
ENDBRANCH   1  16
TORSDOF 4
ENDMDL
MODEL 8
REMARK VINA RESULT:      -7.3      2.732      6.357
REMARK  Name = 
REMARK  5 active torsions:
REMARK  status: ('A' for Active; 'I' for Inactive)
REMARK    1  A    between atoms: C_1  and  O_2
REMARK    2  A    between atoms: O_2  and  C_3
REMARK    3  A    between atoms: C_6  and  C_7
REMARK    4  A    between atoms: C_7  and  C_8
REMARK    5  A    between atoms: C_14  and  C_15
REMARK                            x       y       z     vdW  Elec       q    Type
REMARK                         _______ _______ _______ _____ _____    ______ ____
ROOT
ATOM      1  C   UNL     1       2.133   5.651  20.087  0.00  0.00    +0.000 A 
ATOM      2  N   UNL     1       1.102   5.116  20.717  0.00  0.00    +0.000 NA
ATOM      3  N   UNL     1       0.855   3.886  20.157  0.00  0.00    +0.000 NA
ATOM      4  C   UNL     1       1.757   3.701  19.224  0.00  0.00    +0.000 A 
ATOM      5  N   UNL     1       2.628   4.759  19.161  0.00  0.00    +0.000 N 
ATOM      6  N   UNL     1       3.684   4.967  18.318  0.00  0.00    +0.000 NA
ATOM      7  C   UNL     1       4.106   3.936  17.634  0.00  0.00    +0.000 C 
ATOM      8  C   UNL     1       3.653   2.495  17.839  0.00  0.00    +0.000 C 
ATOM      9  S   UNL     1       1.878   2.384  18.130  0.00  0.00    +0.000 S 
ENDROOT
BRANCH   7  10
ATOM     10  C   UNL     1       5.168   4.179  16.603  0.00  0.00    +0.000 A 
ATOM     11  C   UNL     1       4.922   4.024  15.235  0.00  0.00    +0.000 A 
ATOM     12  C   UNL     1       5.920   4.318  14.303  0.00  0.00    +0.000 A 
ATOM     13  C   UNL     1       7.173   4.753  14.735  0.00  0.00    +0.000 A 
ATOM     14  C   UNL     1       7.433   4.890  16.096  0.00  0.00    +0.000 A 
ATOM     15  C   UNL     1       6.436   4.604  17.030  0.00  0.00    +0.000 A 
ENDBRANCH   7  10
BRANCH   1  16
ATOM     16  C   UNL     1       2.691   7.013  20.298  0.00  0.00    +0.000 C 
BRANCH  16  20
ATOM     17  C   UNL     1       0.042  10.106  18.825  0.00  0.00    +0.000 A 
ATOM     18  C   UNL     1       0.952   9.491  17.968  0.00  0.00    +0.000 A 
ATOM     19  C   UNL     1       1.810   8.495  18.440  0.00  0.00    +0.000 A 
ATOM     20  C   UNL     1       1.787   8.117  19.791  0.00  0.00    +0.000 A 
ATOM     21  C   UNL     1       0.890   8.762  20.654  0.00  0.00    +0.000 A 
ATOM     22  C   UNL     1       0.022   9.748  20.173  0.00  0.00    +0.000 A 
BRANCH  17  24
ATOM     23  C   UNL     1      -1.873  10.578  17.524  0.00  0.00    +0.000 C 
ATOM     24  O   UNL     1      -0.750  11.064  18.252  0.00  0.00    +0.000 OA
ENDBRANCH  17  24
ENDBRANCH  16  20
ENDBRANCH   1  16
TORSDOF 4
ENDMDL
MODEL 9
REMARK VINA RESULT:      -7.3      2.685      6.290
REMARK  Name = 
REMARK  5 active torsions:
REMARK  status: ('A' for Active; 'I' for Inactive)
REMARK    1  A    between atoms: C_1  and  O_2
REMARK    2  A    between atoms: O_2  and  C_3
REMARK    3  A    between atoms: C_6  and  C_7
REMARK    4  A    between atoms: C_7  and  C_8
REMARK    5  A    between atoms: C_14  and  C_15
REMARK                            x       y       z     vdW  Elec       q    Type
REMARK                         _______ _______ _______ _____ _____    ______ ____
ROOT
ATOM      1  C   UNL     1       2.106   5.505  20.144  0.00  0.00    +0.000 A 
ATOM      2  N   UNL     1       1.067   4.945  20.736  0.00  0.00    +0.000 NA
ATOM      3  N   UNL     1       0.836   3.734  20.130  0.00  0.00    +0.000 NA
ATOM      4  C   UNL     1       1.754   3.585  19.208  0.00  0.00    +0.000 A 
ATOM      5  N   UNL     1       2.621   4.648  19.196  0.00  0.00    +0.000 N 
ATOM      6  N   UNL     1       3.691   4.889  18.379  0.00  0.00    +0.000 NA
ATOM      7  C   UNL     1       4.129   3.884  17.668  0.00  0.00    +0.000 C 
ATOM      8  C   UNL     1       3.679   2.435  17.815  0.00  0.00    +0.000 C 
ATOM      9  S   UNL     1       1.900   2.307  18.071  0.00  0.00    +0.000 S 
ENDROOT
BRANCH   7  10
ATOM     10  C   UNL     1       5.208   4.167  16.664  0.00  0.00    +0.000 A 
ATOM     11  C   UNL     1       4.981   4.077  15.287  0.00  0.00    +0.000 A 
ATOM     12  C   UNL     1       5.994   4.406  14.384  0.00  0.00    +0.000 A 
ATOM     13  C   UNL     1       7.243   4.812  14.853  0.00  0.00    +0.000 A 
ATOM     14  C   UNL     1       7.485   4.884  16.222  0.00  0.00    +0.000 A 
ATOM     15  C   UNL     1       6.472   4.562  17.129  0.00  0.00    +0.000 A 
ENDBRANCH   7  10
BRANCH   1  16
ATOM     16  C   UNL     1       2.655   6.862  20.411  0.00  0.00    +0.000 C 
BRANCH  16  20
ATOM     17  C   UNL     1       0.313  10.108  18.758  0.00  0.00    +0.000 A 
ATOM     18  C   UNL     1       0.168   9.745  20.095  0.00  0.00    +0.000 A 
ATOM     19  C   UNL     1       0.920   8.697  20.631  0.00  0.00    +0.000 A 
ATOM     20  C   UNL     1       1.813   7.975  19.824  0.00  0.00    +0.000 A 
ATOM     21  C   UNL     1       1.930   8.326  18.473  0.00  0.00    +0.000 A 
ATOM     22  C   UNL     1       1.186   9.387  17.943  0.00  0.00    +0.000 A 
BRANCH  17  24
ATOM     23  C   UNL     1      -1.828  10.826  18.061  0.00  0.00    +0.000 C 
ATOM     24  O   UNL     1      -0.471  11.150  18.343  0.00  0.00    +0.000 OA
ENDBRANCH  17  24
ENDBRANCH  16  20
ENDBRANCH   1  16
TORSDOF 4
ENDMDL
