MODEL 1
REMARK VINA RESULT:      -8.8      0.000      0.000
REMARK  Name = 
REMARK  4 active torsions:
REMARK  status: ('A' for Active; 'I' for Inactive)
REMARK    1  A    between atoms: C_1  and  O_2
REMARK    2  A    between atoms: O_2  and  C_3
REMARK    3  A    between atoms: C_6  and  C_7
REMARK    4  A    between atoms: C_12  and  C_13
REMARK                            x       y       z     vdW  Elec       q    Type
REMARK                         _______ _______ _______ _____ _____    ______ ____
ROOT
ATOM      1  C   UNL     1       2.944   6.214  19.338  0.00  0.00    +0.000 C 
ATOM      2  O   UNL     1       2.493   5.340  20.080  0.00  0.00    +0.000 OA
ATOM      3  N   UNL     1       4.108   6.028  18.575  0.00  0.00    +0.000 N 
ATOM      4  C   UNL     1       4.586   4.657  18.394  0.00  0.00    +0.000 C 
ATOM      5  C   UNL     1       6.107   4.563  18.464  0.00  0.00    +0.000 C 
ATOM      6  C   UNL     1       6.811   5.549  17.528  0.00  0.00    +0.000 C 
ATOM      7  C   UNL     1       6.262   6.961  17.731  0.00  0.00    +0.000 C 
ATOM      8  C   UNL     1       4.740   7.028  17.711  0.00  0.00    +0.000 C 
ENDROOT
BRANCH   6   9
ATOM      9  C   UNL     1       6.757   5.109  16.081  0.00  0.00    +0.000 A 
ATOM     10  N   UNL     1       7.480   5.613  15.103  0.00  0.00    +0.000 NA
ATOM     11  C   UNL     1       7.215   4.939  13.917  0.00  0.00    +0.000 A 
ATOM     12  C   UNL     1       7.812   5.196  12.665  0.00  0.00    +0.000 A 
ATOM     13  C   UNL     1       7.449   4.430  11.551  0.00  0.00    +0.000 A 
ATOM     14  C   UNL     1       6.499   3.420  11.667  0.00  0.00    +0.000 A 
ATOM     15  C   UNL     1       5.890   3.151  12.896  0.00  0.00    +0.000 A 
ATOM     16  C   UNL     1       6.262   3.927  14.008  0.00  0.00    +0.000 A 
ATOM     17  S   UNL     1       5.703   3.826  15.631  0.00  0.00    +0.000 S 
ENDBRANCH   6   9
BRANCH   1  21
ATOM     18  C   UNL     1       0.719   9.906  19.174  0.00  0.00    +0.000 A 
ATOM     19  C   UNL     1       1.333   9.376  18.031  0.00  0.00    +0.000 A 
ATOM     20  C   UNL     1       2.061   8.181  18.091  0.00  0.00    +0.000 A 
ATOM     21  C   UNL     1       2.201   7.505  19.307  0.00  0.00    +0.000 A 
ATOM     22  C   UNL     1       1.671   8.083  20.460  0.00  0.00    +0.000 A 
ATOM     23  C   UNL     1       0.871   9.228  20.390  0.00  0.00    +0.000 A 
ATOM     24 CL   UNL     1       0.025   9.621  21.847  0.00  0.00    +0.000 Cl
BRANCH  18  26
ATOM     25  C   UNL     1      -1.405  10.842  18.643  0.00  0.00    +0.000 C 
ATOM     26  O   UNL     1      -0.022  11.030  18.927  0.00  0.00    +0.000 OA
ENDBRANCH  18  26
ENDBRANCH   1  21
TORSDOF 3
ENDMDL
MODEL 2
REMARK VINA RESULT:      -8.5      4.158      8.610
REMARK  Name = 
REMARK  4 active torsions:
REMARK  status: ('A' for Active; 'I' for Inactive)
REMARK    1  A    between atoms: C_1  and  O_2
REMARK    2  A    between atoms: O_2  and  C_3
REMARK    3  A    between atoms: C_6  and  C_7
REMARK    4  A    between atoms: C_12  and  C_13
REMARK                            x       y       z     vdW  Elec       q    Type
REMARK                         _______ _______ _______ _____ _____    ______ ____
ROOT
ATOM      1  C   UNL     1       2.453   6.389  19.780  0.00  0.00    +0.000 C 
ATOM      2  O   UNL     1       2.113   5.800  20.807  0.00  0.00    +0.000 OA
ATOM      3  N   UNL     1       1.993   7.677  19.461  0.00  0.00    +0.000 N 
ATOM      4  C   UNL     1       1.382   8.461  20.535  0.00  0.00    +0.000 C 
ATOM      5  C   UNL     1       0.173   9.257  20.053  0.00  0.00    +0.000 C 
ATOM      6  C   UNL     1       0.470  10.105  18.813  0.00  0.00    +0.000 C 
ATOM      7  C   UNL     1       1.131   9.251  17.730  0.00  0.00    +0.000 C 
ATOM      8  C   UNL     1       2.303   8.425  18.241  0.00  0.00    +0.000 C 
ENDROOT
BRANCH   6   9
ATOM      9  C   UNL     1       1.272  11.345  19.142  0.00  0.00    +0.000 A 
ATOM     10  N   UNL     1       2.087  11.968  18.317  0.00  0.00    +0.000 NA
ATOM     11  C   UNL     1       2.614  13.099  18.929  0.00  0.00    +0.000 A 
ATOM     12  C   UNL     1       3.513  14.016  18.346  0.00  0.00    +0.000 A 
ATOM     13  C   UNL     1       3.961  15.118  19.085  0.00  0.00    +0.000 A 
ATOM     14  C   UNL     1       3.528  15.314  20.392  0.00  0.00    +0.000 A 
ATOM     15  C   UNL     1       2.642  14.416  20.994  0.00  0.00    +0.000 A 
ATOM     16  C   UNL     1       2.200  13.313  20.242  0.00  0.00    +0.000 A 
ATOM     17  S   UNL     1       1.115  12.059  20.700  0.00  0.00    +0.000 S 
ENDBRANCH   6   9
BRANCH   1  21
ATOM     18  C   UNL     1       5.059   4.304  17.047  0.00  0.00    +0.000 A 
ATOM     19  C   UNL     1       3.667   4.150  16.985  0.00  0.00    +0.000 A 
ATOM     20  C   UNL     1       2.825   4.823  17.879  0.00  0.00    +0.000 A 
ATOM     21  C   UNL     1       3.370   5.650  18.866  0.00  0.00    +0.000 A 
ATOM     22  C   UNL     1       4.757   5.727  18.988  0.00  0.00    +0.000 A 
ATOM     23  C   UNL     1       5.597   5.127  18.044  0.00  0.00    +0.000 A 
ATOM     24 CL   UNL     1       7.260   5.591  18.145  0.00  0.00    +0.000 Cl
BRANCH  18  26
ATOM     25  C   UNL     1       6.017   4.386  14.869  0.00  0.00    +0.000 C 
ATOM     26  O   UNL     1       5.728   3.645  16.050  0.00  0.00    +0.000 OA
ENDBRANCH  18  26
ENDBRANCH   1  21
TORSDOF 3
ENDMDL
MODEL 3
REMARK VINA RESULT:      -8.1      4.308      8.673
REMARK  Name = 
REMARK  4 active torsions:
REMARK  status: ('A' for Active; 'I' for Inactive)
REMARK    1  A    between atoms: C_1  and  O_2
REMARK    2  A    between atoms: O_2  and  C_3
REMARK    3  A    between atoms: C_6  and  C_7
REMARK    4  A    between atoms: C_12  and  C_13
REMARK                            x       y       z     vdW  Elec       q    Type
REMARK                         _______ _______ _______ _____ _____    ______ ____
ROOT
ATOM      1  C   UNL     1       2.184   6.684  19.761  0.00  0.00    +0.000 C 
ATOM      2  O   UNL     1       1.969   6.112  20.830  0.00  0.00    +0.000 OA
ATOM      3  N   UNL     1       1.754   7.996  19.507  0.00  0.00    +0.000 N 
ATOM      4  C   UNL     1       1.357   8.811  20.656  0.00  0.00    +0.000 C 
ATOM      5  C   UNL     1       0.136   9.675  20.356  0.00  0.00    +0.000 C 
ATOM      6  C   UNL     1       0.291  10.509  19.082  0.00  0.00    +0.000 C 
ATOM      7  C   UNL     1       0.733   9.623  17.916  0.00  0.00    +0.000 C 
ATOM      8  C   UNL     1       1.920   8.730  18.250  0.00  0.00    +0.000 C 
ENDROOT
BRANCH   6   9
ATOM      9  C   UNL     1       1.201  11.701  19.280  0.00  0.00    +0.000 A 
ATOM     10  N   UNL     1       2.055  12.166  18.393  0.00  0.00    +0.000 NA
ATOM     11  C   UNL     1       2.687  13.301  18.885  0.00  0.00    +0.000 A 
ATOM     12  C   UNL     1       3.653  14.073  18.208  0.00  0.00    +0.000 A 
ATOM     13  C   UNL     1       4.205  15.200  18.831  0.00  0.00    +0.000 A 
ATOM     14  C   UNL     1       3.810  15.561  20.114  0.00  0.00    +0.000 A 
ATOM     15  C   UNL     1       2.858  14.808  20.808  0.00  0.00    +0.000 A 
ATOM     16  C   UNL     1       2.312  13.679  20.173  0.00  0.00    +0.000 A 
ATOM     17  S   UNL     1       1.129  12.577  20.760  0.00  0.00    +0.000 S 
ENDBRANCH   6   9
BRANCH   1  21
ATOM     18  C   UNL     1       4.381   4.418  16.820  0.00  0.00    +0.000 A 
ATOM     19  C   UNL     1       4.724   5.743  17.121  0.00  0.00    +0.000 A 
ATOM     20  C   UNL     1       4.003   6.477  18.072  0.00  0.00    +0.000 A 
ATOM     21  C   UNL     1       2.910   5.898  18.723  0.00  0.00    +0.000 A 
ATOM     22  C   UNL     1       2.512   4.614  18.353  0.00  0.00    +0.000 A 
ATOM     23  C   UNL     1       3.280   3.847  17.471  0.00  0.00    +0.000 A 
ATOM     24 CL   UNL     1       2.838   2.178  17.376  0.00  0.00    +0.000 Cl
BRANCH  18  26
ATOM     25  C   UNL     1       6.581   4.287  15.919  0.00  0.00    +0.000 C 
ATOM     26  O   UNL     1       5.236   3.818  15.935  0.00  0.00    +0.000 OA
ENDBRANCH  18  26
ENDBRANCH   1  21
TORSDOF 3
ENDMDL
MODEL 4
REMARK VINA RESULT:      -8.0      4.056      8.710
REMARK  Name = 
REMARK  4 active torsions:
REMARK  status: ('A' for Active; 'I' for Inactive)
REMARK    1  A    between atoms: C_1  and  O_2
REMARK    2  A    between atoms: O_2  and  C_3
REMARK    3  A    between atoms: C_6  and  C_7
REMARK    4  A    between atoms: C_12  and  C_13
REMARK                            x       y       z     vdW  Elec       q    Type
REMARK                         _______ _______ _______ _____ _____    ______ ____
ROOT
ATOM      1  C   UNL     1       2.464   6.466  19.815  0.00  0.00    +0.000 C 
ATOM      2  O   UNL     1       2.139   5.876  20.847  0.00  0.00    +0.000 OA
ATOM      3  N   UNL     1       1.988   7.748  19.497  0.00  0.00    +0.000 N 
ATOM      4  C   UNL     1       1.379   8.529  20.574  0.00  0.00    +0.000 C 
ATOM      5  C   UNL     1       0.158   9.311  20.100  0.00  0.00    +0.000 C 
ATOM      6  C   UNL     1       0.435  10.159  18.856  0.00  0.00    +0.000 C 
ATOM      7  C   UNL     1       1.095   9.309  17.769  0.00  0.00    +0.000 C 
ATOM      8  C   UNL     1       2.281   8.496  18.273  0.00  0.00    +0.000 C 
ENDROOT
BRANCH   6   9
ATOM      9  C   UNL     1       1.227  11.408  19.175  0.00  0.00    +0.000 A 
ATOM     10  N   UNL     1       1.198  12.059  20.318  0.00  0.00    +0.000 NA
ATOM     11  C   UNL     1       2.086  13.128  20.284  0.00  0.00    +0.000 A 
ATOM     12  C   UNL     1       2.331  14.038  21.332  0.00  0.00    +0.000 A 
ATOM     13  C   UNL     1       3.262  15.069  21.155  0.00  0.00    +0.000 A 
ATOM     14  C   UNL     1       3.944  15.205  19.951  0.00  0.00    +0.000 A 
ATOM     15  C   UNL     1       3.713  14.319  18.895  0.00  0.00    +0.000 A 
ATOM     16  C   UNL     1       2.776  13.288  19.084  0.00  0.00    +0.000 A 
ATOM     17  S   UNL     1       2.293  12.053  17.988  0.00  0.00    +0.000 S 
ENDBRANCH   6   9
BRANCH   1  21
ATOM     18  C   UNL     1       5.065   4.397  17.065  0.00  0.00    +0.000 A 
ATOM     19  C   UNL     1       3.678   4.189  17.051  0.00  0.00    +0.000 A 
ATOM     20  C   UNL     1       2.839   4.858  17.950  0.00  0.00    +0.000 A 
ATOM     21  C   UNL     1       3.380   5.734  18.895  0.00  0.00    +0.000 A 
ATOM     22  C   UNL     1       4.766   5.866  18.971  0.00  0.00    +0.000 A 
ATOM     23  C   UNL     1       5.600   5.270  18.020  0.00  0.00    +0.000 A 
ATOM     24 CL   UNL     1       7.247   5.798  18.055  0.00  0.00    +0.000 Cl
BRANCH  18  26
ATOM     25  C   UNL     1       6.019   4.471  14.885  0.00  0.00    +0.000 C 
ATOM     26  O   UNL     1       5.728   3.733  16.068  0.00  0.00    +0.000 OA
ENDBRANCH  18  26
ENDBRANCH   1  21
TORSDOF 3
ENDMDL
MODEL 5
REMARK VINA RESULT:      -8.0      1.215      1.562
REMARK  Name = 
REMARK  4 active torsions:
REMARK  status: ('A' for Active; 'I' for Inactive)
REMARK    1  A    between atoms: C_1  and  O_2
REMARK    2  A    between atoms: O_2  and  C_3
REMARK    3  A    between atoms: C_6  and  C_7
REMARK    4  A    between atoms: C_12  and  C_13
REMARK                            x       y       z     vdW  Elec       q    Type
REMARK                         _______ _______ _______ _____ _____    ______ ____
ROOT
ATOM      1  C   UNL     1       3.087   5.772  19.718  0.00  0.00    +0.000 C 
ATOM      2  O   UNL     1       2.719   4.838  20.432  0.00  0.00    +0.000 OA
ATOM      3  N   UNL     1       4.222   5.691  18.895  0.00  0.00    +0.000 N 
ATOM      4  C   UNL     1       4.766   4.361  18.623  0.00  0.00    +0.000 C 
ATOM      5  C   UNL     1       6.291   4.350  18.620  0.00  0.00    +0.000 C 
ATOM      6  C   UNL     1       6.895   5.420  17.708  0.00  0.00    +0.000 C 
ATOM      7  C   UNL     1       6.279   6.787  18.009  0.00  0.00    +0.000 C 
ATOM      8  C   UNL     1       4.757   6.768  18.058  0.00  0.00    +0.000 C 
ENDROOT
BRANCH   6   9
ATOM      9  C   UNL     1       6.798   5.051  16.243  0.00  0.00    +0.000 A 
ATOM     10  N   UNL     1       7.538   5.555  15.278  0.00  0.00    +0.000 NA
ATOM     11  C   UNL     1       7.219   4.953  14.067  0.00  0.00    +0.000 A 
ATOM     12  C   UNL     1       7.815   5.231  12.819  0.00  0.00    +0.000 A 
ATOM     13  C   UNL     1       7.393   4.539  11.677  0.00  0.00    +0.000 A 
ATOM     14  C   UNL     1       6.387   3.583  11.762  0.00  0.00    +0.000 A 
ATOM     15  C   UNL     1       5.777   3.295  12.986  0.00  0.00    +0.000 A 
ATOM     16  C   UNL     1       6.209   3.996  14.126  0.00  0.00    +0.000 A 
ATOM     17  S   UNL     1       5.664   3.854  15.752  0.00  0.00    +0.000 S 
ENDBRANCH   6   9
BRANCH   1  21
ATOM     18  C   UNL     1       0.788   9.411  20.010  0.00  0.00    +0.000 A 
ATOM     19  C   UNL     1       0.765   8.452  21.033  0.00  0.00    +0.000 A 
ATOM     20  C   UNL     1       1.508   7.269  20.931  0.00  0.00    +0.000 A 
ATOM     21  C   UNL     1       2.273   7.019  19.787  0.00  0.00    +0.000 A 
ATOM     22  C   UNL     1       2.218   7.927  18.731  0.00  0.00    +0.000 A 
ATOM     23  C   UNL     1       1.550   9.148  18.865  0.00  0.00    +0.000 A 
ATOM     24 CL   UNL     1       1.854  10.292  17.603  0.00  0.00    +0.000 Cl
BRANCH  18  26
ATOM     25  C   UNL     1       0.788  11.604  20.935  0.00  0.00    +0.000 C 
ATOM     26  O   UNL     1       0.077  10.543  20.305  0.00  0.00    +0.000 OA
ENDBRANCH  18  26
ENDBRANCH   1  21
TORSDOF 3
ENDMDL
MODEL 6
REMARK VINA RESULT:      -7.9      5.131      9.217
REMARK  Name = 
REMARK  4 active torsions:
REMARK  status: ('A' for Active; 'I' for Inactive)
REMARK    1  A    between atoms: C_1  and  O_2
REMARK    2  A    between atoms: O_2  and  C_3
REMARK    3  A    between atoms: C_6  and  C_7
REMARK    4  A    between atoms: C_12  and  C_13
REMARK                            x       y       z     vdW  Elec       q    Type
REMARK                         _______ _______ _______ _____ _____    ______ ____
ROOT
ATOM      1  C   UNL     1       2.674   7.601  18.238  0.00  0.00    +0.000 C 
ATOM      2  O   UNL     1       3.521   7.775  17.361  0.00  0.00    +0.000 OA
ATOM      3  N   UNL     1       1.849   8.636  18.706  0.00  0.00    +0.000 N 
ATOM      4  C   UNL     1       1.758   9.848  17.892  0.00  0.00    +0.000 C 
ATOM      5  C   UNL     1       1.727  11.114  18.742  0.00  0.00    +0.000 C 
ATOM      6  C   UNL     1       0.660  11.073  19.839  0.00  0.00    +0.000 C 
ATOM      7  C   UNL     1       0.776   9.779  20.646  0.00  0.00    +0.000 C 
ATOM      8  C   UNL     1       0.858   8.530  19.779  0.00  0.00    +0.000 C 
ENDROOT
BRANCH   6   9
ATOM      9  C   UNL     1      -0.734  11.293  19.296  0.00  0.00    +0.000 A 
ATOM     10  N   UNL     1      -1.157  10.924  18.105  0.00  0.00    +0.000 NA
ATOM     11  C   UNL     1      -2.503  11.235  17.957  0.00  0.00    +0.000 A 
ATOM     12  C   UNL     1      -3.295  10.976  16.820  0.00  0.00    +0.000 A 
ATOM     13  C   UNL     1      -4.647  11.343  16.814  0.00  0.00    +0.000 A 
ATOM     14  C   UNL     1      -5.213  11.965  17.921  0.00  0.00    +0.000 A 
ATOM     15  C   UNL     1      -4.447  12.238  19.058  0.00  0.00    +0.000 A 
ATOM     16  C   UNL     1      -3.092  11.865  19.052  0.00  0.00    +0.000 A 
ATOM     17  S   UNL     1      -1.914  12.055  20.291  0.00  0.00    +0.000 S 
ENDBRANCH   6   9
BRANCH   1  21
ATOM     18  C   UNL     1       2.301   3.645  19.917  0.00  0.00    +0.000 A 
ATOM     19  C   UNL     1       2.239   4.787  20.728  0.00  0.00    +0.000 A 
ATOM     20  C   UNL     1       2.368   6.069  20.179  0.00  0.00    +0.000 A 
ATOM     21  C   UNL     1       2.581   6.226  18.806  0.00  0.00    +0.000 A 
ATOM     22  C   UNL     1       2.739   5.087  18.017  0.00  0.00    +0.000 A 
ATOM     23  C   UNL     1       2.524   3.810  18.545  0.00  0.00    +0.000 A 
ATOM     24 CL   UNL     1       2.430   2.540  17.374  0.00  0.00    +0.000 Cl
BRANCH  18  26
ATOM     25  C   UNL     1       1.507   2.591  21.899  0.00  0.00    +0.000 C 
ATOM     26  O   UNL     1       2.073   2.478  20.597  0.00  0.00    +0.000 OA
ENDBRANCH  18  26
ENDBRANCH   1  21
TORSDOF 3
ENDMDL
MODEL 7
REMARK VINA RESULT:      -7.9      4.228      8.781
REMARK  Name = 
REMARK  4 active torsions:
REMARK  status: ('A' for Active; 'I' for Inactive)
REMARK    1  A    between atoms: C_1  and  O_2
REMARK    2  A    between atoms: O_2  and  C_3
REMARK    3  A    between atoms: C_6  and  C_7
REMARK    4  A    between atoms: C_12  and  C_13
REMARK                            x       y       z     vdW  Elec       q    Type
REMARK                         _______ _______ _______ _____ _____    ______ ____
ROOT
ATOM      1  C   UNL     1       2.134   6.760  19.783  0.00  0.00    +0.000 C 
ATOM      2  O   UNL     1       1.913   6.169  20.841  0.00  0.00    +0.000 OA
ATOM      3  N   UNL     1       1.719   8.082  19.557  0.00  0.00    +0.000 N 
ATOM      4  C   UNL     1       1.331   8.878  20.722  0.00  0.00    +0.000 C 
ATOM      5  C   UNL     1       0.120   9.761  20.441  0.00  0.00    +0.000 C 
ATOM      6  C   UNL     1       0.284  10.619  19.183  0.00  0.00    +0.000 C 
ATOM      7  C   UNL     1       0.715   9.752  18.000  0.00  0.00    +0.000 C 
ATOM      8  C   UNL     1       1.892   8.839  18.315  0.00  0.00    +0.000 C 
ENDROOT
BRANCH   6   9
ATOM      9  C   UNL     1       1.207  11.796  19.405  0.00  0.00    +0.000 A 
ATOM     10  N   UNL     1       1.387  12.421  20.550  0.00  0.00    +0.000 NA
ATOM     11  C   UNL     1       2.343  13.419  20.405  0.00  0.00    +0.000 A 
ATOM     12  C   UNL     1       2.802  14.283  21.421  0.00  0.00    +0.000 A 
ATOM     13  C   UNL     1       3.777  15.244  21.130  0.00  0.00    +0.000 A 
ATOM     14  C   UNL     1       4.295  15.357  19.844  0.00  0.00    +0.000 A 
ATOM     15  C   UNL     1       3.852  14.516  18.819  0.00  0.00    +0.000 A 
ATOM     16  C   UNL     1       2.872  13.555  19.123  0.00  0.00    +0.000 A 
ATOM     17  S   UNL     1       2.148  12.387  18.090  0.00  0.00    +0.000 S 
ENDBRANCH   6   9
BRANCH   1  21
ATOM     18  C   UNL     1       4.305   4.533  16.794  0.00  0.00    +0.000 A 
ATOM     19  C   UNL     1       4.634   5.863  17.091  0.00  0.00    +0.000 A 
ATOM     20  C   UNL     1       3.922   6.584  18.058  0.00  0.00    +0.000 A 
ATOM     21  C   UNL     1       2.851   5.987  18.730  0.00  0.00    +0.000 A 
ATOM     22  C   UNL     1       2.464   4.698  18.365  0.00  0.00    +0.000 A 
ATOM     23  C   UNL     1       3.226   3.945  17.466  0.00  0.00    +0.000 A 
ATOM     24 CL   UNL     1       2.808   2.269  17.376  0.00  0.00    +0.000 Cl
BRANCH  18  26
ATOM     25  C   UNL     1       6.536   4.260  16.008  0.00  0.00    +0.000 C 
ATOM     26  O   UNL     1       5.151   3.948  15.890  0.00  0.00    +0.000 OA
ENDBRANCH  18  26
ENDBRANCH   1  21
TORSDOF 3
ENDMDL
MODEL 8
REMARK VINA RESULT:      -7.9      4.349      8.766
REMARK  Name = 
REMARK  4 active torsions:
REMARK  status: ('A' for Active; 'I' for Inactive)
REMARK    1  A    between atoms: C_1  and  O_2
REMARK    2  A    between atoms: O_2  and  C_3
REMARK    3  A    between atoms: C_6  and  C_7
REMARK    4  A    between atoms: C_12  and  C_13
REMARK                            x       y       z     vdW  Elec       q    Type
REMARK                         _______ _______ _______ _____ _____    ______ ____
ROOT
ATOM      1  C   UNL     1       2.071   7.196  19.765  0.00  0.00    +0.000 C 
ATOM      2  O   UNL     1       2.018   6.750  20.912  0.00  0.00    +0.000 OA
ATOM      3  N   UNL     1       1.479   8.416  19.402  0.00  0.00    +0.000 N 
ATOM      4  C   UNL     1       1.102   9.331  20.480  0.00  0.00    +0.000 C 
ATOM      5  C   UNL     1      -0.229  10.026  20.208  0.00  0.00    +0.000 C 
ATOM      6  C   UNL     1      -0.282  10.698  18.833  0.00  0.00    +0.000 C 
ATOM      7  C   UNL     1       0.146   9.715  17.743  0.00  0.00    +0.000 C 
ATOM      8  C   UNL     1       1.449   8.993  18.056  0.00  0.00    +0.000 C 
ENDROOT
BRANCH   6   9
ATOM      9  C   UNL     1       0.506  11.989  18.791  0.00  0.00    +0.000 A 
ATOM     10  N   UNL     1       1.787  12.092  18.505  0.00  0.00    +0.000 NA
ATOM     11  C   UNL     1       2.171  13.427  18.505  0.00  0.00    +0.000 A 
ATOM     12  C   UNL     1       3.464  13.920  18.229  0.00  0.00    +0.000 A 
ATOM     13  C   UNL     1       3.705  15.299  18.263  0.00  0.00    +0.000 A 
ATOM     14  C   UNL     1       2.681  16.187  18.571  0.00  0.00    +0.000 A 
ATOM     15  C   UNL     1       1.393  15.723  18.854  0.00  0.00    +0.000 A 
ATOM     16  C   UNL     1       1.162  14.337  18.817  0.00  0.00    +0.000 A 
ATOM     17  S   UNL     1      -0.299  13.477  19.105  0.00  0.00    +0.000 S 
ENDBRANCH   6   9
BRANCH   1  21
ATOM     18  C   UNL     1       4.219   4.766  16.921  0.00  0.00    +0.000 A 
ATOM     19  C   UNL     1       4.649   6.061  17.242  0.00  0.00    +0.000 A 
ATOM     20  C   UNL     1       3.944   6.849  18.160  0.00  0.00    +0.000 A 
ATOM     21  C   UNL     1       2.782   6.356  18.760  0.00  0.00    +0.000 A 
ATOM     22  C   UNL     1       2.303   5.106  18.368  0.00  0.00    +0.000 A 
ATOM     23  C   UNL     1       3.050   4.282  17.520  0.00  0.00    +0.000 A 
ATOM     24 CL   UNL     1       2.486   2.651  17.400  0.00  0.00    +0.000 Cl
BRANCH  18  26
ATOM     25  C   UNL     1       6.457   4.371  16.211  0.00  0.00    +0.000 C 
ATOM     26  O   UNL     1       5.066   4.102  16.074  0.00  0.00    +0.000 OA
ENDBRANCH  18  26
ENDBRANCH   1  21
TORSDOF 3
ENDMDL
MODEL 9
REMARK VINA RESULT:      -7.8      1.082      1.469
REMARK  Name = 
REMARK  4 active torsions:
REMARK  status: ('A' for Active; 'I' for Inactive)
REMARK    1  A    between atoms: C_1  and  O_2
REMARK    2  A    between atoms: O_2  and  C_3
REMARK    3  A    between atoms: C_6  and  C_7
REMARK    4  A    between atoms: C_12  and  C_13
REMARK                            x       y       z     vdW  Elec       q    Type
REMARK                         _______ _______ _______ _____ _____    ______ ____
ROOT
ATOM      1  C   UNL     1       2.257   5.790  19.273  0.00  0.00    +0.000 C 
ATOM      2  O   UNL     1       1.433   4.945  19.625  0.00  0.00    +0.000 OA
ATOM      3  N   UNL     1       3.499   5.447  18.716  0.00  0.00    +0.000 N 
ATOM      4  C   UNL     1       3.665   4.078  18.227  0.00  0.00    +0.000 C 
ATOM      5  C   UNL     1       5.048   3.516  18.543  0.00  0.00    +0.000 C 
ATOM      6  C   UNL     1       6.185   4.435  18.089  0.00  0.00    +0.000 C 
ATOM      7  C   UNL     1       5.956   5.858  18.599  0.00  0.00    +0.000 C 
ATOM      8  C   UNL     1       4.554   6.383  18.320  0.00  0.00    +0.000 C 
ENDROOT
BRANCH   6   9
ATOM      9  C   UNL     1       6.405   4.384  16.593  0.00  0.00    +0.000 A 
ATOM     10  N   UNL     1       5.762   3.602  15.753  0.00  0.00    +0.000 NA
ATOM     11  C   UNL     1       6.176   3.855  14.451  0.00  0.00    +0.000 A 
ATOM     12  C   UNL     1       5.697   3.217  13.288  0.00  0.00    +0.000 A 
ATOM     13  C   UNL     1       6.206   3.578  12.035  0.00  0.00    +0.000 A 
ATOM     14  C   UNL     1       7.186   4.559  11.928  0.00  0.00    +0.000 A 
ATOM     15  C   UNL     1       7.681   5.202  13.066  0.00  0.00    +0.000 A 
ATOM     16  C   UNL     1       7.162   4.831  14.319  0.00  0.00    +0.000 A 
ATOM     17  S   UNL     1       7.560   5.442  15.877  0.00  0.00    +0.000 S 
ENDBRANCH   6   9
BRANCH   1  21
ATOM     18  C   UNL     1       1.074   9.901  19.832  0.00  0.00    +0.000 A 
ATOM     19  C   UNL     1       1.476   9.424  18.576  0.00  0.00    +0.000 A 
ATOM     20  C   UNL     1       1.865   8.091  18.401  0.00  0.00    +0.000 A 
ATOM     21  C   UNL     1       1.878   7.215  19.491  0.00  0.00    +0.000 A 
ATOM     22  C   UNL     1       1.571   7.714  20.756  0.00  0.00    +0.000 A 
ATOM     23  C   UNL     1       1.098   9.020  20.920  0.00  0.00    +0.000 A 
ATOM     24 CL   UNL     1       0.451   9.374  22.485  0.00  0.00    +0.000 Cl
BRANCH  18  26
ATOM     25  C   UNL     1      -0.761  11.414  19.733  0.00  0.00    +0.000 C 
ATOM     26  O   UNL     1       0.645  11.201  19.813  0.00  0.00    +0.000 OA
ENDBRANCH  18  26
ENDBRANCH   1  21
TORSDOF 3
ENDMDL
