MODEL 1
REMARK VINA RESULT:      -7.6      0.000      0.000
REMARK  Name = 
REMARK  8 active torsions:
REMARK  status: ('A' for Active; 'I' for Inactive)
REMARK    1  A    between atoms: C_1  and  C_2
REMARK    2  A    between atoms: C_2  and  C_3
REMARK    3  A    between atoms: C_4  and  C_5
REMARK    4  A    between atoms: C_5  and  C_6
REMARK    5  A    between atoms: C_11  and  O_12
REMARK    6  A    between atoms: O_12  and  C_13
REMARK    7  A    between atoms: N_17  and  C_18
REMARK    8  A    between atoms: C_18  and  C_19
REMARK                            x       y       z     vdW  Elec       q    Type
REMARK                         _______ _______ _______ _____ _____    ______ ____
ROOT
ATOM      1  C   UNL     1       2.959   3.803  18.574  0.00  0.00    +0.000 A 
ATOM      2  C   UNL     1       2.038   4.018  19.597  0.00  0.00    +0.000 A 
ATOM      3  C   UNL     1       1.934   5.435  19.780  0.00  0.00    +0.000 A 
ATOM      4  C   UNL     1       1.226   6.257  20.685  0.00  0.00    +0.000 A 
ATOM      5  C   UNL     1       1.288   7.653  20.573  0.00  0.00    +0.000 A 
ATOM      6  C   UNL     1       2.012   8.231  19.535  0.00  0.00    +0.000 A 
ATOM      7  C   UNL     1       2.721   7.441  18.624  0.00  0.00    +0.000 A 
ATOM      8  C   UNL     1       2.695   6.046  18.786  0.00  0.00    +0.000 A 
ATOM      9  N   UNL     1       3.337   5.043  18.083  0.00  0.00    +0.000 N 
ENDROOT
BRANCH   1  11
ATOM     10  C   UNL     1       4.232   1.692  19.034  0.00  0.00    +0.000 C 
ATOM     11  C   UNL     1       3.474   2.513  18.000  0.00  0.00    +0.000 C 
ENDBRANCH   1  11
BRANCH   5  12
ATOM     12  O   UNL     1       0.588   8.335  21.533  0.00  0.00    +0.000 OA
ATOM     13  C   UNL     1       1.328   9.250  22.333  0.00  0.00    +0.000 C 
ENDBRANCH   5  12
BRANCH   2  14
ATOM     14  C   UNL     1       1.217   2.986  20.332  0.00  0.00    +0.000 C 
BRANCH  14  15
ATOM     15  C   UNL     1       1.678   2.554  21.712  0.00  0.00    +0.000 C 
ATOM     16  N   UNL     1       0.752   2.225  22.651  0.00  0.00    +0.000 N 
ATOM     17  O   UNL     1       2.876   2.512  22.008  0.00  0.00    +0.000 OA
ATOM     18  H   UNL     1      -0.215   2.052  22.406  0.00  0.00    +0.000 HD
ATOM     19  H   UNL     1       1.096   1.869  23.533  0.00  0.00    +0.000 HD
ENDBRANCH  14  15
ENDBRANCH   2  14
BRANCH   9  20
ATOM     20  C   UNL     1       4.352   5.295  17.055  0.00  0.00    +0.000 C 
BRANCH  20  21
ATOM     21  C   UNL     1       5.654   5.895  17.534  0.00  0.00    +0.000 A 
ATOM     22  C   UNL     1       6.229   7.062  17.011  0.00  0.00    +0.000 A 
ATOM     23  C   UNL     1       7.458   7.526  17.489  0.00  0.00    +0.000 A 
ATOM     24  C   UNL     1       8.123   6.841  18.504  0.00  0.00    +0.000 A 
ATOM     25  C   UNL     1       7.555   5.698  19.055  0.00  0.00    +0.000 A 
ATOM     26  C   UNL     1       6.330   5.232  18.577  0.00  0.00    +0.000 A 
ENDBRANCH  20  21
ENDBRANCH   9  20
TORSDOF 6
ENDMDL
MODEL 2
REMARK VINA RESULT:      -7.5      0.342      1.041
REMARK  Name = 
REMARK  8 active torsions:
REMARK  status: ('A' for Active; 'I' for Inactive)
REMARK    1  A    between atoms: C_1  and  C_2
REMARK    2  A    between atoms: C_2  and  C_3
REMARK    3  A    between atoms: C_4  and  C_5
REMARK    4  A    between atoms: C_5  and  C_6
REMARK    5  A    between atoms: C_11  and  O_12
REMARK    6  A    between atoms: O_12  and  C_13
REMARK    7  A    between atoms: N_17  and  C_18
REMARK    8  A    between atoms: C_18  and  C_19
REMARK                            x       y       z     vdW  Elec       q    Type
REMARK                         _______ _______ _______ _____ _____    ______ ____
ROOT
ATOM      1  C   UNL     1       2.898   3.931  18.631  0.00  0.00    +0.000 A 
ATOM      2  C   UNL     1       1.987   4.147  19.663  0.00  0.00    +0.000 A 
ATOM      3  C   UNL     1       1.901   5.564  19.859  0.00  0.00    +0.000 A 
ATOM      4  C   UNL     1       1.210   6.385  20.777  0.00  0.00    +0.000 A 
ATOM      5  C   UNL     1       1.287   7.782  20.677  0.00  0.00    +0.000 A 
ATOM      6  C   UNL     1       2.010   8.360  19.639  0.00  0.00    +0.000 A 
ATOM      7  C   UNL     1       2.703   7.571  18.716  0.00  0.00    +0.000 A 
ATOM      8  C   UNL     1       2.662   6.175  18.865  0.00  0.00    +0.000 A 
ATOM      9  N   UNL     1       3.287   5.171  18.148  0.00  0.00    +0.000 N 
ENDROOT
BRANCH   1  11
ATOM     10  C   UNL     1       4.205   1.832  19.044  0.00  0.00    +0.000 C 
ATOM     11  C   UNL     1       3.393   2.640  18.041  0.00  0.00    +0.000 C 
ENDBRANCH   1  11
BRANCH   5  12
ATOM     12  O   UNL     1       0.602   8.464  21.648  0.00  0.00    +0.000 OA
ATOM     13  C   UNL     1       0.268   9.817  21.362  0.00  0.00    +0.000 C 
ENDBRANCH   5  12
BRANCH   2  14
ATOM     14  C   UNL     1       1.159   3.119  20.394  0.00  0.00    +0.000 C 
BRANCH  14  15
ATOM     15  C   UNL     1       1.666   2.610  21.732  0.00  0.00    +0.000 C 
ATOM     16  N   UNL     1       0.772   2.222  22.678  0.00  0.00    +0.000 N 
ATOM     17  O   UNL     1       2.873   2.559  21.987  0.00  0.00    +0.000 OA
ATOM     18  H   UNL     1      -0.202   2.057  22.455  0.00  0.00    +0.000 HD
ATOM     19  H   UNL     1       1.146   1.818  23.527  0.00  0.00    +0.000 HD
ENDBRANCH  14  15
ENDBRANCH   2  14
BRANCH   9  20
ATOM     20  C   UNL     1       4.298   5.421  17.116  0.00  0.00    +0.000 C 
BRANCH  20  21
ATOM     21  C   UNL     1       5.647   5.900  17.602  0.00  0.00    +0.000 A 
ATOM     22  C   UNL     1       6.419   5.242  18.569  0.00  0.00    +0.000 A 
ATOM     23  C   UNL     1       7.641   5.777  18.988  0.00  0.00    +0.000 A 
ATOM     24  C   UNL     1       8.115   6.967  18.439  0.00  0.00    +0.000 A 
ATOM     25  C   UNL     1       7.376   7.619  17.458  0.00  0.00    +0.000 A 
ATOM     26  C   UNL     1       6.155   7.088  17.040  0.00  0.00    +0.000 A 
ENDBRANCH  20  21
ENDBRANCH   9  20
TORSDOF 6
ENDMDL
MODEL 3
REMARK VINA RESULT:      -7.2      2.582      5.549
REMARK  Name = 
REMARK  8 active torsions:
REMARK  status: ('A' for Active; 'I' for Inactive)
REMARK    1  A    between atoms: C_1  and  C_2
REMARK    2  A    between atoms: C_2  and  C_3
REMARK    3  A    between atoms: C_4  and  C_5
REMARK    4  A    between atoms: C_5  and  C_6
REMARK    5  A    between atoms: C_11  and  O_12
REMARK    6  A    between atoms: O_12  and  C_13
REMARK    7  A    between atoms: N_17  and  C_18
REMARK    8  A    between atoms: C_18  and  C_19
REMARK                            x       y       z     vdW  Elec       q    Type
REMARK                         _______ _______ _______ _____ _____    ______ ____
ROOT
ATOM      1  C   UNL     1       2.382   4.836  18.880  0.00  0.00    +0.000 A 
ATOM      2  C   UNL     1       2.905   4.081  17.832  0.00  0.00    +0.000 A 
ATOM      3  C   UNL     1       3.945   4.861  17.230  0.00  0.00    +0.000 A 
ATOM      4  C   UNL     1       4.789   4.672  16.113  0.00  0.00    +0.000 A 
ATOM      5  C   UNL     1       5.774   5.619  15.799  0.00  0.00    +0.000 A 
ATOM      6  C   UNL     1       5.951   6.728  16.621  0.00  0.00    +0.000 A 
ATOM      7  C   UNL     1       5.131   6.939  17.733  0.00  0.00    +0.000 A 
ATOM      8  C   UNL     1       4.112   6.010  17.999  0.00  0.00    +0.000 A 
ATOM      9  N   UNL     1       3.134   5.996  18.977  0.00  0.00    +0.000 N 
ENDROOT
BRANCH   1  11
ATOM     10  C   UNL     1       1.755   3.949  21.139  0.00  0.00    +0.000 C 
ATOM     11  C   UNL     1       1.253   4.521  19.820  0.00  0.00    +0.000 C 
ENDBRANCH   1  11
BRANCH   5  12
ATOM     12  O   UNL     1       6.501   5.338  14.673  0.00  0.00    +0.000 OA
ATOM     13  C   UNL     1       6.233   4.095  14.035  0.00  0.00    +0.000 C 
ENDBRANCH   5  12
BRANCH   2  14
ATOM     14  C   UNL     1       2.537   2.672  17.436  0.00  0.00    +0.000 C 
BRANCH  14  15
ATOM     15  C   UNL     1       2.854   1.549  18.408  0.00  0.00    +0.000 C 
ATOM     16  N   UNL     1       4.023   0.869  18.282  0.00  0.00    +0.000 N 
ATOM     17  O   UNL     1       2.063   1.226  19.300  0.00  0.00    +0.000 OA
ATOM     18  H   UNL     1       4.781   1.215  17.706  0.00  0.00    +0.000 HD
ATOM     19  H   UNL     1       4.235   0.180  18.991  0.00  0.00    +0.000 HD
ENDBRANCH  14  15
ENDBRANCH   2  14
BRANCH   9  20
ATOM     20  C   UNL     1       2.884   7.117  19.890  0.00  0.00    +0.000 C 
BRANCH  20  21
ATOM     21  C   UNL     1       1.905   8.164  19.411  0.00  0.00    +0.000 A 
ATOM     22  C   UNL     1       1.786   8.587  18.079  0.00  0.00    +0.000 A 
ATOM     23  C   UNL     1       0.877   9.590  17.730  0.00  0.00    +0.000 A 
ATOM     24  C   UNL     1       0.065  10.174  18.700  0.00  0.00    +0.000 A 
ATOM     25  C   UNL     1       0.149   9.747  20.021  0.00  0.00    +0.000 A 
ATOM     26  C   UNL     1       1.057   8.748  20.372  0.00  0.00    +0.000 A 
ENDBRANCH  20  21
ENDBRANCH   9  20
TORSDOF 6
ENDMDL
MODEL 4
REMARK VINA RESULT:      -7.1      1.200      1.658
REMARK  Name = 
REMARK  8 active torsions:
REMARK  status: ('A' for Active; 'I' for Inactive)
REMARK    1  A    between atoms: C_1  and  C_2
REMARK    2  A    between atoms: C_2  and  C_3
REMARK    3  A    between atoms: C_4  and  C_5
REMARK    4  A    between atoms: C_5  and  C_6
REMARK    5  A    between atoms: C_11  and  O_12
REMARK    6  A    between atoms: O_12  and  C_13
REMARK    7  A    between atoms: N_17  and  C_18
REMARK    8  A    between atoms: C_18  and  C_19
REMARK                            x       y       z     vdW  Elec       q    Type
REMARK                         _______ _______ _______ _____ _____    ______ ____
ROOT
ATOM      1  C   UNL     1       3.527   4.795  19.403  0.00  0.00    +0.000 A 
ATOM      2  C   UNL     1       2.520   5.249  20.252  0.00  0.00    +0.000 A 
ATOM      3  C   UNL     1       2.189   6.581  19.839  0.00  0.00    +0.000 A 
ATOM      4  C   UNL     1       1.308   7.568  20.331  0.00  0.00    +0.000 A 
ATOM      5  C   UNL     1       1.162   8.789  19.658  0.00  0.00    +0.000 A 
ATOM      6  C   UNL     1       1.855   9.009  18.472  0.00  0.00    +0.000 A 
ATOM      7  C   UNL     1       2.733   8.048  17.961  0.00  0.00    +0.000 A 
ATOM      8  C   UNL     1       2.910   6.855  18.679  0.00  0.00    +0.000 A 
ATOM      9  N   UNL     1       3.742   5.774  18.446  0.00  0.00    +0.000 N 
ENDROOT
BRANCH   1  11
ATOM     10  C   UNL     1       3.660   2.488  18.431  0.00  0.00    +0.000 C 
ATOM     11  C   UNL     1       4.268   3.487  19.405  0.00  0.00    +0.000 C 
ENDBRANCH   1  11
BRANCH   5  12
ATOM     12  O   UNL     1       0.306   9.675  20.257  0.00  0.00    +0.000 OA
ATOM     13  C   UNL     1      -0.128   9.352  21.572  0.00  0.00    +0.000 C 
ENDBRANCH   5  12
BRANCH   2  14
ATOM     14  C   UNL     1       1.820   4.482  21.348  0.00  0.00    +0.000 C 
BRANCH  14  15
ATOM     15  C   UNL     1       1.287   3.097  21.024  0.00  0.00    +0.000 C 
ATOM     16  N   UNL     1       0.370   2.952  20.033  0.00  0.00    +0.000 N 
ATOM     17  O   UNL     1       1.655   2.101  21.655  0.00  0.00    +0.000 OA
ATOM     18  H   UNL     1       0.186   3.690  19.365  0.00  0.00    +0.000 HD
ATOM     19  H   UNL     1       0.094   2.008  19.795  0.00  0.00    +0.000 HD
ENDBRANCH  14  15
ENDBRANCH   2  14
BRANCH   9  20
ATOM     20  C   UNL     1       4.771   5.754  17.401  0.00  0.00    +0.000 C 
BRANCH  20  21
ATOM     21  C   UNL     1       6.103   6.370  17.762  0.00  0.00    +0.000 A 
ATOM     22  C   UNL     1       7.032   5.792  18.638  0.00  0.00    +0.000 A 
ATOM     23  C   UNL     1       8.226   6.451  18.946  0.00  0.00    +0.000 A 
ATOM     24  C   UNL     1       8.516   7.688  18.374  0.00  0.00    +0.000 A 
ATOM     25  C   UNL     1       7.619   8.264  17.480  0.00  0.00    +0.000 A 
ATOM     26  C   UNL     1       6.425   7.609  17.174  0.00  0.00    +0.000 A 
ENDBRANCH  20  21
ENDBRANCH   9  20
TORSDOF 6
ENDMDL
MODEL 5
REMARK VINA RESULT:      -7.0      1.172      1.310
REMARK  Name = 
REMARK  8 active torsions:
REMARK  status: ('A' for Active; 'I' for Inactive)
REMARK    1  A    between atoms: C_1  and  C_2
REMARK    2  A    between atoms: C_2  and  C_3
REMARK    3  A    between atoms: C_4  and  C_5
REMARK    4  A    between atoms: C_5  and  C_6
REMARK    5  A    between atoms: C_11  and  O_12
REMARK    6  A    between atoms: O_12  and  C_13
REMARK    7  A    between atoms: N_17  and  C_18
REMARK    8  A    between atoms: C_18  and  C_19
REMARK                            x       y       z     vdW  Elec       q    Type
REMARK                         _______ _______ _______ _____ _____    ______ ____
ROOT
ATOM      1  C   UNL     1       3.479   4.769  19.403  0.00  0.00    +0.000 A 
ATOM      2  C   UNL     1       2.479   5.237  20.253  0.00  0.00    +0.000 A 
ATOM      3  C   UNL     1       2.175   6.577  19.849  0.00  0.00    +0.000 A 
ATOM      4  C   UNL     1       1.312   7.578  20.346  0.00  0.00    +0.000 A 
ATOM      5  C   UNL     1       1.191   8.806  19.680  0.00  0.00    +0.000 A 
ATOM      6  C   UNL     1       1.890   9.021  18.497  0.00  0.00    +0.000 A 
ATOM      7  C   UNL     1       2.751   8.047  17.981  0.00  0.00    +0.000 A 
ATOM      8  C   UNL     1       2.904   6.845  18.692  0.00  0.00    +0.000 A 
ATOM      9  N   UNL     1       3.715   5.750  18.453  0.00  0.00    +0.000 N 
ENDROOT
BRANCH   1  11
ATOM     10  C   UNL     1       3.614   2.490  18.367  0.00  0.00    +0.000 C 
ATOM     11  C   UNL     1       4.195   3.448  19.398  0.00  0.00    +0.000 C 
ENDBRANCH   1  11
BRANCH   5  12
ATOM     12  O   UNL     1       0.351   9.704  20.283  0.00  0.00    +0.000 OA
ATOM     13  C   UNL     1       0.589   9.976  21.659  0.00  0.00    +0.000 C 
ENDBRANCH   5  12
BRANCH   2  14
ATOM     14  C   UNL     1       1.763   4.476  21.342  0.00  0.00    +0.000 C 
BRANCH  14  15
ATOM     15  C   UNL     1       1.256   3.080  21.026  0.00  0.00    +0.000 C 
ATOM     16  N   UNL     1       0.371   2.907  20.009  0.00  0.00    +0.000 N 
ATOM     17  O   UNL     1       1.615   2.099  21.685  0.00  0.00    +0.000 OA
ATOM     18  H   UNL     1       0.201   3.632  19.323  0.00  0.00    +0.000 HD
ATOM     19  H   UNL     1       0.114   1.956  19.778  0.00  0.00    +0.000 HD
ENDBRANCH  14  15
ENDBRANCH   2  14
BRANCH   9  20
ATOM     20  C   UNL     1       4.745   5.718  17.410  0.00  0.00    +0.000 C 
BRANCH  20  21
ATOM     21  C   UNL     1       6.041   6.430  17.727  0.00  0.00    +0.000 A 
ATOM     22  C   UNL     1       6.433   7.650  17.159  0.00  0.00    +0.000 A 
ATOM     23  C   UNL     1       7.668   8.220  17.481  0.00  0.00    +0.000 A 
ATOM     24  C   UNL     1       8.522   7.589  18.383  0.00  0.00    +0.000 A 
ATOM     25  C   UNL     1       8.137   6.392  18.979  0.00  0.00    +0.000 A 
ATOM     26  C   UNL     1       6.906   5.821  18.656  0.00  0.00    +0.000 A 
ENDBRANCH  20  21
ENDBRANCH   9  20
TORSDOF 6
ENDMDL
MODEL 6
REMARK VINA RESULT:      -7.0      3.435      6.462
REMARK  Name = 
REMARK  8 active torsions:
REMARK  status: ('A' for Active; 'I' for Inactive)
REMARK    1  A    between atoms: C_1  and  C_2
REMARK    2  A    between atoms: C_2  and  C_3
REMARK    3  A    between atoms: C_4  and  C_5
REMARK    4  A    between atoms: C_5  and  C_6
REMARK    5  A    between atoms: C_11  and  O_12
REMARK    6  A    between atoms: O_12  and  C_13
REMARK    7  A    between atoms: N_17  and  C_18
REMARK    8  A    between atoms: C_18  and  C_19
REMARK                            x       y       z     vdW  Elec       q    Type
REMARK                         _______ _______ _______ _____ _____    ______ ____
ROOT
ATOM      1  C   UNL     1       4.781   3.856  17.097  0.00  0.00    +0.000 A 
ATOM      2  C   UNL     1       5.343   4.790  16.229  0.00  0.00    +0.000 A 
ATOM      3  C   UNL     1       6.194   5.635  17.014  0.00  0.00    +0.000 A 
ATOM      4  C   UNL     1       6.974   6.777  16.728  0.00  0.00    +0.000 A 
ATOM      5  C   UNL     1       7.763   7.366  17.726  0.00  0.00    +0.000 A 
ATOM      6  C   UNL     1       7.815   6.792  18.992  0.00  0.00    +0.000 A 
ATOM      7  C   UNL     1       7.054   5.661  19.303  0.00  0.00    +0.000 A 
ATOM      8  C   UNL     1       6.225   5.118  18.308  0.00  0.00    +0.000 A 
ATOM      9  N   UNL     1       5.336   4.059  18.350  0.00  0.00    +0.000 N 
ENDROOT
BRANCH   1  11
ATOM     10  C   UNL     1       2.353   3.250  16.927  0.00  0.00    +0.000 C 
ATOM     11  C   UNL     1       3.791   2.760  16.817  0.00  0.00    +0.000 C 
ENDBRANCH   1  11
BRANCH   5  12
ATOM     12  O   UNL     1       8.442   8.488  17.331  0.00  0.00    +0.000 OA
ATOM     13  C   UNL     1       8.552   9.536  18.286  0.00  0.00    +0.000 C 
ENDBRANCH   5  12
BRANCH   2  14
ATOM     14  C   UNL     1       5.185   4.872  14.730  0.00  0.00    +0.000 C 
BRANCH  14  15
ATOM     15  C   UNL     1       6.358   4.452  13.862  0.00  0.00    +0.000 C 
ATOM     16  N   UNL     1       6.312   3.261  13.210  0.00  0.00    +0.000 N 
ATOM     17  O   UNL     1       7.363   5.161  13.751  0.00  0.00    +0.000 OA
ATOM     18  H   UNL     1       5.447   2.744  13.108  0.00  0.00    +0.000 HD
ATOM     19  H   UNL     1       7.076   3.049  12.582  0.00  0.00    +0.000 HD
ENDBRANCH  14  15
ENDBRANCH   2  14
BRANCH   9  20
ATOM     20  C   UNL     1       4.973   3.355  19.584  0.00  0.00    +0.000 C 
BRANCH  20  21
ATOM     21  C   UNL     1       3.555   3.549  20.072  0.00  0.00    +0.000 A 
ATOM     22  C   UNL     1       2.720   2.513  20.513  0.00  0.00    +0.000 A 
ATOM     23  C   UNL     1       1.407   2.779  20.912  0.00  0.00    +0.000 A 
ATOM     24  C   UNL     1       0.914   4.082  20.891  0.00  0.00    +0.000 A 
ATOM     25  C   UNL     1       1.737   5.127  20.484  0.00  0.00    +0.000 A 
ATOM     26  C   UNL     1       3.047   4.863  20.082  0.00  0.00    +0.000 A 
ENDBRANCH  20  21
ENDBRANCH   9  20
TORSDOF 6
ENDMDL
MODEL 7
REMARK VINA RESULT:      -6.8      1.189      1.366
REMARK  Name = 
REMARK  8 active torsions:
REMARK  status: ('A' for Active; 'I' for Inactive)
REMARK    1  A    between atoms: C_1  and  C_2
REMARK    2  A    between atoms: C_2  and  C_3
REMARK    3  A    between atoms: C_4  and  C_5
REMARK    4  A    between atoms: C_5  and  C_6
REMARK    5  A    between atoms: C_11  and  O_12
REMARK    6  A    between atoms: O_12  and  C_13
REMARK    7  A    between atoms: N_17  and  C_18
REMARK    8  A    between atoms: C_18  and  C_19
REMARK                            x       y       z     vdW  Elec       q    Type
REMARK                         _______ _______ _______ _____ _____    ______ ____
ROOT
ATOM      1  C   UNL     1       2.381   4.077  18.556  0.00  0.00    +0.000 A 
ATOM      2  C   UNL     1       1.639   4.303  19.714  0.00  0.00    +0.000 A 
ATOM      3  C   UNL     1       1.679   5.712  19.972  0.00  0.00    +0.000 A 
ATOM      4  C   UNL     1       1.180   6.532  21.008  0.00  0.00    +0.000 A 
ATOM      5  C   UNL     1       1.338   7.924  20.949  0.00  0.00    +0.000 A 
ATOM      6  C   UNL     1       1.948   8.503  19.841  0.00  0.00    +0.000 A 
ATOM      7  C   UNL     1       2.450   7.714  18.801  0.00  0.00    +0.000 A 
ATOM      8  C   UNL     1       2.334   6.319  18.903  0.00  0.00    +0.000 A 
ATOM      9  N   UNL     1       2.783   5.311  18.069  0.00  0.00    +0.000 N 
ENDROOT
BRANCH   1  11
ATOM     10  C   UNL     1       3.783   1.999  18.578  0.00  0.00    +0.000 C 
ATOM     11  C   UNL     1       2.699   2.786  17.855  0.00  0.00    +0.000 C 
ENDBRANCH   1  11
BRANCH   5  12
ATOM     12  O   UNL     1       0.844   8.602  22.032  0.00  0.00    +0.000 OA
ATOM     13  C   UNL     1      -0.529   8.971  21.980  0.00  0.00    +0.000 C 
ENDBRANCH   5  12
BRANCH   2  14
ATOM     14  C   UNL     1       0.852   3.296  20.517  0.00  0.00    +0.000 C 
BRANCH  14  15
ATOM     15  C   UNL     1       1.516   2.670  21.730  0.00  0.00    +0.000 C 
ATOM     16  N   UNL     1       2.871   2.575  21.772  0.00  0.00    +0.000 N 
ATOM     17  O   UNL     1       0.853   2.227  22.673  0.00  0.00    +0.000 OA
ATOM     18  H   UNL     1       3.461   3.091  21.131  0.00  0.00    +0.000 HD
ATOM     19  H   UNL     1       3.282   2.222  22.626  0.00  0.00    +0.000 HD
ENDBRANCH  14  15
ENDBRANCH   2  14
BRANCH   9  20
ATOM     20  C   UNL     1       3.655   5.543  16.913  0.00  0.00    +0.000 C 
BRANCH  20  21
ATOM     21  C   UNL     1       5.119   5.223  17.104  0.00  0.00    +0.000 A 
ATOM     22  C   UNL     1       5.918   4.569  16.155  0.00  0.00    +0.000 A 
ATOM     23  C   UNL     1       7.257   4.278  16.431  0.00  0.00    +0.000 A 
ATOM     24  C   UNL     1       7.822   4.647  17.651  0.00  0.00    +0.000 A 
ATOM     25  C   UNL     1       7.053   5.321  18.594  0.00  0.00    +0.000 A 
ATOM     26  C   UNL     1       5.715   5.610  18.321  0.00  0.00    +0.000 A 
ENDBRANCH  20  21
ENDBRANCH   9  20
TORSDOF 6
ENDMDL
MODEL 8
REMARK VINA RESULT:      -6.8      3.488      6.452
REMARK  Name = 
REMARK  8 active torsions:
REMARK  status: ('A' for Active; 'I' for Inactive)
REMARK    1  A    between atoms: C_1  and  C_2
REMARK    2  A    between atoms: C_2  and  C_3
REMARK    3  A    between atoms: C_4  and  C_5
REMARK    4  A    between atoms: C_5  and  C_6
REMARK    5  A    between atoms: C_11  and  O_12
REMARK    6  A    between atoms: O_12  and  C_13
REMARK    7  A    between atoms: N_17  and  C_18
REMARK    8  A    between atoms: C_18  and  C_19
REMARK                            x       y       z     vdW  Elec       q    Type
REMARK                         _______ _______ _______ _____ _____    ______ ____
ROOT
ATOM      1  C   UNL     1       4.926   4.057  17.044  0.00  0.00    +0.000 A 
ATOM      2  C   UNL     1       5.525   5.034  16.249  0.00  0.00    +0.000 A 
ATOM      3  C   UNL     1       6.363   5.818  17.107  0.00  0.00    +0.000 A 
ATOM      4  C   UNL     1       7.165   6.964  16.911  0.00  0.00    +0.000 A 
ATOM      5  C   UNL     1       7.932   7.482  17.964  0.00  0.00    +0.000 A 
ATOM      6  C   UNL     1       7.941   6.834  19.194  0.00  0.00    +0.000 A 
ATOM      7  C   UNL     1       7.157   5.697  19.416  0.00  0.00    +0.000 A 
ATOM      8  C   UNL     1       6.350   5.226  18.368  0.00  0.00    +0.000 A 
ATOM      9  N   UNL     1       5.448   4.178  18.322  0.00  0.00    +0.000 N 
ENDROOT
BRANCH   1  11
ATOM     10  C   UNL     1       2.496   3.478  16.828  0.00  0.00    +0.000 C 
ATOM     11  C   UNL     1       3.931   2.994  16.671  0.00  0.00    +0.000 C 
ENDBRANCH   1  11
BRANCH   5  12
ATOM     12  O   UNL     1       8.636   8.616  17.655  0.00  0.00    +0.000 OA
ATOM     13  C   UNL     1       8.794   9.571  18.697  0.00  0.00    +0.000 C 
ENDBRANCH   5  12
BRANCH   2  14
ATOM     14  C   UNL     1       5.411   5.205  14.754  0.00  0.00    +0.000 C 
BRANCH  14  15
ATOM     15  C   UNL     1       6.508   4.624  13.880  0.00  0.00    +0.000 C 
ATOM     16  N   UNL     1       6.386   3.353  13.416  0.00  0.00    +0.000 N 
ATOM     17  O   UNL     1       7.520   5.273  13.598  0.00  0.00    +0.000 OA
ATOM     18  H   UNL     1       5.504   2.856  13.450  0.00  0.00    +0.000 HD
ATOM     19  H   UNL     1       7.098   3.025  12.776  0.00  0.00    +0.000 HD
ENDBRANCH  14  15
ENDBRANCH   2  14
BRANCH   9  20
ATOM     20  C   UNL     1       5.040   3.408  19.501  0.00  0.00    +0.000 C 
BRANCH  20  21
ATOM     21  C   UNL     1       3.618   3.608  19.972  0.00  0.00    +0.000 A 
ATOM     22  C   UNL     1       3.004   4.858  20.126  0.00  0.00    +0.000 A 
ATOM     23  C   UNL     1       1.693   4.953  20.605  0.00  0.00    +0.000 A 
ATOM     24  C   UNL     1       0.974   3.802  20.922  0.00  0.00    +0.000 A 
ATOM     25  C   UNL     1       1.557   2.552  20.748  0.00  0.00    +0.000 A 
ATOM     26  C   UNL     1       2.866   2.456  20.273  0.00  0.00    +0.000 A 
ENDBRANCH  20  21
ENDBRANCH   9  20
TORSDOF 6
ENDMDL
MODEL 9
REMARK VINA RESULT:      -6.8      1.931      2.635
REMARK  Name = 
REMARK  8 active torsions:
REMARK  status: ('A' for Active; 'I' for Inactive)
REMARK    1  A    between atoms: C_1  and  C_2
REMARK    2  A    between atoms: C_2  and  C_3
REMARK    3  A    between atoms: C_4  and  C_5
REMARK    4  A    between atoms: C_5  and  C_6
REMARK    5  A    between atoms: C_11  and  O_12
REMARK    6  A    between atoms: O_12  and  C_13
REMARK    7  A    between atoms: N_17  and  C_18
REMARK    8  A    between atoms: C_18  and  C_19
REMARK                            x       y       z     vdW  Elec       q    Type
REMARK                         _______ _______ _______ _____ _____    ______ ____
ROOT
ATOM      1  C   UNL     1       3.856   3.881  19.166  0.00  0.00    +0.000 A 
ATOM      2  C   UNL     1       2.677   4.533  19.521  0.00  0.00    +0.000 A 
ATOM      3  C   UNL     1       2.751   5.860  18.984  0.00  0.00    +0.000 A 
ATOM      4  C   UNL     1       1.912   6.994  19.054  0.00  0.00    +0.000 A 
ATOM      5  C   UNL     1       2.241   8.165  18.357  0.00  0.00    +0.000 A 
ATOM      6  C   UNL     1       3.376   8.193  17.553  0.00  0.00    +0.000 A 
ATOM      7  C   UNL     1       4.224   7.084  17.464  0.00  0.00    +0.000 A 
ATOM      8  C   UNL     1       3.910   5.939  18.214  0.00  0.00    +0.000 A 
ATOM      9  N   UNL     1       4.586   4.742  18.362  0.00  0.00    +0.000 N 
ENDROOT
BRANCH   1  11
ATOM     10  C   UNL     1       3.685   1.448  18.585  0.00  0.00    +0.000 C 
ATOM     11  C   UNL     1       4.320   2.490  19.495  0.00  0.00    +0.000 C 
ENDBRANCH   1  11
BRANCH   5  12
ATOM     12  O   UNL     1       1.366   9.203  18.537  0.00  0.00    +0.000 OA
ATOM     13  C   UNL     1       0.896   9.418  19.863  0.00  0.00    +0.000 C 
ENDBRANCH   5  12
BRANCH   2  14
ATOM     14  C   UNL     1       1.486   3.958  20.249  0.00  0.00    +0.000 C 
BRANCH  14  15
ATOM     15  C   UNL     1       1.717   3.326  21.611  0.00  0.00    +0.000 C 
ATOM     16  N   UNL     1       0.897   2.325  22.027  0.00  0.00    +0.000 N 
ATOM     17  O   UNL     1       2.621   3.712  22.357  0.00  0.00    +0.000 OA
ATOM     18  H   UNL     1       0.278   1.843  21.387  0.00  0.00    +0.000 HD
ATOM     19  H   UNL     1       1.126   1.876  22.904  0.00  0.00    +0.000 HD
ENDBRANCH  14  15
ENDBRANCH   2  14
BRANCH   9  20
ATOM     20  C   UNL     1       5.930   4.499  17.829  0.00  0.00    +0.000 C 
BRANCH  20  21
ATOM     21  C   UNL     1       6.052   4.440  16.324  0.00  0.00    +0.000 A 
ATOM     22  C   UNL     1       5.132   3.802  15.479  0.00  0.00    +0.000 A 
ATOM     23  C   UNL     1       5.343   3.763  14.097  0.00  0.00    +0.000 A 
ATOM     24  C   UNL     1       6.466   4.371  13.539  0.00  0.00    +0.000 A 
ATOM     25  C   UNL     1       7.375   5.032  14.358  0.00  0.00    +0.000 A 
ATOM     26  C   UNL     1       7.167   5.069  15.737  0.00  0.00    +0.000 A 
ENDBRANCH  20  21
ENDBRANCH   9  20
TORSDOF 6
ENDMDL
