MODEL 1
REMARK VINA RESULT:      -8.0      0.000      0.000
REMARK  Name = 
REMARK  8 active torsions:
REMARK  status: ('A' for Active; 'I' for Inactive)
REMARK    1  A    between atoms: C_1  and  C_2
REMARK    2  A    between atoms: C_6  and  N_7
REMARK    3  A    between atoms: N_7  and  C_8
REMARK    4  A    between atoms: C_8  and  C_9
REMARK    5  A    between atoms: N_11  and  N_12
REMARK    6  A    between atoms: C_13  and  C_14
REMARK    7  A    between atoms: C_18  and  O_19
REMARK    8  A    between atoms: C_20  and  O_21
REMARK                            x       y       z     vdW  Elec       q    Type
REMARK                         _______ _______ _______ _____ _____    ______ ____
ROOT
ATOM      1  C   UNL     1       0.704   9.790  19.381  0.00  0.00    +0.000 C 
ATOM      2  O   UNL     1       0.404   9.368  20.501  0.00  0.00    +0.000 OA
ATOM      3  N   UNL     1       1.575   9.155  18.504  0.00  0.00    +0.000 N 
ATOM      4  H   UNL     1       1.898   9.617  17.660  0.00  0.00    +0.000 HD
ENDROOT
BRANCH   3   5
ATOM      5  N   UNL     1       2.110   7.967  18.889  0.00  0.00    +0.000 NA
ATOM      6  C   UNL     1       2.922   7.358  18.087  0.00  0.00    +0.000 C 
BRANCH   6   7
ATOM      7  C   UNL     1       3.519   6.062  18.512  0.00  0.00    +0.000 A 
ATOM      8  C   UNL     1       2.748   5.253  19.374  0.00  0.00    +0.000 A 
ATOM      9  C   UNL     1       3.229   4.027  19.823  0.00  0.00    +0.000 A 
ATOM     10 BR   UNL     1       2.163   2.974  20.978  0.00  0.00    +0.000 Br
ATOM     11  C   UNL     1       4.486   3.595  19.416  0.00  0.00    +0.000 A 
ATOM     12  C   UNL     1       5.257   4.388  18.563  0.00  0.00    +0.000 A 
ATOM     13  C   UNL     1       4.789   5.626  18.101  0.00  0.00    +0.000 A 
ATOM     14 BR   UNL     1       5.891   6.653  16.939  0.00  0.00    +0.000 Br
BRANCH  11  15
ATOM     15  O   UNL     1       5.022   2.399  19.821  0.00  0.00    +0.000 OA
ATOM     16  H   UNL     1       5.873   2.292  19.354  0.00  0.00    +0.000 HD
ENDBRANCH  11  15
BRANCH  12  17
ATOM     17  O   UNL     1       6.489   3.909  18.196  0.00  0.00    +0.000 OA
ATOM     18  H   UNL     1       6.322   3.028  17.804  0.00  0.00    +0.000 HD
ENDBRANCH  12  17
ENDBRANCH   6   7
ENDBRANCH   3   5
BRANCH   1  19
ATOM     19  C   UNL     1       0.151  11.120  18.869  0.00  0.00    +0.000 C 
BRANCH  19  20
ATOM     20  N   UNL     1      -1.245  11.275  19.281  0.00  0.00    +0.000 N 
ATOM     21  H   UNL     1      -1.454  10.748  20.131  0.00  0.00    +0.000 HD
BRANCH  20  27
ATOM     22  C   UNL     1      -2.895  10.044  14.736  0.00  0.00    +0.000 C 
ATOM     23  C   UNL     1      -3.134  10.608  16.106  0.00  0.00    +0.000 A 
ATOM     24  C   UNL     1      -4.379  11.138  16.454  0.00  0.00    +0.000 A 
ATOM     25  C   UNL     1      -4.577  11.666  17.727  0.00  0.00    +0.000 A 
ATOM     26  C   UNL     1      -3.531  11.667  18.654  0.00  0.00    +0.000 A 
ATOM     27  C   UNL     1      -2.273  11.133  18.340  0.00  0.00    +0.000 A 
ATOM     28  C   UNL     1      -2.090  10.621  17.049  0.00  0.00    +0.000 A 
ENDBRANCH  20  27
ENDBRANCH  19  20
ENDBRANCH   1  19
TORSDOF 7
ENDMDL
MODEL 2
REMARK VINA RESULT:      -8.0      0.543      1.379
REMARK  Name = 
REMARK  8 active torsions:
REMARK  status: ('A' for Active; 'I' for Inactive)
REMARK    1  A    between atoms: C_1  and  C_2
REMARK    2  A    between atoms: C_6  and  N_7
REMARK    3  A    between atoms: N_7  and  C_8
REMARK    4  A    between atoms: C_8  and  C_9
REMARK    5  A    between atoms: N_11  and  N_12
REMARK    6  A    between atoms: C_13  and  C_14
REMARK    7  A    between atoms: C_18  and  O_19
REMARK    8  A    between atoms: C_20  and  O_21
REMARK                            x       y       z     vdW  Elec       q    Type
REMARK                         _______ _______ _______ _____ _____    ______ ____
ROOT
ATOM      1  C   UNL     1       0.839   9.647  19.378  0.00  0.00    +0.000 C 
ATOM      2  O   UNL     1       0.631   9.245  20.525  0.00  0.00    +0.000 OA
ATOM      3  N   UNL     1       1.739   9.071  18.488  0.00  0.00    +0.000 N 
ATOM      4  H   UNL     1       1.975   9.527  17.614  0.00  0.00    +0.000 HD
ENDROOT
BRANCH   3   5
ATOM      5  N   UNL     1       2.415   7.965  18.897  0.00  0.00    +0.000 NA
ATOM      6  C   UNL     1       2.413   6.917  18.138  0.00  0.00    +0.000 C 
BRANCH   6   7
ATOM      7  C   UNL     1       3.162   5.708  18.577  0.00  0.00    +0.000 A 
ATOM      8  C   UNL     1       2.548   4.891  19.550  0.00  0.00    +0.000 A 
ATOM      9  C   UNL     1       3.179   3.743  20.020  0.00  0.00    +0.000 A 
ATOM     10 BR   UNL     1       2.319   2.676  21.326  0.00  0.00    +0.000 Br
ATOM     11  C   UNL     1       4.429   3.398  19.524  0.00  0.00    +0.000 A 
ATOM     12  C   UNL     1       5.046   4.199  18.560  0.00  0.00    +0.000 A 
ATOM     13  C   UNL     1       4.426   5.359  18.075  0.00  0.00    +0.000 A 
ATOM     14 BR   UNL     1       5.322   6.403  16.761  0.00  0.00    +0.000 Br
BRANCH  11  15
ATOM     15  O   UNL     1       5.107   2.281  19.943  0.00  0.00    +0.000 OA
ATOM     16  H   UNL     1       4.469   1.542  19.950  0.00  0.00    +0.000 HD
ENDBRANCH  11  15
BRANCH  12  17
ATOM     17  O   UNL     1       6.280   3.807  18.107  0.00  0.00    +0.000 OA
ATOM     18  H   UNL     1       6.504   3.003  18.617  0.00  0.00    +0.000 HD
ENDBRANCH  12  17
ENDBRANCH   6   7
ENDBRANCH   3   5
BRANCH   1  19
ATOM     19  C   UNL     1       0.125  10.887  18.838  0.00  0.00    +0.000 C 
BRANCH  19  20
ATOM     20  N   UNL     1      -1.314  10.786  19.091  0.00  0.00    +0.000 N 
ATOM     21  H   UNL     1      -1.540  10.007  19.712  0.00  0.00    +0.000 HD
BRANCH  20  27
ATOM     22  C   UNL     1      -5.634  12.278  17.089  0.00  0.00    +0.000 C 
ATOM     23  C   UNL     1      -4.355  11.498  17.008  0.00  0.00    +0.000 A 
ATOM     24  C   UNL     1      -4.076  10.695  15.899  0.00  0.00    +0.000 A 
ATOM     25  C   UNL     1      -2.888   9.971  15.847  0.00  0.00    +0.000 A 
ATOM     26  C   UNL     1      -1.976  10.048  16.903  0.00  0.00    +0.000 A 
ATOM     27  C   UNL     1      -2.220  10.853  18.025  0.00  0.00    +0.000 A 
ATOM     28  C   UNL     1      -3.428  11.560  18.065  0.00  0.00    +0.000 A 
ENDBRANCH  20  27
ENDBRANCH  19  20
ENDBRANCH   1  19
TORSDOF 7
ENDMDL
MODEL 3
REMARK VINA RESULT:      -7.7      1.010      1.718
REMARK  Name = 
REMARK  8 active torsions:
REMARK  status: ('A' for Active; 'I' for Inactive)
REMARK    1  A    between atoms: C_1  and  C_2
REMARK    2  A    between atoms: C_6  and  N_7
REMARK    3  A    between atoms: N_7  and  C_8
REMARK    4  A    between atoms: C_8  and  C_9
REMARK    5  A    between atoms: N_11  and  N_12
REMARK    6  A    between atoms: C_13  and  C_14
REMARK    7  A    between atoms: C_18  and  O_19
REMARK    8  A    between atoms: C_20  and  O_21
REMARK                            x       y       z     vdW  Elec       q    Type
REMARK                         _______ _______ _______ _____ _____    ______ ____
ROOT
ATOM      1  C   UNL     1       0.906   9.674  20.698  0.00  0.00    +0.000 C 
ATOM      2  O   UNL     1       1.008   9.295  21.867  0.00  0.00    +0.000 OA
ATOM      3  N   UNL     1       1.385   8.977  19.595  0.00  0.00    +0.000 N 
ATOM      4  H   UNL     1       1.403   9.402  18.674  0.00  0.00    +0.000 HD
ENDROOT
BRANCH   3   5
ATOM      5  N   UNL     1       1.976   7.773  19.814  0.00  0.00    +0.000 NA
ATOM      6  C   UNL     1       2.564   7.178  18.826  0.00  0.00    +0.000 C 
BRANCH   6   7
ATOM      7  C   UNL     1       3.224   5.865  19.066  0.00  0.00    +0.000 A 
ATOM      8  C   UNL     1       2.573   4.971  19.943  0.00  0.00    +0.000 A 
ATOM      9  C   UNL     1       3.120   3.723  20.226  0.00  0.00    +0.000 A 
ATOM     10 BR   UNL     1       2.215   2.556  21.408  0.00  0.00    +0.000 Br
ATOM     11  C   UNL     1       4.323   3.354  19.637  0.00  0.00    +0.000 A 
ATOM     12  C   UNL     1       4.975   4.231  18.766  0.00  0.00    +0.000 A 
ATOM     13  C   UNL     1       4.439   5.492  18.470  0.00  0.00    +0.000 A 
ATOM     14 BR   UNL     1       5.379   6.636  17.274  0.00  0.00    +0.000 Br
BRANCH  11  15
ATOM     15  O   UNL     1       4.919   2.141  19.872  0.00  0.00    +0.000 OA
ATOM     16  H   UNL     1       5.236   1.804  19.011  0.00  0.00    +0.000 HD
ENDBRANCH  11  15
BRANCH  12  17
ATOM     17  O   UNL     1       6.158   3.811  18.214  0.00  0.00    +0.000 OA
ATOM     18  H   UNL     1       6.445   4.538  17.625  0.00  0.00    +0.000 HD
ENDBRANCH  12  17
ENDBRANCH   6   7
ENDBRANCH   3   5
BRANCH   1  19
ATOM     19  C   UNL     1       0.258  11.018  20.362  0.00  0.00    +0.000 C 
BRANCH  19  20
ATOM     20  N   UNL     1       0.006  11.107  18.922  0.00  0.00    +0.000 N 
ATOM     21  H   UNL     1       0.506  11.889  18.494  0.00  0.00    +0.000 HD
BRANCH  20  27
ATOM     22  C   UNL     1      -4.837  12.288  19.133  0.00  0.00    +0.000 C 
ATOM     23  C   UNL     1      -3.705  11.515  18.524  0.00  0.00    +0.000 A 
ATOM     24  C   UNL     1      -3.940  10.576  17.517  0.00  0.00    +0.000 A 
ATOM     25  C   UNL     1      -2.877   9.861  16.972  0.00  0.00    +0.000 A 
ATOM     26  C   UNL     1      -1.576  10.083  17.433  0.00  0.00    +0.000 A 
ATOM     27  C   UNL     1      -1.304  11.026  18.434  0.00  0.00    +0.000 A 
ATOM     28  C   UNL     1      -2.390  11.723  18.980  0.00  0.00    +0.000 A 
ENDBRANCH  20  27
ENDBRANCH  19  20
ENDBRANCH   1  19
TORSDOF 7
ENDMDL
MODEL 4
REMARK VINA RESULT:      -7.7      1.267      2.434
REMARK  Name = 
REMARK  8 active torsions:
REMARK  status: ('A' for Active; 'I' for Inactive)
REMARK    1  A    between atoms: C_1  and  C_2
REMARK    2  A    between atoms: C_6  and  N_7
REMARK    3  A    between atoms: N_7  and  C_8
REMARK    4  A    between atoms: C_8  and  C_9
REMARK    5  A    between atoms: N_11  and  N_12
REMARK    6  A    between atoms: C_13  and  C_14
REMARK    7  A    between atoms: C_18  and  O_19
REMARK    8  A    between atoms: C_20  and  O_21
REMARK                            x       y       z     vdW  Elec       q    Type
REMARK                         _______ _______ _______ _____ _____    ______ ____
ROOT
ATOM      1  C   UNL     1       0.731   9.557  19.622  0.00  0.00    +0.000 C 
ATOM      2  O   UNL     1       1.160   9.143  20.702  0.00  0.00    +0.000 OA
ATOM      3  N   UNL     1       1.300   9.276  18.385  0.00  0.00    +0.000 N 
ATOM      4  H   UNL     1       0.994   9.759  17.546  0.00  0.00    +0.000 HD
ENDROOT
BRANCH   3   5
ATOM      5  N   UNL     1       2.385   8.459  18.356  0.00  0.00    +0.000 NA
ATOM      6  C   UNL     1       2.247   7.253  17.909  0.00  0.00    +0.000 C 
BRANCH   6   7
ATOM      7  C   UNL     1       3.437   6.360  17.865  0.00  0.00    +0.000 A 
ATOM      8  C   UNL     1       4.701   6.980  17.764  0.00  0.00    +0.000 A 
ATOM      9  C   UNL     1       5.867   6.222  17.714  0.00  0.00    +0.000 A 
ATOM     10 BR   UNL     1       7.540   7.094  17.579  0.00  0.00    +0.000 Br
ATOM     11  C   UNL     1       5.783   4.836  17.763  0.00  0.00    +0.000 A 
ATOM     12  C   UNL     1       4.538   4.212  17.863  0.00  0.00    +0.000 A 
ATOM     13  C   UNL     1       3.353   4.959  17.914  0.00  0.00    +0.000 A 
ATOM     14 BR   UNL     1       1.690   4.044  18.052  0.00  0.00    +0.000 Br
BRANCH  11  15
ATOM     15  O   UNL     1       6.891   4.028  17.717  0.00  0.00    +0.000 OA
ATOM     16  H   UNL     1       6.584   3.110  17.851  0.00  0.00    +0.000 HD
ENDBRANCH  11  15
BRANCH  12  17
ATOM     17  O   UNL     1       4.519   2.841  17.908  0.00  0.00    +0.000 OA
ATOM     18  H   UNL     1       3.577   2.595  18.003  0.00  0.00    +0.000 HD
ENDBRANCH  12  17
ENDBRANCH   6   7
ENDBRANCH   3   5
BRANCH   1  19
ATOM     19  C   UNL     1      -0.484  10.484  19.562  0.00  0.00    +0.000 C 
BRANCH  19  20
ATOM     20  N   UNL     1      -0.680  10.966  18.193  0.00  0.00    +0.000 N 
ATOM     21  H   UNL     1      -0.227  11.868  18.037  0.00  0.00    +0.000 HD
BRANCH  20  27
ATOM     22  C   UNL     1      -3.749  10.091  14.359  0.00  0.00    +0.000 C 
ATOM     23  C   UNL     1      -3.506  10.595  15.750  0.00  0.00    +0.000 A 
ATOM     24  C   UNL     1      -4.536  11.187  16.487  0.00  0.00    +0.000 A 
ATOM     25  C   UNL     1      -4.287  11.658  17.773  0.00  0.00    +0.000 A 
ATOM     26  C   UNL     1      -3.009  11.540  18.326  0.00  0.00    +0.000 A 
ATOM     27  C   UNL     1      -1.957  10.942  17.618  0.00  0.00    +0.000 A 
ATOM     28  C   UNL     1      -2.224  10.489  16.320  0.00  0.00    +0.000 A 
ENDBRANCH  20  27
ENDBRANCH  19  20
ENDBRANCH   1  19
TORSDOF 7
ENDMDL
MODEL 5
REMARK VINA RESULT:      -7.6      1.327      2.777
REMARK  Name = 
REMARK  8 active torsions:
REMARK  status: ('A' for Active; 'I' for Inactive)
REMARK    1  A    between atoms: C_1  and  C_2
REMARK    2  A    between atoms: C_6  and  N_7
REMARK    3  A    between atoms: N_7  and  C_8
REMARK    4  A    between atoms: C_8  and  C_9
REMARK    5  A    between atoms: N_11  and  N_12
REMARK    6  A    between atoms: C_13  and  C_14
REMARK    7  A    between atoms: C_18  and  O_19
REMARK    8  A    between atoms: C_20  and  O_21
REMARK                            x       y       z     vdW  Elec       q    Type
REMARK                         _______ _______ _______ _____ _____    ______ ____
ROOT
ATOM      1  C   UNL     1       0.894   9.802  19.320  0.00  0.00    +0.000 C 
ATOM      2  O   UNL     1       1.356   9.480  20.417  0.00  0.00    +0.000 OA
ATOM      3  N   UNL     1       1.412   9.402  18.094  0.00  0.00    +0.000 N 
ATOM      4  H   UNL     1       1.082   9.812  17.227  0.00  0.00    +0.000 HD
ENDROOT
BRANCH   3   5
ATOM      5  N   UNL     1       2.484   8.567  18.101  0.00  0.00    +0.000 NA
ATOM      6  C   UNL     1       2.304   7.319  17.809  0.00  0.00    +0.000 C 
BRANCH   6   7
ATOM      7  C   UNL     1       3.479   6.404  17.804  0.00  0.00    +0.000 A 
ATOM      8  C   UNL     1       4.756   7.000  17.729  0.00  0.00    +0.000 A 
ATOM      9  C   UNL     1       5.908   6.220  17.716  0.00  0.00    +0.000 A 
ATOM     10 BR   UNL     1       7.600   7.061  17.615  0.00  0.00    +0.000 Br
ATOM     11  C   UNL     1       5.798   4.837  17.776  0.00  0.00    +0.000 A 
ATOM     12  C   UNL     1       4.539   4.236  17.851  0.00  0.00    +0.000 A 
ATOM     13  C   UNL     1       3.367   5.006  17.865  0.00  0.00    +0.000 A 
ATOM     14 BR   UNL     1       1.685   4.122  17.969  0.00  0.00    +0.000 Br
BRANCH  11  15
ATOM     15  O   UNL     1       6.892   4.008  17.766  0.00  0.00    +0.000 OA
ATOM     16  H   UNL     1       7.210   3.939  18.687  0.00  0.00    +0.000 HD
ENDBRANCH  11  15
BRANCH  12  17
ATOM     17  O   UNL     1       4.494   2.866  17.908  0.00  0.00    +0.000 OA
ATOM     18  H   UNL     1       5.319   2.558  17.481  0.00  0.00    +0.000 HD
ENDBRANCH  12  17
ENDBRANCH   6   7
ENDBRANCH   3   5
BRANCH   1  19
ATOM     19  C   UNL     1      -0.309  10.742  19.220  0.00  0.00    +0.000 C 
BRANCH  19  20
ATOM     20  N   UNL     1      -1.516   9.979  18.894  0.00  0.00    +0.000 N 
ATOM     21  H   UNL     1      -1.333   8.974  18.853  0.00  0.00    +0.000 HD
BRANCH  20  27
ATOM     22  C   UNL     1      -5.607  12.204  17.104  0.00  0.00    +0.000 C 
ATOM     23  C   UNL     1      -4.357  11.400  16.895  0.00  0.00    +0.000 A 
ATOM     24  C   UNL     1      -4.027  10.908  15.630  0.00  0.00    +0.000 A 
ATOM     25  C   UNL     1      -2.868  10.155  15.458  0.00  0.00    +0.000 A 
ATOM     26  C   UNL     1      -2.037   9.893  16.551  0.00  0.00    +0.000 A 
ATOM     27  C   UNL     1      -2.334  10.381  17.831  0.00  0.00    +0.000 A 
ATOM     28  C   UNL     1      -3.512  11.123  17.985  0.00  0.00    +0.000 A 
ENDBRANCH  20  27
ENDBRANCH  19  20
ENDBRANCH   1  19
TORSDOF 7
ENDMDL
MODEL 6
REMARK VINA RESULT:      -7.5      1.021      1.021
REMARK  Name = 
REMARK  8 active torsions:
REMARK  status: ('A' for Active; 'I' for Inactive)
REMARK    1  A    between atoms: C_1  and  C_2
REMARK    2  A    between atoms: C_6  and  N_7
REMARK    3  A    between atoms: N_7  and  C_8
REMARK    4  A    between atoms: C_8  and  C_9
REMARK    5  A    between atoms: N_11  and  N_12
REMARK    6  A    between atoms: C_13  and  C_14
REMARK    7  A    between atoms: C_18  and  O_19
REMARK    8  A    between atoms: C_20  and  O_21
REMARK                            x       y       z     vdW  Elec       q    Type
REMARK                         _______ _______ _______ _____ _____    ______ ____
ROOT
ATOM      1  C   UNL     1       0.885   9.948  18.840  0.00  0.00    +0.000 C 
ATOM      2  O   UNL     1       0.643   9.308  19.866  0.00  0.00    +0.000 OA
ATOM      3  N   UNL     1       1.497   9.425  17.707  0.00  0.00    +0.000 N 
ATOM      4  H   UNL     1       1.802  10.028  16.951  0.00  0.00    +0.000 HD
ENDROOT
BRANCH   3   5
ATOM      5  N   UNL     1       1.820   8.105  17.713  0.00  0.00    +0.000 NA
ATOM      6  C   UNL     1       3.059   7.767  17.870  0.00  0.00    +0.000 C 
BRANCH   6   7
ATOM      7  C   UNL     1       3.415   6.321  17.889  0.00  0.00    +0.000 A 
ATOM      8  C   UNL     1       2.383   5.412  18.208  0.00  0.00    +0.000 A 
ATOM      9  C   UNL     1       2.628   4.042  18.252  0.00  0.00    +0.000 A 
ATOM     10 BR   UNL     1       1.217   2.858  18.683  0.00  0.00    +0.000 Br
ATOM     11  C   UNL     1       3.904   3.566  17.979  0.00  0.00    +0.000 A 
ATOM     12  C   UNL     1       4.932   4.458  17.662  0.00  0.00    +0.000 A 
ATOM     13  C   UNL     1       4.704   5.840  17.613  0.00  0.00    +0.000 A 
ATOM     14 BR   UNL     1       6.149   6.997  17.173  0.00  0.00    +0.000 Br
BRANCH  11  15
ATOM     15  O   UNL     1       4.215   2.230  18.005  0.00  0.00    +0.000 OA
ATOM     16  H   UNL     1       4.774   2.079  18.792  0.00  0.00    +0.000 HD
ENDBRANCH  11  15
BRANCH  12  17
ATOM     17  O   UNL     1       6.170   3.929  17.401  0.00  0.00    +0.000 OA
ATOM     18  H   UNL     1       6.786   4.689  17.404  0.00  0.00    +0.000 HD
ENDBRANCH  12  17
ENDBRANCH   6   7
ENDBRANCH   3   5
BRANCH   1  19
ATOM     19  C   UNL     1       0.558  11.439  18.749  0.00  0.00    +0.000 C 
BRANCH  19  20
ATOM     20  N   UNL     1      -0.780  11.693  19.288  0.00  0.00    +0.000 N 
ATOM     21  H   UNL     1      -0.895  11.302  20.225  0.00  0.00    +0.000 HD
BRANCH  20  27
ATOM     22  C   UNL     1      -2.926  10.260  15.018  0.00  0.00    +0.000 C 
ATOM     23  C   UNL     1      -3.022  10.815  16.408  0.00  0.00    +0.000 A 
ATOM     24  C   UNL     1      -4.251  11.231  16.929  0.00  0.00    +0.000 A 
ATOM     25  C   UNL     1      -4.318  11.753  18.218  0.00  0.00    +0.000 A 
ATOM     26  C   UNL     1      -3.157  11.862  18.989  0.00  0.00    +0.000 A 
ATOM     27  C   UNL     1      -1.911  11.445  18.501  0.00  0.00    +0.000 A 
ATOM     28  C   UNL     1      -1.863  10.937  17.196  0.00  0.00    +0.000 A 
ENDBRANCH  20  27
ENDBRANCH  19  20
ENDBRANCH   1  19
TORSDOF 7
ENDMDL
MODEL 7
REMARK VINA RESULT:      -7.4      3.749      8.571
REMARK  Name = 
REMARK  8 active torsions:
REMARK  status: ('A' for Active; 'I' for Inactive)
REMARK    1  A    between atoms: C_1  and  C_2
REMARK    2  A    between atoms: C_6  and  N_7
REMARK    3  A    between atoms: N_7  and  C_8
REMARK    4  A    between atoms: C_8  and  C_9
REMARK    5  A    between atoms: N_11  and  N_12
REMARK    6  A    between atoms: C_13  and  C_14
REMARK    7  A    between atoms: C_18  and  O_19
REMARK    8  A    between atoms: C_20  and  O_21
REMARK                            x       y       z     vdW  Elec       q    Type
REMARK                         _______ _______ _______ _____ _____    ______ ____
ROOT
ATOM      1  C   UNL     1       1.702   4.260  20.669  0.00  0.00    +0.000 C 
ATOM      2  O   UNL     1       0.600   4.049  20.157  0.00  0.00    +0.000 OA
ATOM      3  N   UNL     1       2.206   5.520  20.972  0.00  0.00    +0.000 N 
ATOM      4  H   UNL     1       3.173   5.643  21.256  0.00  0.00    +0.000 HD
ENDROOT
BRANCH   3   5
ATOM      5  N   UNL     1       1.417   6.596  20.719  0.00  0.00    +0.000 NA
ATOM      6  C   UNL     1       1.893   7.781  20.925  0.00  0.00    +0.000 C 
BRANCH   6   7
ATOM      7  C   UNL     1       1.035   8.963  20.637  0.00  0.00    +0.000 A 
ATOM      8  C   UNL     1       0.315   9.512  21.720  0.00  0.00    +0.000 A 
ATOM      9  C   UNL     1      -0.514  10.615  21.541  0.00  0.00    +0.000 A 
ATOM     10 BR   UNL     1      -1.460  11.319  23.021  0.00  0.00    +0.000 Br
ATOM     11  C   UNL     1      -0.633  11.183  20.279  0.00  0.00    +0.000 A 
ATOM     12  C   UNL     1       0.075  10.648  19.200  0.00  0.00    +0.000 A 
ATOM     13  C   UNL     1       0.914   9.537  19.361  0.00  0.00    +0.000 A 
ATOM     14 BR   UNL     1       1.850   8.861  17.849  0.00  0.00    +0.000 Br
BRANCH  11  15
ATOM     15  O   UNL     1      -1.432  12.270  20.031  0.00  0.00    +0.000 OA
ATOM     16  H   UNL     1      -0.904  13.068  20.231  0.00  0.00    +0.000 HD
ENDBRANCH  11  15
BRANCH  12  17
ATOM     17  O   UNL     1      -0.083  11.252  17.978  0.00  0.00    +0.000 OA
ATOM     18  H   UNL     1      -0.892  10.858  17.594  0.00  0.00    +0.000 HD
ENDBRANCH  12  17
ENDBRANCH   6   7
ENDBRANCH   3   5
BRANCH   1  19
ATOM     19  C   UNL     1       2.656   3.107  20.983  0.00  0.00    +0.000 C 
BRANCH  19  20
ATOM     20  N   UNL     1       3.115   2.482  19.741  0.00  0.00    +0.000 N 
ATOM     21  H   UNL     1       3.459   1.532  19.895  0.00  0.00    +0.000 HD
BRANCH  20  27
ATOM     22  C   UNL     1       6.990   5.506  18.887  0.00  0.00    +0.000 C 
ATOM     23  C   UNL     1       5.812   4.719  18.394  0.00  0.00    +0.000 A 
ATOM     24  C   UNL     1       5.435   4.761  17.049  0.00  0.00    +0.000 A 
ATOM     25  C   UNL     1       4.332   4.031  16.613  0.00  0.00    +0.000 A 
ATOM     26  C   UNL     1       3.604   3.258  17.520  0.00  0.00    +0.000 A 
ATOM     27  C   UNL     1       3.961   3.184  18.874  0.00  0.00    +0.000 A 
ATOM     28  C   UNL     1       5.064   3.939  19.295  0.00  0.00    +0.000 A 
ENDBRANCH  20  27
ENDBRANCH  19  20
ENDBRANCH   1  19
TORSDOF 7
ENDMDL
MODEL 8
REMARK VINA RESULT:      -7.4      2.371      3.355
REMARK  Name = 
REMARK  8 active torsions:
REMARK  status: ('A' for Active; 'I' for Inactive)
REMARK    1  A    between atoms: C_1  and  C_2
REMARK    2  A    between atoms: C_6  and  N_7
REMARK    3  A    between atoms: N_7  and  C_8
REMARK    4  A    between atoms: C_8  and  C_9
REMARK    5  A    between atoms: N_11  and  N_12
REMARK    6  A    between atoms: C_13  and  C_14
REMARK    7  A    between atoms: C_18  and  O_19
REMARK    8  A    between atoms: C_20  and  O_21
REMARK                            x       y       z     vdW  Elec       q    Type
REMARK                         _______ _______ _______ _____ _____    ______ ____
ROOT
ATOM      1  C   UNL     1       0.461   9.452  20.453  0.00  0.00    +0.000 C 
ATOM      2  O   UNL     1       0.183   8.871  21.505  0.00  0.00    +0.000 OA
ATOM      3  N   UNL     1       1.361   8.984  19.503  0.00  0.00    +0.000 N 
ATOM      4  H   UNL     1       1.659   9.570  18.730  0.00  0.00    +0.000 HD
ENDROOT
BRANCH   3   5
ATOM      5  N   UNL     1       1.955   7.783  19.730  0.00  0.00    +0.000 NA
ATOM      6  C   UNL     1       2.600   7.214  18.764  0.00  0.00    +0.000 C 
BRANCH   6   7
ATOM      7  C   UNL     1       3.262   5.903  19.013  0.00  0.00    +0.000 A 
ATOM      8  C   UNL     1       2.622   5.022  19.910  0.00  0.00    +0.000 A 
ATOM      9  C   UNL     1       3.171   3.778  20.203  0.00  0.00    +0.000 A 
ATOM     10 BR   UNL     1       2.280   2.627  21.412  0.00  0.00    +0.000 Br
ATOM     11  C   UNL     1       4.366   3.400  19.604  0.00  0.00    +0.000 A 
ATOM     12  C   UNL     1       5.008   4.264  18.714  0.00  0.00    +0.000 A 
ATOM     13  C   UNL     1       4.469   5.522  18.407  0.00  0.00    +0.000 A 
ATOM     14 BR   UNL     1       5.395   6.648  17.184  0.00  0.00    +0.000 Br
BRANCH  11  15
ATOM     15  O   UNL     1       4.964   2.189  19.848  0.00  0.00    +0.000 OA
ATOM     16  H   UNL     1       5.927   2.347  19.892  0.00  0.00    +0.000 HD
ENDBRANCH  11  15
BRANCH  12  17
ATOM     17  O   UNL     1       6.184   3.836  18.153  0.00  0.00    +0.000 OA
ATOM     18  H   UNL     1       5.975   3.650  17.215  0.00  0.00    +0.000 HD
ENDBRANCH  12  17
ENDBRANCH   6   7
ENDBRANCH   3   5
BRANCH   1  19
ATOM     19  C   UNL     1      -0.158  10.811  20.120  0.00  0.00    +0.000 C 
BRANCH  19  20
ATOM     20  N   UNL     1      -0.372  11.579  21.348  0.00  0.00    +0.000 N 
ATOM     21  H   UNL     1       0.028  11.114  22.165  0.00  0.00    +0.000 HD
BRANCH  20  27
ATOM     22  C   UNL     1      -4.137  12.444  24.505  0.00  0.00    +0.000 C 
ATOM     23  C   UNL     1      -3.551  12.490  23.125  0.00  0.00    +0.000 A 
ATOM     24  C   UNL     1      -4.309  12.938  22.041  0.00  0.00    +0.000 A 
ATOM     25  C   UNL     1      -3.751  12.963  20.765  0.00  0.00    +0.000 A 
ATOM     26  C   UNL     1      -2.433  12.540  20.572  0.00  0.00    +0.000 A 
ATOM     27  C   UNL     1      -1.641  12.095  21.640  0.00  0.00    +0.000 A 
ATOM     28  C   UNL     1      -2.227  12.063  22.912  0.00  0.00    +0.000 A 
ENDBRANCH  20  27
ENDBRANCH  19  20
ENDBRANCH   1  19
TORSDOF 7
ENDMDL
MODEL 9
REMARK VINA RESULT:      -7.3      2.485      3.619
REMARK  Name = 
REMARK  8 active torsions:
REMARK  status: ('A' for Active; 'I' for Inactive)
REMARK    1  A    between atoms: C_1  and  C_2
REMARK    2  A    between atoms: C_6  and  N_7
REMARK    3  A    between atoms: N_7  and  C_8
REMARK    4  A    between atoms: C_8  and  C_9
REMARK    5  A    between atoms: N_11  and  N_12
REMARK    6  A    between atoms: C_13  and  C_14
REMARK    7  A    between atoms: C_18  and  O_19
REMARK    8  A    between atoms: C_20  and  O_21
REMARK                            x       y       z     vdW  Elec       q    Type
REMARK                         _______ _______ _______ _____ _____    ______ ____
ROOT
ATOM      1  C   UNL     1       0.473   9.555  20.099  0.00  0.00    +0.000 C 
ATOM      2  O   UNL     1       0.107   8.977  21.125  0.00  0.00    +0.000 OA
ATOM      3  N   UNL     1       1.448   9.083  19.228  0.00  0.00    +0.000 N 
ATOM      4  H   UNL     1       1.811   9.666  18.482  0.00  0.00    +0.000 HD
ENDROOT
BRANCH   3   5
ATOM      5  N   UNL     1       2.017   7.881  19.506  0.00  0.00    +0.000 NA
ATOM      6  C   UNL     1       2.701   7.286  18.582  0.00  0.00    +0.000 C 
BRANCH   6   7
ATOM      7  C   UNL     1       3.336   5.974  18.887  0.00  0.00    +0.000 A 
ATOM      8  C   UNL     1       2.657   5.128  19.790  0.00  0.00    +0.000 A 
ATOM      9  C   UNL     1       3.181   3.885  20.134  0.00  0.00    +0.000 A 
ATOM     10 BR   UNL     1       2.238   2.782  21.348  0.00  0.00    +0.000 Br
ATOM     11  C   UNL     1       4.387   3.474  19.580  0.00  0.00    +0.000 A 
ATOM     12  C   UNL     1       5.066   4.303  18.685  0.00  0.00    +0.000 A 
ATOM     13  C   UNL     1       4.555   5.559  18.328  0.00  0.00    +0.000 A 
ATOM     14 BR   UNL     1       5.532   6.637  17.102  0.00  0.00    +0.000 Br
BRANCH  11  15
ATOM     15  O   UNL     1       4.959   2.263  19.876  0.00  0.00    +0.000 OA
ATOM     16  H   UNL     1       4.959   1.735  19.053  0.00  0.00    +0.000 HD
ENDBRANCH  11  15
BRANCH  12  17
ATOM     17  O   UNL     1       6.252   3.843  18.171  0.00  0.00    +0.000 OA
ATOM     18  H   UNL     1       6.406   4.365  17.358  0.00  0.00    +0.000 HD
ENDBRANCH  12  17
ENDBRANCH   6   7
ENDBRANCH   3   5
BRANCH   1  19
ATOM     19  C   UNL     1      -0.112  10.915  19.713  0.00  0.00    +0.000 C 
BRANCH  19  20
ATOM     20  N   UNL     1       0.537  11.414  18.499  0.00  0.00    +0.000 N 
ATOM     21  H   UNL     1       1.198  10.737  18.113  0.00  0.00    +0.000 HD
BRANCH  20  27
ATOM     22  C   UNL     1       4.397  14.553  18.123  0.00  0.00    +0.000 C 
ATOM     23  C   UNL     1       2.939  14.296  18.362  0.00  0.00    +0.000 A 
ATOM     24  C   UNL     1       2.074  15.341  18.699  0.00  0.00    +0.000 A 
ATOM     25  C   UNL     1       0.726  15.081  18.927  0.00  0.00    +0.000 A 
ATOM     26  C   UNL     1       0.238  13.776  18.820  0.00  0.00    +0.000 A 
ATOM     27  C   UNL     1       1.076  12.706  18.473  0.00  0.00    +0.000 A 
ATOM     28  C   UNL     1       2.432  12.987  18.263  0.00  0.00    +0.000 A 
ENDBRANCH  20  27
ENDBRANCH  19  20
ENDBRANCH   1  19
TORSDOF 7
ENDMDL
