MODEL 1
REMARK VINA RESULT:      -7.8      0.000      0.000
REMARK  Name = 
REMARK  4 active torsions:
REMARK  status: ('A' for Active; 'I' for Inactive)
REMARK    1  A    between atoms: C_2  and  C_11
REMARK    2  A    between atoms: N_3  and  N_4
REMARK    3  A    between atoms: C_5  and  C_6
REMARK    4  A    between atoms: C_13  and  O_14
REMARK                            x       y       z     vdW  Elec       q    Type
REMARK                         _______ _______ _______ _____ _____    ______ ____
ROOT
ATOM      1  C   UNL     1       3.358   5.711  19.184  0.00  0.00    +0.000 A 
ATOM      2  C   UNL     1       4.736   5.945  19.284  0.00  0.00    +0.000 A 
ATOM      3  C   UNL     1       5.577   4.864  19.186  0.00  0.00    +0.000 A 
ATOM      4  N   UNL     1       5.159   3.604  19.022  0.00  0.00    +0.000 NA
ATOM      5  C   UNL     1       3.842   3.373  18.922  0.00  0.00    +0.000 A 
ATOM      6  C   UNL     1       3.423   2.057  18.784  0.00  0.00    +0.000 A 
ATOM      7  C   UNL     1       2.071   1.718  18.694  0.00  0.00    +0.000 A 
ATOM      8  C   UNL     1       1.114   2.713  18.666  0.00  0.00    +0.000 A 
ATOM      9  C   UNL     1       1.515   4.042  18.756  0.00  0.00    +0.000 A 
ATOM     10  C   UNL     1       2.873   4.396  18.959  0.00  0.00    +0.000 A 
ENDROOT
BRANCH   1  12
ATOM     11  O   UNL     1       2.312   7.627  18.351  0.00  0.00    +0.000 OA
ATOM     12  C   UNL     1       2.484   6.901  19.337  0.00  0.00    +0.000 C 
ATOM     13  N   UNL     1       1.958   7.154  20.595  0.00  0.00    +0.000 N 
ATOM     14  H   UNL     1       2.159   6.550  21.384  0.00  0.00    +0.000 HD
BRANCH  13  15
ATOM     15  N   UNL     1       1.180   8.254  20.788  0.00  0.00    +0.000 NA
ATOM     16  C   UNL     1       1.153   8.761  21.976  0.00  0.00    +0.000 C 
BRANCH  16  17
ATOM     17  C   UNL     1       0.381   9.946  22.232  0.00  0.00    +0.000 A 
ATOM     18  C   UNL     1      -0.713  10.179  23.044  0.00  0.00    +0.000 A 
ATOM     19  C   UNL     1      -1.090  11.527  22.841  0.00  0.00    +0.000 A 
ATOM     20  C   UNL     1      -0.204  12.035  21.921  0.00  0.00    +0.000 A 
ATOM     21  O   UNL     1       0.707  11.093  21.562  0.00  0.00    +0.000 OA
ENDBRANCH  16  17
ENDBRANCH  13  15
ENDBRANCH   1  12
BRANCH   3  22
ATOM     22  O   UNL     1       6.931   5.003  19.276  0.00  0.00    +0.000 OA
ATOM     23  H   UNL     1       7.126   5.698  19.921  0.00  0.00    +0.000 HD
ENDBRANCH   3  22
TORSDOF 4
ENDMDL
MODEL 2
REMARK VINA RESULT:      -7.8      4.928      6.683
REMARK  Name = 
REMARK  4 active torsions:
REMARK  status: ('A' for Active; 'I' for Inactive)
REMARK    1  A    between atoms: C_2  and  C_11
REMARK    2  A    between atoms: N_3  and  N_4
REMARK    3  A    between atoms: C_5  and  C_6
REMARK    4  A    between atoms: C_13  and  O_14
REMARK                            x       y       z     vdW  Elec       q    Type
REMARK                         _______ _______ _______ _____ _____    ______ ____
ROOT
ATOM      1  C   UNL     1       6.521   5.407  17.459  0.00  0.00    +0.000 A 
ATOM      2  C   UNL     1       6.962   4.914  16.224  0.00  0.00    +0.000 A 
ATOM      3  C   UNL     1       6.104   4.114  15.511  0.00  0.00    +0.000 A 
ATOM      4  N   UNL     1       4.885   3.761  15.935  0.00  0.00    +0.000 NA
ATOM      5  C   UNL     1       4.455   4.231  17.114  0.00  0.00    +0.000 A 
ATOM      6  C   UNL     1       3.201   3.831  17.553  0.00  0.00    +0.000 A 
ATOM      7  C   UNL     1       2.677   4.253  18.778  0.00  0.00    +0.000 A 
ATOM      8  C   UNL     1       3.383   5.151  19.553  0.00  0.00    +0.000 A 
ATOM      9  C   UNL     1       4.622   5.602  19.110  0.00  0.00    +0.000 A 
ATOM     10  C   UNL     1       5.215   5.099  17.924  0.00  0.00    +0.000 A 
ENDROOT
BRANCH   1  12
ATOM     11  O   UNL     1       8.060   5.720  19.189  0.00  0.00    +0.000 OA
ATOM     12  C   UNL     1       7.495   6.233  18.215  0.00  0.00    +0.000 C 
ATOM     13  N   UNL     1       7.670   7.549  17.814  0.00  0.00    +0.000 N 
ATOM     14  H   UNL     1       7.155   7.936  17.032  0.00  0.00    +0.000 HD
BRANCH  13  15
ATOM     15  N   UNL     1       8.528   8.352  18.502  0.00  0.00    +0.000 NA
ATOM     16  C   UNL     1       8.532   9.609  18.203  0.00  0.00    +0.000 C 
BRANCH  16  17
ATOM     17  C   UNL     1       9.387  10.512  18.923  0.00  0.00    +0.000 A 
ATOM     18  C   UNL     1       9.501  10.802  20.269  0.00  0.00    +0.000 A 
ATOM     19  C   UNL     1      10.472  11.824  20.384  0.00  0.00    +0.000 A 
ATOM     20  C   UNL     1      10.893  12.094  19.104  0.00  0.00    +0.000 A 
ATOM     21  O   UNL     1      10.260  11.289  18.212  0.00  0.00    +0.000 OA
ENDBRANCH  16  17
ENDBRANCH  13  15
ENDBRANCH   1  12
BRANCH   3  22
ATOM     22  O   UNL     1       6.456   3.589  14.302  0.00  0.00    +0.000 OA
ATOM     23  H   UNL     1       7.275   4.013  14.010  0.00  0.00    +0.000 HD
ENDBRANCH   3  22
TORSDOF 4
ENDMDL
MODEL 3
REMARK VINA RESULT:      -7.7      1.537      1.543
REMARK  Name = 
REMARK  4 active torsions:
REMARK  status: ('A' for Active; 'I' for Inactive)
REMARK    1  A    between atoms: C_2  and  C_11
REMARK    2  A    between atoms: N_3  and  N_4
REMARK    3  A    between atoms: C_5  and  C_6
REMARK    4  A    between atoms: C_13  and  O_14
REMARK                            x       y       z     vdW  Elec       q    Type
REMARK                         _______ _______ _______ _____ _____    ______ ____
ROOT
ATOM      1  C   UNL     1       3.441   6.571  17.732  0.00  0.00    +0.000 A 
ATOM      2  C   UNL     1       4.704   6.970  17.274  0.00  0.00    +0.000 A 
ATOM      3  C   UNL     1       5.569   5.992  16.849  0.00  0.00    +0.000 A 
ATOM      4  N   UNL     1       5.286   4.685  16.867  0.00  0.00    +0.000 NA
ATOM      5  C   UNL     1       4.078   4.295  17.302  0.00  0.00    +0.000 A 
ATOM      6  C   UNL     1       3.812   2.934  17.343  0.00  0.00    +0.000 A 
ATOM      7  C   UNL     1       2.590   2.434  17.801  0.00  0.00    +0.000 A 
ATOM      8  C   UNL     1       1.582   3.307  18.156  0.00  0.00    +0.000 A 
ATOM      9  C   UNL     1       1.811   4.677  18.078  0.00  0.00    +0.000 A 
ATOM     10  C   UNL     1       3.081   5.198  17.721  0.00  0.00    +0.000 A 
ENDROOT
BRANCH   1  12
ATOM     11  O   UNL     1       2.226   8.543  17.423  0.00  0.00    +0.000 OA
ATOM     12  C   UNL     1       2.554   7.656  18.221  0.00  0.00    +0.000 C 
ATOM     13  N   UNL     1       2.192   7.637  19.560  0.00  0.00    +0.000 N 
ATOM     14  H   UNL     1       2.518   6.909  20.185  0.00  0.00    +0.000 HD
BRANCH  13  15
ATOM     15  N   UNL     1       1.409   8.633  20.058  0.00  0.00    +0.000 NA
ATOM     16  C   UNL     1       1.130   8.594  21.319  0.00  0.00    +0.000 C 
BRANCH  16  17
ATOM     17  C   UNL     1       0.341   9.640  21.909  0.00  0.00    +0.000 A 
ATOM     18  C   UNL     1      -0.544   9.642  22.971  0.00  0.00    +0.000 A 
ATOM     19  C   UNL     1      -1.075  10.950  23.055  0.00  0.00    +0.000 A 
ATOM     20  C   UNL     1      -0.482  11.667  22.043  0.00  0.00    +0.000 A 
ATOM     21  O   UNL     1       0.396  10.890  21.356  0.00  0.00    +0.000 OA
ENDBRANCH  16  17
ENDBRANCH  13  15
ENDBRANCH   1  12
BRANCH   3  22
ATOM     22  O   UNL     1       6.818   6.293  16.391  0.00  0.00    +0.000 OA
ATOM     23  H   UNL     1       7.448   6.171  17.116  0.00  0.00    +0.000 HD
ENDBRANCH   3  22
TORSDOF 4
ENDMDL
MODEL 4
REMARK VINA RESULT:      -7.4      2.046      3.161
REMARK  Name = 
REMARK  4 active torsions:
REMARK  status: ('A' for Active; 'I' for Inactive)
REMARK    1  A    between atoms: C_2  and  C_11
REMARK    2  A    between atoms: N_3  and  N_4
REMARK    3  A    between atoms: C_5  and  C_6
REMARK    4  A    between atoms: C_13  and  O_14
REMARK                            x       y       z     vdW  Elec       q    Type
REMARK                         _______ _______ _______ _____ _____    ______ ____
ROOT
ATOM      1  C   UNL     1       3.019   5.677  18.056  0.00  0.00    +0.000 A 
ATOM      2  C   UNL     1       2.202   4.539  18.101  0.00  0.00    +0.000 A 
ATOM      3  C   UNL     1       2.705   3.369  17.590  0.00  0.00    +0.000 A 
ATOM      4  N   UNL     1       3.917   3.256  17.034  0.00  0.00    +0.000 NA
ATOM      5  C   UNL     1       4.707   4.340  16.991  0.00  0.00    +0.000 A 
ATOM      6  C   UNL     1       5.948   4.213  16.383  0.00  0.00    +0.000 A 
ATOM      7  C   UNL     1       6.829   5.292  16.272  0.00  0.00    +0.000 A 
ATOM      8  C   UNL     1       6.502   6.506  16.841  0.00  0.00    +0.000 A 
ATOM      9  C   UNL     1       5.282   6.642  17.496  0.00  0.00    +0.000 A 
ATOM     10  C   UNL     1       4.331   5.590  17.521  0.00  0.00    +0.000 A 
ENDROOT
BRANCH   1  12
ATOM     11  O   UNL     1       2.103   7.807  17.768  0.00  0.00    +0.000 OA
ATOM     12  C   UNL     1       2.420   6.929  18.580  0.00  0.00    +0.000 C 
ATOM     13  N   UNL     1       2.303   7.059  19.956  0.00  0.00    +0.000 N 
ATOM     14  H   UNL     1       2.613   6.327  20.584  0.00  0.00    +0.000 HD
BRANCH  13  15
ATOM     15  N   UNL     1       1.792   8.206  20.481  0.00  0.00    +0.000 NA
ATOM     16  C   UNL     1       0.728   8.104  21.207  0.00  0.00    +0.000 C 
BRANCH  16  17
ATOM     17  C   UNL     1       0.165   9.276  21.820  0.00  0.00    +0.000 A 
ATOM     18  C   UNL     1      -0.439   9.476  23.047  0.00  0.00    +0.000 A 
ATOM     19  C   UNL     1      -0.857  10.828  23.078  0.00  0.00    +0.000 A 
ATOM     20  C   UNL     1      -0.481  11.369  21.872  0.00  0.00    +0.000 A 
ATOM     21  O   UNL     1       0.160  10.445  21.111  0.00  0.00    +0.000 OA
ENDBRANCH  16  17
ENDBRANCH  13  15
ENDBRANCH   1  12
BRANCH   3  22
ATOM     22  O   UNL     1       1.975   2.217  17.591  0.00  0.00    +0.000 OA
ATOM     23  H   UNL     1       2.241   1.684  16.827  0.00  0.00    +0.000 HD
ENDBRANCH   3  22
TORSDOF 4
ENDMDL
MODEL 5
REMARK VINA RESULT:      -7.4      3.914      7.936
REMARK  Name = 
REMARK  4 active torsions:
REMARK  status: ('A' for Active; 'I' for Inactive)
REMARK    1  A    between atoms: C_2  and  C_11
REMARK    2  A    between atoms: N_3  and  N_4
REMARK    3  A    between atoms: C_5  and  C_6
REMARK    4  A    between atoms: C_13  and  O_14
REMARK                            x       y       z     vdW  Elec       q    Type
REMARK                         _______ _______ _______ _____ _____    ______ ____
ROOT
ATOM      1  C   UNL     1       2.774   4.248  18.794  0.00  0.00    +0.000 A 
ATOM      2  C   UNL     1       2.652   3.203  19.720  0.00  0.00    +0.000 A 
ATOM      3  C   UNL     1       2.178   3.509  20.972  0.00  0.00    +0.000 A 
ATOM      4  N   UNL     1       1.848   4.745  21.364  0.00  0.00    +0.000 NA
ATOM      5  C   UNL     1       1.959   5.750  20.482  0.00  0.00    +0.000 A 
ATOM      6  C   UNL     1       1.642   7.029  20.915  0.00  0.00    +0.000 A 
ATOM      7  C   UNL     1       1.748   8.141  20.074  0.00  0.00    +0.000 A 
ATOM      8  C   UNL     1       2.106   7.969  18.752  0.00  0.00    +0.000 A 
ATOM      9  C   UNL     1       2.383   6.688  18.286  0.00  0.00    +0.000 A 
ATOM     10  C   UNL     1       2.387   5.566  19.152  0.00  0.00    +0.000 A 
ENDROOT
BRANCH   1  12
ATOM     11  O   UNL     1       2.611   3.234  16.695  0.00  0.00    +0.000 OA
ATOM     12  C   UNL     1       3.330   3.880  17.468  0.00  0.00    +0.000 C 
ATOM     13  N   UNL     1       4.643   4.238  17.199  0.00  0.00    +0.000 N 
ATOM     14  H   UNL     1       5.205   4.734  17.880  0.00  0.00    +0.000 HD
BRANCH  13  15
ATOM     15  N   UNL     1       5.203   3.889  16.009  0.00  0.00    +0.000 NA
ATOM     16  C   UNL     1       5.570   4.845  15.222  0.00  0.00    +0.000 C 
BRANCH  16  17
ATOM     17  C   UNL     1       6.204   4.539  13.969  0.00  0.00    +0.000 A 
ATOM     18  C   UNL     1       5.947   3.571  13.016  0.00  0.00    +0.000 A 
ATOM     19  C   UNL     1       6.942   3.709  12.020  0.00  0.00    +0.000 A 
ATOM     20  C   UNL     1       7.742   4.751  12.422  0.00  0.00    +0.000 A 
ATOM     21  O   UNL     1       7.290   5.278  13.590  0.00  0.00    +0.000 OA
ENDBRANCH  16  17
ENDBRANCH  13  15
ENDBRANCH   1  12
BRANCH   3  22
ATOM     22  O   UNL     1       2.032   2.553  21.934  0.00  0.00    +0.000 OA
ATOM     23  H   UNL     1       2.753   2.648  22.572  0.00  0.00    +0.000 HD
ENDBRANCH   3  22
TORSDOF 4
ENDMDL
MODEL 6
REMARK VINA RESULT:      -7.4      5.487      7.039
REMARK  Name = 
REMARK  4 active torsions:
REMARK  status: ('A' for Active; 'I' for Inactive)
REMARK    1  A    between atoms: C_2  and  C_11
REMARK    2  A    between atoms: N_3  and  N_4
REMARK    3  A    between atoms: C_5  and  C_6
REMARK    4  A    between atoms: C_13  and  O_14
REMARK                            x       y       z     vdW  Elec       q    Type
REMARK                         _______ _______ _______ _____ _____    ______ ____
ROOT
ATOM      1  C   UNL     1       6.421   5.105  18.043  0.00  0.00    +0.000 A 
ATOM      2  C   UNL     1       5.465   4.636  18.953  0.00  0.00    +0.000 A 
ATOM      3  C   UNL     1       4.456   3.840  18.469  0.00  0.00    +0.000 A 
ATOM      4  N   UNL     1       4.322   3.505  17.180  0.00  0.00    +0.000 NA
ATOM      5  C   UNL     1       5.236   3.947  16.304  0.00  0.00    +0.000 A 
ATOM      6  C   UNL     1       5.064   3.617  14.967  0.00  0.00    +0.000 A 
ATOM      7  C   UNL     1       5.953   4.050  13.979  0.00  0.00    +0.000 A 
ATOM      8  C   UNL     1       7.078   4.766  14.335  0.00  0.00    +0.000 A 
ATOM      9  C   UNL     1       7.293   5.069  15.676  0.00  0.00    +0.000 A 
ATOM     10  C   UNL     1       6.346   4.732  16.675  0.00  0.00    +0.000 A 
ENDROOT
BRANCH   1  12
ATOM     11  O   UNL     1       8.154   5.571  19.540  0.00  0.00    +0.000 OA
ATOM     12  C   UNL     1       7.469   5.995  18.601  0.00  0.00    +0.000 C 
ATOM     13  N   UNL     1       7.577   7.272  18.071  0.00  0.00    +0.000 N 
ATOM     14  H   UNL     1       6.966   7.589  17.327  0.00  0.00    +0.000 HD
BRANCH  13  15
ATOM     15  N   UNL     1       8.501   8.134  18.578  0.00  0.00    +0.000 NA
ATOM     16  C   UNL     1       8.399   9.378  18.244  0.00  0.00    +0.000 C 
BRANCH  16  17
ATOM     17  C   UNL     1       9.321  10.341  18.780  0.00  0.00    +0.000 A 
ATOM     18  C   UNL     1       9.581  10.750  20.074  0.00  0.00    +0.000 A 
ATOM     19  C   UNL     1      10.551  11.777  19.987  0.00  0.00    +0.000 A 
ATOM     20  C   UNL     1      10.825  11.931  18.649  0.00  0.00    +0.000 A 
ATOM     21  O   UNL     1      10.103  11.049  17.909  0.00  0.00    +0.000 OA
ENDBRANCH  16  17
ENDBRANCH  13  15
ENDBRANCH   1  12
BRANCH   3  22
ATOM     22  O   UNL     1       3.483   3.344  19.286  0.00  0.00    +0.000 OA
ATOM     23  H   UNL     1       3.750   3.489  20.205  0.00  0.00    +0.000 HD
ENDBRANCH   3  22
TORSDOF 4
ENDMDL
MODEL 7
REMARK VINA RESULT:      -7.2      1.982      2.806
REMARK  Name = 
REMARK  4 active torsions:
REMARK  status: ('A' for Active; 'I' for Inactive)
REMARK    1  A    between atoms: C_2  and  C_11
REMARK    2  A    between atoms: N_3  and  N_4
REMARK    3  A    between atoms: C_5  and  C_6
REMARK    4  A    between atoms: C_13  and  O_14
REMARK                            x       y       z     vdW  Elec       q    Type
REMARK                         _______ _______ _______ _____ _____    ______ ____
ROOT
ATOM      1  C   UNL     1       2.755   5.831  18.810  0.00  0.00    +0.000 A 
ATOM      2  C   UNL     1       2.210   4.710  19.451  0.00  0.00    +0.000 A 
ATOM      3  C   UNL     1       2.616   3.469  19.024  0.00  0.00    +0.000 A 
ATOM      4  N   UNL     1       3.481   3.269  18.023  0.00  0.00    +0.000 NA
ATOM      5  C   UNL     1       4.009   4.337  17.408  0.00  0.00    +0.000 A 
ATOM      6  C   UNL     1       4.880   4.111  16.352  0.00  0.00    +0.000 A 
ATOM      7  C   UNL     1       5.462   5.162  15.638  0.00  0.00    +0.000 A 
ATOM      8  C   UNL     1       5.233   6.466  16.027  0.00  0.00    +0.000 A 
ATOM      9  C   UNL     1       4.399   6.713  17.112  0.00  0.00    +0.000 A 
ATOM     10  C   UNL     1       3.714   5.665  17.777  0.00  0.00    +0.000 A 
ENDROOT
BRANCH   1  12
ATOM     11  O   UNL     1       2.197   8.071  18.450  0.00  0.00    +0.000 OA
ATOM     12  C   UNL     1       2.258   7.150  19.274  0.00  0.00    +0.000 C 
ATOM     13  N   UNL     1       1.944   7.283  20.619  0.00  0.00    +0.000 N 
ATOM     14  H   UNL     1       2.047   6.509  21.264  0.00  0.00    +0.000 HD
BRANCH  13  15
ATOM     15  N   UNL     1       1.518   8.485  21.093  0.00  0.00    +0.000 NA
ATOM     16  C   UNL     1       0.257   8.611  21.346  0.00  0.00    +0.000 C 
BRANCH  16  17
ATOM     17  C   UNL     1      -0.245   9.844  21.886  0.00  0.00    +0.000 A 
ATOM     18  C   UNL     1      -0.815  10.154  23.106  0.00  0.00    +0.000 A 
ATOM     19  C   UNL     1      -1.177  11.521  23.050  0.00  0.00    +0.000 A 
ATOM     20  C   UNL     1      -0.804  11.962  21.803  0.00  0.00    +0.000 A 
ATOM     21  O   UNL     1      -0.216  10.961  21.097  0.00  0.00    +0.000 OA
ENDBRANCH  16  17
ENDBRANCH  13  15
ENDBRANCH   1  12
BRANCH   3  22
ATOM     22  O   UNL     1       2.132   2.326  19.590  0.00  0.00    +0.000 OA
ATOM     23  H   UNL     1       1.650   1.829  18.914  0.00  0.00    +0.000 HD
ENDBRANCH   3  22
TORSDOF 4
ENDMDL
MODEL 8
REMARK VINA RESULT:      -7.1      3.607      7.568
REMARK  Name = 
REMARK  4 active torsions:
REMARK  status: ('A' for Active; 'I' for Inactive)
REMARK    1  A    between atoms: C_2  and  C_11
REMARK    2  A    between atoms: N_3  and  N_4
REMARK    3  A    between atoms: C_5  and  C_6
REMARK    4  A    between atoms: C_13  and  O_14
REMARK                            x       y       z     vdW  Elec       q    Type
REMARK                         _______ _______ _______ _____ _____    ______ ____
ROOT
ATOM      1  C   UNL     1       3.178   5.674  18.594  0.00  0.00    +0.000 A 
ATOM      2  C   UNL     1       2.950   6.805  19.391  0.00  0.00    +0.000 A 
ATOM      3  C   UNL     1       2.045   6.692  20.416  0.00  0.00    +0.000 A 
ATOM      4  N   UNL     1       1.353   5.578  20.684  0.00  0.00    +0.000 NA
ATOM      5  C   UNL     1       1.568   4.492  19.928  0.00  0.00    +0.000 A 
ATOM      6  C   UNL     1       0.820   3.356  20.199  0.00  0.00    +0.000 A 
ATOM      7  C   UNL     1       0.959   2.184  19.451  0.00  0.00    +0.000 A 
ATOM      8  C   UNL     1       1.915   2.114  18.457  0.00  0.00    +0.000 A 
ATOM      9  C   UNL     1       2.708   3.227  18.199  0.00  0.00    +0.000 A 
ATOM     10  C   UNL     1       2.503   4.458  18.874  0.00  0.00    +0.000 A 
ENDROOT
BRANCH   1  12
ATOM     11  O   UNL     1       4.123   6.930  16.864  0.00  0.00    +0.000 OA
ATOM     12  C   UNL     1       4.133   5.852  17.472  0.00  0.00    +0.000 C 
ATOM     13  N   UNL     1       4.941   4.775  17.139  0.00  0.00    +0.000 N 
ATOM     14  H   UNL     1       4.886   3.897  17.642  0.00  0.00    +0.000 HD
BRANCH  13  15
ATOM     15  N   UNL     1       5.806   4.883  16.093  0.00  0.00    +0.000 NA
ATOM     16  C   UNL     1       5.463   4.326  14.979  0.00  0.00    +0.000 C 
BRANCH  16  17
ATOM     17  C   UNL     1       6.317   4.441  13.829  0.00  0.00    +0.000 A 
ATOM     18  C   UNL     1       6.353   3.750  12.633  0.00  0.00    +0.000 A 
ATOM     19  C   UNL     1       7.456   4.256  11.905  0.00  0.00    +0.000 A 
ATOM     20  C   UNL     1       8.023   5.224  12.697  0.00  0.00    +0.000 A 
ATOM     21  O   UNL     1       7.327   5.362  13.856  0.00  0.00    +0.000 OA
ENDBRANCH  16  17
ENDBRANCH  13  15
ENDBRANCH   1  12
BRANCH   3  22
ATOM     22  O   UNL     1       1.761   7.744  21.238  0.00  0.00    +0.000 OA
ATOM     23  H   UNL     1       2.567   8.269  21.353  0.00  0.00    +0.000 HD
ENDBRANCH   3  22
TORSDOF 4
ENDMDL
MODEL 9
REMARK VINA RESULT:      -7.1      2.528      2.670
REMARK  Name = 
REMARK  4 active torsions:
REMARK  status: ('A' for Active; 'I' for Inactive)
REMARK    1  A    between atoms: C_2  and  C_11
REMARK    2  A    between atoms: N_3  and  N_4
REMARK    3  A    between atoms: C_5  and  C_6
REMARK    4  A    between atoms: C_13  and  O_14
REMARK                            x       y       z     vdW  Elec       q    Type
REMARK                         _______ _______ _______ _____ _____    ______ ____
ROOT
ATOM      1  C   UNL     1       3.291   6.512  17.866  0.00  0.00    +0.000 A 
ATOM      2  C   UNL     1       4.479   6.920  17.244  0.00  0.00    +0.000 A 
ATOM      3  C   UNL     1       5.252   5.956  16.646  0.00  0.00    +0.000 A 
ATOM      4  N   UNL     1       4.950   4.653  16.640  0.00  0.00    +0.000 NA
ATOM      5  C   UNL     1       3.813   4.255  17.230  0.00  0.00    +0.000 A 
ATOM      6  C   UNL     1       3.530   2.897  17.242  0.00  0.00    +0.000 A 
ATOM      7  C   UNL     1       2.380   2.387  17.851  0.00  0.00    +0.000 A 
ATOM      8  C   UNL     1       1.453   3.252  18.397  0.00  0.00    +0.000 A 
ATOM      9  C   UNL     1       1.694   4.621  18.355  0.00  0.00    +0.000 A 
ATOM     10  C   UNL     1       2.907   5.146  17.839  0.00  0.00    +0.000 A 
ENDROOT
BRANCH   1  12
ATOM     11  O   UNL     1       2.290   7.467  19.748  0.00  0.00    +0.000 OA
ATOM     12  C   UNL     1       2.508   7.580  18.536  0.00  0.00    +0.000 C 
ATOM     13  N   UNL     1       2.021   8.612  17.747  0.00  0.00    +0.000 N 
ATOM     14  H   UNL     1       2.193   8.640  16.749  0.00  0.00    +0.000 HD
BRANCH  13  15
ATOM     15  N   UNL     1       1.268   9.593  18.315  0.00  0.00    +0.000 NA
ATOM     16  C   UNL     1       0.011   9.624  18.016  0.00  0.00    +0.000 C 
BRANCH  16  17
ATOM     17  C   UNL     1      -0.842  10.613  18.616  0.00  0.00    +0.000 A 
ATOM     18  C   UNL     1      -2.099  11.076  18.277  0.00  0.00    +0.000 A 
ATOM     19  C   UNL     1      -2.415  12.103  19.197  0.00  0.00    +0.000 A 
ATOM     20  C   UNL     1      -1.336  12.203  20.042  0.00  0.00    +0.000 A 
ATOM     21  O   UNL     1      -0.386  11.288  19.715  0.00  0.00    +0.000 OA
ENDBRANCH  16  17
ENDBRANCH  13  15
ENDBRANCH   1  12
BRANCH   3  22
ATOM     22  O   UNL     1       6.425   6.267  16.022  0.00  0.00    +0.000 OA
ATOM     23  H   UNL     1       6.896   5.444  15.827  0.00  0.00    +0.000 HD
ENDBRANCH   3  22
TORSDOF 4
ENDMDL
