MODEL 1
REMARK VINA RESULT:      -7.5      0.000      0.000
REMARK  Name = 
REMARK  7 active torsions:
REMARK  status: ('A' for Active; 'I' for Inactive)
REMARK    1  A    between atoms: C_1  and  C_2
REMARK    2  A    between atoms: C_2  and  N_3
REMARK    3  A    between atoms: C_9  and  N_10
REMARK    4  A    between atoms: C_11  and  C_13
REMARK    5  A    between atoms: C_22  and  O_23
REMARK    6  A    between atoms: O_23  and  C_24
REMARK    7  A    between atoms: C_25  and  C_26
REMARK                            x       y       z     vdW  Elec       q    Type
REMARK                         _______ _______ _______ _____ _____    ______ ____
ROOT
ATOM      1  N   UNL     1      -1.660  13.810  22.179  0.00  0.00    +0.000 NA
ATOM      2  C   UNL     1      -1.447  14.065  20.736  0.00  0.00    +0.000 C 
ATOM      3  C   UNL     1      -1.842  12.875  19.836  0.00  0.00    +0.000 C 
ATOM      4  C   UNL     1      -1.128  11.647  20.311  0.00  0.00    +0.000 A 
ATOM      5  C   UNL     1      -0.652  11.581  21.604  0.00  0.00    +0.000 A 
ATOM      6  S   UNL     1       0.254  10.164  21.859  0.00  0.00    +0.000 S 
ATOM      7  C   UNL     1       0.092   9.699  20.214  0.00  0.00    +0.000 A 
ATOM      8  C   UNL     1      -0.863  10.454  19.547  0.00  0.00    +0.000 A 
ATOM      9  C   UNL     1      -0.833  12.660  22.646  0.00  0.00    +0.000 C 
ENDROOT
BRANCH   8  10
ATOM     10  C   UNL     1      -1.593  10.155  18.314  0.00  0.00    +0.000 C 
ATOM     11  N   UNL     1      -0.926  10.219  17.133  0.00  0.00    +0.000 N 
ATOM     12  O   UNL     1      -2.789   9.871  18.311  0.00  0.00    +0.000 OA
ATOM     13  H   UNL     1      -0.125  10.846  17.085  0.00  0.00    +0.000 HD
ATOM     14  H   UNL     1      -1.509  10.176  16.310  0.00  0.00    +0.000 HD
ENDBRANCH   8  10
BRANCH   7  15
ATOM     15  N   UNL     1       0.901   8.622  19.890  0.00  0.00    +0.000 N 
ATOM     16  C   UNL     1       1.803   8.692  18.835  0.00  0.00    +0.000 C 
ATOM     17  O   UNL     1       1.979   9.682  18.131  0.00  0.00    +0.000 OA
ATOM     18  H   UNL     1       1.120   7.985  20.647  0.00  0.00    +0.000 HD
BRANCH  16  19
ATOM     19  C   UNL     1       2.557   7.439  18.542  0.00  0.00    +0.000 A 
ATOM     20  C   UNL     1       3.461   7.509  17.462  0.00  0.00    +0.000 A 
ATOM     21  C   UNL     1       4.386   6.493  17.201  0.00  0.00    +0.000 A 
ATOM     22  C   UNL     1       5.299   6.602  16.143  0.00  0.00    +0.000 A 
ATOM     23  C   UNL     1       6.255   5.612  15.924  0.00  0.00    +0.000 A 
ATOM     24  C   UNL     1       6.307   4.500  16.759  0.00  0.00    +0.000 A 
ATOM     25  C   UNL     1       5.394   4.371  17.807  0.00  0.00    +0.000 A 
ATOM     26  C   UNL     1       4.425   5.363  18.040  0.00  0.00    +0.000 A 
ATOM     27  C   UNL     1       3.507   5.281  19.106  0.00  0.00    +0.000 A 
ATOM     28  C   UNL     1       2.568   6.298  19.363  0.00  0.00    +0.000 A 
BRANCH  28  29
ATOM     29  O   UNL     1       1.829   6.021  20.479  0.00  0.00    +0.000 OA
ATOM     30  C   UNL     1       1.493   4.671  20.768  0.00  0.00    +0.000 C 
ENDBRANCH  28  29
ENDBRANCH  16  19
ENDBRANCH   7  15
BRANCH   1  32
ATOM     31  C   UNL     1      -3.845  14.980  22.517  0.00  0.00    +0.000 C 
ATOM     32  C   UNL     1      -3.081  13.655  22.530  0.00  0.00    +0.000 C 
ENDBRANCH   1  32
TORSDOF 5
ENDMDL
MODEL 2
REMARK VINA RESULT:      -7.4      2.208      9.096
REMARK  Name = 
REMARK  7 active torsions:
REMARK  status: ('A' for Active; 'I' for Inactive)
REMARK    1  A    between atoms: C_1  and  C_2
REMARK    2  A    between atoms: C_2  and  N_3
REMARK    3  A    between atoms: C_9  and  N_10
REMARK    4  A    between atoms: C_11  and  C_13
REMARK    5  A    between atoms: C_22  and  O_23
REMARK    6  A    between atoms: O_23  and  C_24
REMARK    7  A    between atoms: C_25  and  C_26
REMARK                            x       y       z     vdW  Elec       q    Type
REMARK                         _______ _______ _______ _____ _____    ______ ____
ROOT
ATOM      1  N   UNL     1       6.804   5.457  17.378  0.00  0.00    +0.000 NA
ATOM      2  C   UNL     1       6.555   5.198  18.814  0.00  0.00    +0.000 C 
ATOM      3  C   UNL     1       5.082   4.863  19.132  0.00  0.00    +0.000 C 
ATOM      4  C   UNL     1       4.206   5.950  18.587  0.00  0.00    +0.000 A 
ATOM      5  C   UNL     1       4.666   6.764  17.574  0.00  0.00    +0.000 A 
ATOM      6  S   UNL     1       3.562   8.013  17.234  0.00  0.00    +0.000 S 
ATOM      7  C   UNL     1       2.526   7.519  18.511  0.00  0.00    +0.000 A 
ATOM      8  C   UNL     1       2.864   6.267  19.007  0.00  0.00    +0.000 A 
ATOM      9  C   UNL     1       6.011   6.628  16.901  0.00  0.00    +0.000 C 
ENDROOT
BRANCH   8  10
ATOM     10  C   UNL     1       2.055   5.318  19.773  0.00  0.00    +0.000 C 
ATOM     11  N   UNL     1       2.063   5.403  21.128  0.00  0.00    +0.000 N 
ATOM     12  O   UNL     1       1.389   4.437  19.233  0.00  0.00    +0.000 OA
ATOM     13  H   UNL     1       2.895   5.796  21.564  0.00  0.00    +0.000 HD
ATOM     14  H   UNL     1       1.633   4.626  21.608  0.00  0.00    +0.000 HD
ENDBRANCH   8  10
BRANCH   7  15
ATOM     15  N   UNL     1       1.518   8.437  18.756  0.00  0.00    +0.000 N 
ATOM     16  C   UNL     1       1.220   8.849  20.050  0.00  0.00    +0.000 C 
ATOM     17  O   UNL     1       1.809   8.470  21.057  0.00  0.00    +0.000 OA
ATOM     18  H   UNL     1       1.311   9.084  18.003  0.00  0.00    +0.000 HD
BRANCH  16  19
ATOM     19  C   UNL     1       0.062   9.781  20.182  0.00  0.00    +0.000 A 
ATOM     20  C   UNL     1      -0.133  10.332  21.466  0.00  0.00    +0.000 A 
ATOM     21  C   UNL     1      -1.036  11.375  21.696  0.00  0.00    +0.000 A 
ATOM     22  C   UNL     1      -1.186  11.932  22.974  0.00  0.00    +0.000 A 
ATOM     23  C   UNL     1      -2.045  13.008  23.184  0.00  0.00    +0.000 A 
ATOM     24  C   UNL     1      -2.767  13.539  22.120  0.00  0.00    +0.000 A 
ATOM     25  C   UNL     1      -2.639  12.985  20.845  0.00  0.00    +0.000 A 
ATOM     26  C   UNL     1      -1.774  11.900  20.618  0.00  0.00    +0.000 A 
ATOM     27  C   UNL     1      -1.597  11.334  19.340  0.00  0.00    +0.000 A 
ATOM     28  C   UNL     1      -0.697  10.277  19.109  0.00  0.00    +0.000 A 
BRANCH  28  29
ATOM     29  O   UNL     1      -0.656   9.939  17.784  0.00  0.00    +0.000 OA
ATOM     30  C   UNL     1      -1.867   9.913  17.041  0.00  0.00    +0.000 C 
ENDBRANCH  28  29
ENDBRANCH  16  19
ENDBRANCH   7  15
BRANCH   1  32
ATOM     31  C   UNL     1       6.149   4.612  15.117  0.00  0.00    +0.000 C 
ATOM     32  C   UNL     1       6.601   4.267  16.537  0.00  0.00    +0.000 C 
ENDBRANCH   1  32
TORSDOF 5
ENDMDL
MODEL 3
REMARK VINA RESULT:      -7.0      2.779      8.847
REMARK  Name = 
REMARK  7 active torsions:
REMARK  status: ('A' for Active; 'I' for Inactive)
REMARK    1  A    between atoms: C_1  and  C_2
REMARK    2  A    between atoms: C_2  and  N_3
REMARK    3  A    between atoms: C_9  and  N_10
REMARK    4  A    between atoms: C_11  and  C_13
REMARK    5  A    between atoms: C_22  and  O_23
REMARK    6  A    between atoms: O_23  and  C_24
REMARK    7  A    between atoms: C_25  and  C_26
REMARK                            x       y       z     vdW  Elec       q    Type
REMARK                         _______ _______ _______ _____ _____    ______ ____
ROOT
ATOM      1  N   UNL     1       7.294   5.589  17.817  0.00  0.00    +0.000 NA
ATOM      2  C   UNL     1       6.809   5.517  19.215  0.00  0.00    +0.000 C 
ATOM      3  C   UNL     1       5.312   5.158  19.329  0.00  0.00    +0.000 C 
ATOM      4  C   UNL     1       4.516   6.115  18.496  0.00  0.00    +0.000 A 
ATOM      5  C   UNL     1       5.122   6.805  17.468  0.00  0.00    +0.000 A 
ATOM      6  S   UNL     1       4.062   7.940  16.774  0.00  0.00    +0.000 S 
ATOM      7  C   UNL     1       2.835   7.576  17.920  0.00  0.00    +0.000 A 
ATOM      8  C   UNL     1       3.115   6.422  18.639  0.00  0.00    +0.000 A 
ATOM      9  C   UNL     1       6.565   6.643  17.053  0.00  0.00    +0.000 C 
ENDROOT
BRANCH   8  10
ATOM     10  C   UNL     1       2.210   5.549  19.388  0.00  0.00    +0.000 C 
ATOM     11  N   UNL     1       1.970   5.830  20.694  0.00  0.00    +0.000 N 
ATOM     12  O   UNL     1       1.681   4.561  18.882  0.00  0.00    +0.000 OA
ATOM     13  H   UNL     1       2.696   6.330  21.203  0.00  0.00    +0.000 HD
ATOM     14  H   UNL     1       1.485   5.107  21.205  0.00  0.00    +0.000 HD
ENDBRANCH   8  10
BRANCH   7  15
ATOM     15  N   UNL     1       1.778   8.469  17.860  0.00  0.00    +0.000 N 
ATOM     16  C   UNL     1       1.270   9.059  19.012  0.00  0.00    +0.000 C 
ATOM     17  O   UNL     1       1.704   8.869  20.144  0.00  0.00    +0.000 OA
ATOM     18  H   UNL     1       1.675   8.982  16.992  0.00  0.00    +0.000 HD
BRANCH  16  19
ATOM     19  C   UNL     1       0.082   9.941  18.818  0.00  0.00    +0.000 A 
ATOM     20  C   UNL     1      -0.669   9.704  17.648  0.00  0.00    +0.000 A 
ATOM     21  C   UNL     1      -1.918  10.297  17.434  0.00  0.00    +0.000 A 
ATOM     22  C   UNL     1      -2.662  10.018  16.279  0.00  0.00    +0.000 A 
ATOM     23  C   UNL     1      -3.929  10.569  16.100  0.00  0.00    +0.000 A 
ATOM     24  C   UNL     1      -4.466  11.407  17.072  0.00  0.00    +0.000 A 
ATOM     25  C   UNL     1      -3.731  11.705  18.220  0.00  0.00    +0.000 A 
ATOM     26  C   UNL     1      -2.451  11.156  18.415  0.00  0.00    +0.000 A 
ATOM     27  C   UNL     1      -1.691  11.410  19.574  0.00  0.00    +0.000 A 
ATOM     28  C   UNL     1      -0.430  10.822  19.785  0.00  0.00    +0.000 A 
BRANCH  28  29
ATOM     29  O   UNL     1       0.084  11.173  21.003  0.00  0.00    +0.000 OA
ATOM     30  C   UNL     1       0.540  12.504  21.203  0.00  0.00    +0.000 C 
ENDBRANCH  28  29
ENDBRANCH  16  19
ENDBRANCH   7  15
BRANCH   1  32
ATOM     31  C   UNL     1       6.752   4.379  15.696  0.00  0.00    +0.000 C 
ATOM     32  C   UNL     1       7.266   4.286  17.134  0.00  0.00    +0.000 C 
ENDBRANCH   1  32
TORSDOF 5
ENDMDL
MODEL 4
REMARK VINA RESULT:      -6.9      1.554      1.749
REMARK  Name = 
REMARK  7 active torsions:
REMARK  status: ('A' for Active; 'I' for Inactive)
REMARK    1  A    between atoms: C_1  and  C_2
REMARK    2  A    between atoms: C_2  and  N_3
REMARK    3  A    between atoms: C_9  and  N_10
REMARK    4  A    between atoms: C_11  and  C_13
REMARK    5  A    between atoms: C_22  and  O_23
REMARK    6  A    between atoms: O_23  and  C_24
REMARK    7  A    between atoms: C_25  and  C_26
REMARK                            x       y       z     vdW  Elec       q    Type
REMARK                         _______ _______ _______ _____ _____    ______ ____
ROOT
ATOM      1  N   UNL     1      -1.762  12.147  23.376  0.00  0.00    +0.000 NA
ATOM      2  C   UNL     1      -0.678  13.011  22.856  0.00  0.00    +0.000 C 
ATOM      3  C   UNL     1      -0.360  12.769  21.365  0.00  0.00    +0.000 C 
ATOM      4  C   UNL     1      -0.078  11.312  21.158  0.00  0.00    +0.000 A 
ATOM      5  C   UNL     1      -0.546  10.383  22.063  0.00  0.00    +0.000 A 
ATOM      6  S   UNL     1       0.030   8.823  21.702  0.00  0.00    +0.000 S 
ATOM      7  C   UNL     1       0.982   9.416  20.402  0.00  0.00    +0.000 A 
ATOM      8  C   UNL     1       0.657  10.723  20.067  0.00  0.00    +0.000 A 
ATOM      9  C   UNL     1      -1.392  10.705  23.272  0.00  0.00    +0.000 C 
ENDROOT
BRANCH   8  10
ATOM     10  C   UNL     1       0.905  11.455  18.824  0.00  0.00    +0.000 C 
ATOM     11  N   UNL     1      -0.118  11.608  17.945  0.00  0.00    +0.000 N 
ATOM     12  O   UNL     1       2.010  11.914  18.541  0.00  0.00    +0.000 OA
ATOM     13  H   UNL     1      -0.850  10.900  17.956  0.00  0.00    +0.000 HD
ATOM     14  H   UNL     1       0.146  11.964  17.039  0.00  0.00    +0.000 HD
ENDBRANCH   8  10
BRANCH   7  15
ATOM     15  N   UNL     1       1.845   8.454  19.902  0.00  0.00    +0.000 N 
ATOM     16  C   UNL     1       1.812   8.086  18.562  0.00  0.00    +0.000 C 
ATOM     17  O   UNL     1       1.060   8.572  17.722  0.00  0.00    +0.000 OA
ATOM     18  H   UNL     1       2.727   8.347  20.391  0.00  0.00    +0.000 HD
BRANCH  16  19
ATOM     19  C   UNL     1       2.738   6.985  18.168  0.00  0.00    +0.000 A 
ATOM     20  C   UNL     1       3.991   7.393  17.665  0.00  0.00    +0.000 A 
ATOM     21  C   UNL     1       5.037   6.488  17.457  0.00  0.00    +0.000 A 
ATOM     22  C   UNL     1       6.286   6.922  16.990  0.00  0.00    +0.000 A 
ATOM     23  C   UNL     1       7.340   6.024  16.839  0.00  0.00    +0.000 A 
ATOM     24  C   UNL     1       7.157   4.680  17.150  0.00  0.00    +0.000 A 
ATOM     25  C   UNL     1       5.916   4.231  17.601  0.00  0.00    +0.000 A 
ATOM     26  C   UNL     1       4.843   5.126  17.760  0.00  0.00    +0.000 A 
ATOM     27  C   UNL     1       3.584   4.715  18.241  0.00  0.00    +0.000 A 
ATOM     28  C   UNL     1       2.528   5.623  18.441  0.00  0.00    +0.000 A 
BRANCH  28  29
ATOM     29  O   UNL     1       1.430   5.000  18.967  0.00  0.00    +0.000 OA
ATOM     30  C   UNL     1       1.498   4.480  20.288  0.00  0.00    +0.000 C 
ENDBRANCH  28  29
ENDBRANCH  16  19
ENDBRANCH   7  15
BRANCH   1  32
ATOM     31  C   UNL     1      -3.900  13.429  23.571  0.00  0.00    +0.000 C 
ATOM     32  C   UNL     1      -3.068  12.433  22.762  0.00  0.00    +0.000 C 
ENDBRANCH   1  32
TORSDOF 5
ENDMDL
MODEL 5
REMARK VINA RESULT:      -6.9      1.721      2.157
REMARK  Name = 
REMARK  7 active torsions:
REMARK  status: ('A' for Active; 'I' for Inactive)
REMARK    1  A    between atoms: C_1  and  C_2
REMARK    2  A    between atoms: C_2  and  N_3
REMARK    3  A    between atoms: C_9  and  N_10
REMARK    4  A    between atoms: C_11  and  C_13
REMARK    5  A    between atoms: C_22  and  O_23
REMARK    6  A    between atoms: O_23  and  C_24
REMARK    7  A    between atoms: C_25  and  C_26
REMARK                            x       y       z     vdW  Elec       q    Type
REMARK                         _______ _______ _______ _____ _____    ______ ____
ROOT
ATOM      1  N   UNL     1      -1.855  13.684  21.826  0.00  0.00    +0.000 NA
ATOM      2  C   UNL     1      -0.424  13.940  22.111  0.00  0.00    +0.000 C 
ATOM      3  C   UNL     1       0.482  13.818  20.868  0.00  0.00    +0.000 C 
ATOM      4  C   UNL     1       0.257  12.481  20.229  0.00  0.00    +0.000 A 
ATOM      5  C   UNL     1      -0.912  11.790  20.469  0.00  0.00    +0.000 A 
ATOM      6  S   UNL     1      -0.871  10.241  19.767  0.00  0.00    +0.000 S 
ATOM      7  C   UNL     1       0.748  10.465  19.237  0.00  0.00    +0.000 A 
ATOM      8  C   UNL     1       1.156  11.787  19.342  0.00  0.00    +0.000 A 
ATOM      9  C   UNL     1      -2.057  12.297  21.313  0.00  0.00    +0.000 C 
ENDROOT
BRANCH   8  10
ATOM     10  C   UNL     1       2.250  12.482  18.660  0.00  0.00    +0.000 C 
ATOM     11  N   UNL     1       2.502  12.178  17.362  0.00  0.00    +0.000 N 
ATOM     12  O   UNL     1       2.958  13.309  19.230  0.00  0.00    +0.000 OA
ATOM     13  H   UNL     1       2.244  11.246  17.043  0.00  0.00    +0.000 HD
ATOM     14  H   UNL     1       3.365  12.551  16.995  0.00  0.00    +0.000 HD
ENDBRANCH   8  10
BRANCH   7  15
ATOM     15  N   UNL     1       1.309   9.295  18.752  0.00  0.00    +0.000 N 
ATOM     16  C   UNL     1       1.766   8.305  19.615  0.00  0.00    +0.000 C 
ATOM     17  O   UNL     1       1.700   8.361  20.839  0.00  0.00    +0.000 OA
ATOM     18  H   UNL     1       1.005   9.003  17.830  0.00  0.00    +0.000 HD
BRANCH  16  19
ATOM     19  C   UNL     1       2.419   7.131  18.967  0.00  0.00    +0.000 A 
ATOM     20  C   UNL     1       3.229   7.424  17.851  0.00  0.00    +0.000 A 
ATOM     21  C   UNL     1       4.070   6.467  17.273  0.00  0.00    +0.000 A 
ATOM     22  C   UNL     1       4.894   6.792  16.185  0.00  0.00    +0.000 A 
ATOM     23  C   UNL     1       5.770   5.848  15.651  0.00  0.00    +0.000 A 
ATOM     24  C   UNL     1       5.830   4.570  16.195  0.00  0.00    +0.000 A 
ATOM     25  C   UNL     1       5.005   4.228  17.268  0.00  0.00    +0.000 A 
ATOM     26  C   UNL     1       4.117   5.169  17.818  0.00  0.00    +0.000 A 
ATOM     27  C   UNL     1       3.291   4.870  18.919  0.00  0.00    +0.000 A 
ATOM     28  C   UNL     1       2.437   5.829  19.495  0.00  0.00    +0.000 A 
BRANCH  28  29
ATOM     29  O   UNL     1       1.782   5.322  20.583  0.00  0.00    +0.000 OA
ATOM     30  C   UNL     1       1.014   4.135  20.436  0.00  0.00    +0.000 C 
ENDBRANCH  28  29
ENDBRANCH  16  19
ENDBRANCH   7  15
BRANCH   1  32
ATOM     31  C   UNL     1      -3.970  14.809  21.109  0.00  0.00    +0.000 C 
ATOM     32  C   UNL     1      -2.453  14.698  20.944  0.00  0.00    +0.000 C 
ENDBRANCH   1  32
TORSDOF 5
ENDMDL
MODEL 6
REMARK VINA RESULT:      -6.8      1.245      2.839
REMARK  Name = 
REMARK  7 active torsions:
REMARK  status: ('A' for Active; 'I' for Inactive)
REMARK    1  A    between atoms: C_1  and  C_2
REMARK    2  A    between atoms: C_2  and  N_3
REMARK    3  A    between atoms: C_9  and  N_10
REMARK    4  A    between atoms: C_11  and  C_13
REMARK    5  A    between atoms: C_22  and  O_23
REMARK    6  A    between atoms: O_23  and  C_24
REMARK    7  A    between atoms: C_25  and  C_26
REMARK                            x       y       z     vdW  Elec       q    Type
REMARK                         _______ _______ _______ _____ _____    ______ ____
ROOT
ATOM      1  N   UNL     1      -1.473  14.289  22.118  0.00  0.00    +0.000 NA
ATOM      2  C   UNL     1      -1.016  14.405  20.714  0.00  0.00    +0.000 C 
ATOM      3  C   UNL     1      -1.442  13.215  19.828  0.00  0.00    +0.000 C 
ATOM      4  C   UNL     1      -0.989  11.940  20.473  0.00  0.00    +0.000 A 
ATOM      5  C   UNL     1      -0.722  11.909  21.826  0.00  0.00    +0.000 A 
ATOM      6  S   UNL     1      -0.077  10.406  22.294  0.00  0.00    +0.000 S 
ATOM      7  C   UNL     1      -0.061   9.845  20.671  0.00  0.00    +0.000 A 
ATOM      8  C   UNL     1      -0.789  10.670  19.824  0.00  0.00    +0.000 A 
ATOM      9  C   UNL     1      -0.897  13.076  22.768  0.00  0.00    +0.000 C 
ENDROOT
BRANCH   8  10
ATOM     10  C   UNL     1      -1.366  10.380  18.510  0.00  0.00    +0.000 C 
ATOM     11  N   UNL     1      -0.535  10.298  17.440  0.00  0.00    +0.000 N 
ATOM     12  O   UNL     1      -2.575  10.232  18.341  0.00  0.00    +0.000 OA
ATOM     13  H   UNL     1       0.334  10.827  17.484  0.00  0.00    +0.000 HD
ATOM     14  H   UNL     1      -0.995  10.270  16.542  0.00  0.00    +0.000 HD
ENDBRANCH   8  10
BRANCH   7  15
ATOM     15  N   UNL     1       0.623   8.649  20.534  0.00  0.00    +0.000 N 
ATOM     16  C   UNL     1       1.621   8.496  19.579  0.00  0.00    +0.000 C 
ATOM     17  O   UNL     1       1.992   9.377  18.809  0.00  0.00    +0.000 OA
ATOM     18  H   UNL     1       0.684   8.072  21.366  0.00  0.00    +0.000 HD
BRANCH  16  19
ATOM     19  C   UNL     1       2.224   7.135  19.483  0.00  0.00    +0.000 A 
ATOM     20  C   UNL     1       1.717   6.178  20.387  0.00  0.00    +0.000 A 
ATOM     21  C   UNL     1       2.025   4.818  20.278  0.00  0.00    +0.000 A 
ATOM     22  C   UNL     1       1.479   3.881  21.167  0.00  0.00    +0.000 A 
ATOM     23  C   UNL     1       1.746   2.521  21.018  0.00  0.00    +0.000 A 
ATOM     24  C   UNL     1       2.564   2.083  19.981  0.00  0.00    +0.000 A 
ATOM     25  C   UNL     1       3.126   3.006  19.098  0.00  0.00    +0.000 A 
ATOM     26  C   UNL     1       2.864   4.381  19.235  0.00  0.00    +0.000 A 
ATOM     27  C   UNL     1       3.390   5.339  18.346  0.00  0.00    +0.000 A 
ATOM     28  C   UNL     1       3.089   6.710  18.460  0.00  0.00    +0.000 A 
BRANCH  28  29
ATOM     29  O   UNL     1       3.666   7.431  17.452  0.00  0.00    +0.000 OA
ATOM     30  C   UNL     1       4.755   6.866  16.734  0.00  0.00    +0.000 C 
ENDBRANCH  28  29
ENDBRANCH  16  19
ENDBRANCH   7  15
BRANCH   1  32
ATOM     31  C   UNL     1      -3.575  15.381  21.318  0.00  0.00    +0.000 C 
ATOM     32  C   UNL     1      -2.937  14.351  22.252  0.00  0.00    +0.000 C 
ENDBRANCH   1  32
TORSDOF 5
ENDMDL
MODEL 7
REMARK VINA RESULT:      -6.8      1.963      2.360
REMARK  Name = 
REMARK  7 active torsions:
REMARK  status: ('A' for Active; 'I' for Inactive)
REMARK    1  A    between atoms: C_1  and  C_2
REMARK    2  A    between atoms: C_2  and  N_3
REMARK    3  A    between atoms: C_9  and  N_10
REMARK    4  A    between atoms: C_11  and  C_13
REMARK    5  A    between atoms: C_22  and  O_23
REMARK    6  A    between atoms: O_23  and  C_24
REMARK    7  A    between atoms: C_25  and  C_26
REMARK                            x       y       z     vdW  Elec       q    Type
REMARK                         _______ _______ _______ _____ _____    ______ ____
ROOT
ATOM      1  N   UNL     1      -0.897  14.556  20.218  0.00  0.00    +0.000 NA
ATOM      2  C   UNL     1      -1.909  13.583  20.689  0.00  0.00    +0.000 C 
ATOM      3  C   UNL     1      -1.299  12.363  21.412  0.00  0.00    +0.000 C 
ATOM      4  C   UNL     1      -0.270  11.733  20.523  0.00  0.00    +0.000 A 
ATOM      5  C   UNL     1       0.312  12.469  19.512  0.00  0.00    +0.000 A 
ATOM      6  S   UNL     1       1.323  11.501  18.546  0.00  0.00    +0.000 S 
ATOM      7  C   UNL     1       0.896  10.086  19.421  0.00  0.00    +0.000 A 
ATOM      8  C   UNL     1       0.220  10.380  20.597  0.00  0.00    +0.000 A 
ATOM      9  C   UNL     1       0.032  13.927  19.235  0.00  0.00    +0.000 C 
ENDROOT
BRANCH   8  10
ATOM     10  C   UNL     1       0.036   9.561  21.796  0.00  0.00    +0.000 C 
ATOM     11  N   UNL     1      -0.721   8.438  21.706  0.00  0.00    +0.000 N 
ATOM     12  O   UNL     1       0.524   9.868  22.882  0.00  0.00    +0.000 OA
ATOM     13  H   UNL     1      -1.444   8.422  20.989  0.00  0.00    +0.000 HD
ATOM     14  H   UNL     1      -0.957   8.010  22.588  0.00  0.00    +0.000 HD
ENDBRANCH   8  10
BRANCH   7  15
ATOM     15  N   UNL     1       1.364   8.932  18.814  0.00  0.00    +0.000 N 
ATOM     16  C   UNL     1       1.996   7.938  19.551  0.00  0.00    +0.000 C 
ATOM     17  O   UNL     1       2.176   7.975  20.765  0.00  0.00    +0.000 OA
ATOM     18  H   UNL     1       0.886   8.648  17.966  0.00  0.00    +0.000 HD
BRANCH  16  19
ATOM     19  C   UNL     1       2.522   6.783  18.766  0.00  0.00    +0.000 A 
ATOM     20  C   UNL     1       3.446   7.106  17.751  0.00  0.00    +0.000 A 
ATOM     21  C   UNL     1       4.182   6.126  17.078  0.00  0.00    +0.000 A 
ATOM     22  C   UNL     1       5.122   6.474  16.098  0.00  0.00    +0.000 A 
ATOM     23  C   UNL     1       5.892   5.495  15.472  0.00  0.00    +0.000 A 
ATOM     24  C   UNL     1       5.728   4.157  15.816  0.00  0.00    +0.000 A 
ATOM     25  C   UNL     1       4.786   3.795  16.780  0.00  0.00    +0.000 A 
ATOM     26  C   UNL     1       4.003   4.771  17.421  0.00  0.00    +0.000 A 
ATOM     27  C   UNL     1       3.063   4.446  18.419  0.00  0.00    +0.000 A 
ATOM     28  C   UNL     1       2.314   5.431  19.089  0.00  0.00    +0.000 A 
BRANCH  28  29
ATOM     29  O   UNL     1       1.515   4.879  20.051  0.00  0.00    +0.000 OA
ATOM     30  C   UNL     1       2.116   4.312  21.207  0.00  0.00    +0.000 C 
ENDBRANCH  28  29
ENDBRANCH  16  19
ENDBRANCH   7  15
BRANCH   1  32
ATOM     31  C   UNL     1      -1.100  16.044  22.218  0.00  0.00    +0.000 C 
ATOM     32  C   UNL     1      -0.179  15.215  21.321  0.00  0.00    +0.000 C 
ENDBRANCH   1  32
TORSDOF 5
ENDMDL
MODEL 8
REMARK VINA RESULT:      -6.7      1.901      3.060
REMARK  Name = 
REMARK  7 active torsions:
REMARK  status: ('A' for Active; 'I' for Inactive)
REMARK    1  A    between atoms: C_1  and  C_2
REMARK    2  A    between atoms: C_2  and  N_3
REMARK    3  A    between atoms: C_9  and  N_10
REMARK    4  A    between atoms: C_11  and  C_13
REMARK    5  A    between atoms: C_22  and  O_23
REMARK    6  A    between atoms: O_23  and  C_24
REMARK    7  A    between atoms: C_25  and  C_26
REMARK                            x       y       z     vdW  Elec       q    Type
REMARK                         _______ _______ _______ _____ _____    ______ ____
ROOT
ATOM      1  N   UNL     1       0.013  14.595  20.314  0.00  0.00    +0.000 NA
ATOM      2  C   UNL     1      -0.065  14.365  18.853  0.00  0.00    +0.000 C 
ATOM      3  C   UNL     1      -0.784  13.054  18.474  0.00  0.00    +0.000 C 
ATOM      4  C   UNL     1      -0.134  11.914  19.198  0.00  0.00    +0.000 A 
ATOM      5  C   UNL     1       0.600  12.152  20.341  0.00  0.00    +0.000 A 
ATOM      6  S   UNL     1       1.365  10.736  20.891  0.00  0.00    +0.000 S 
ATOM      7  C   UNL     1       0.795   9.839  19.541  0.00  0.00    +0.000 A 
ATOM      8  C   UNL     1      -0.185  10.521  18.834  0.00  0.00    +0.000 A 
ATOM      9  C   UNL     1       0.779  13.506  20.986  0.00  0.00    +0.000 C 
ENDROOT
BRANCH   8  10
ATOM     10  C   UNL     1      -1.196  10.005  17.909  0.00  0.00    +0.000 C 
ATOM     11  N   UNL     1      -2.506  10.144  18.235  0.00  0.00    +0.000 N 
ATOM     12  O   UNL     1      -0.897   9.433  16.863  0.00  0.00    +0.000 OA
ATOM     13  H   UNL     1      -2.736  10.199  19.226  0.00  0.00    +0.000 HD
ATOM     14  H   UNL     1      -3.149   9.624  17.657  0.00  0.00    +0.000 HD
ENDBRANCH   8  10
BRANCH   7  15
ATOM     15  N   UNL     1       1.381   8.586  19.458  0.00  0.00    +0.000 N 
ATOM     16  C   UNL     1       2.152   8.225  18.359  0.00  0.00    +0.000 C 
ATOM     17  O   UNL     1       2.396   8.957  17.406  0.00  0.00    +0.000 OA
ATOM     18  H   UNL     1       1.585   8.129  20.339  0.00  0.00    +0.000 HD
BRANCH  16  19
ATOM     19  C   UNL     1       2.659   6.821  18.356  0.00  0.00    +0.000 A 
ATOM     20  C   UNL     1       1.807   5.865  18.946  0.00  0.00    +0.000 A 
ATOM     21  C   UNL     1       2.043   4.490  18.831  0.00  0.00    +0.000 A 
ATOM     22  C   UNL     1       1.162   3.557  19.396  0.00  0.00    +0.000 A 
ATOM     23  C   UNL     1       1.373   2.189  19.229  0.00  0.00    +0.000 A 
ATOM     24  C   UNL     1       2.468   1.740  18.498  0.00  0.00    +0.000 A 
ATOM     25  C   UNL     1       3.361   2.657  17.942  0.00  0.00    +0.000 A 
ATOM     26  C   UNL     1       3.160   4.040  18.102  0.00  0.00    +0.000 A 
ATOM     27  C   UNL     1       4.024   4.996  17.531  0.00  0.00    +0.000 A 
ATOM     28  C   UNL     1       3.794   6.379  17.655  0.00  0.00    +0.000 A 
BRANCH  28  29
ATOM     29  O   UNL     1       4.731   7.103  16.971  0.00  0.00    +0.000 OA
ATOM     30  C   UNL     1       5.138   6.662  15.682  0.00  0.00    +0.000 C 
ENDBRANCH  28  29
ENDBRANCH  16  19
ENDBRANCH   7  15
BRANCH   1  32
ATOM     31  C   UNL     1      -1.955  16.127  20.498  0.00  0.00    +0.000 C 
ATOM     32  C   UNL     1      -1.306  14.812  20.930  0.00  0.00    +0.000 C 
ENDBRANCH   1  32
TORSDOF 5
ENDMDL
MODEL 9
REMARK VINA RESULT:      -6.7      2.577      9.212
REMARK  Name = 
REMARK  7 active torsions:
REMARK  status: ('A' for Active; 'I' for Inactive)
REMARK    1  A    between atoms: C_1  and  C_2
REMARK    2  A    between atoms: C_2  and  N_3
REMARK    3  A    between atoms: C_9  and  N_10
REMARK    4  A    between atoms: C_11  and  C_13
REMARK    5  A    between atoms: C_22  and  O_23
REMARK    6  A    between atoms: O_23  and  C_24
REMARK    7  A    between atoms: C_25  and  C_26
REMARK                            x       y       z     vdW  Elec       q    Type
REMARK                         _______ _______ _______ _____ _____    ______ ____
ROOT
ATOM      1  N   UNL     1       6.742   4.515  16.546  0.00  0.00    +0.000 NA
ATOM      2  C   UNL     1       6.208   3.933  17.800  0.00  0.00    +0.000 C 
ATOM      3  C   UNL     1       4.666   3.921  17.864  0.00  0.00    +0.000 C 
ATOM      4  C   UNL     1       4.157   5.308  17.616  0.00  0.00    +0.000 A 
ATOM      5  C   UNL     1       4.947   6.226  16.957  0.00  0.00    +0.000 A 
ATOM      6  S   UNL     1       4.221   7.764  16.933  0.00  0.00    +0.000 S 
ATOM      7  C   UNL     1       2.905   7.218  17.892  0.00  0.00    +0.000 A 
ATOM      8  C   UNL     1       2.870   5.834  17.995  0.00  0.00    +0.000 A 
ATOM      9  C   UNL     1       6.320   5.938  16.396  0.00  0.00    +0.000 C 
ENDROOT
BRANCH   8  10
ATOM     10  C   UNL     1       1.754   4.954  18.347  0.00  0.00    +0.000 C 
ATOM     11  N   UNL     1       1.467   4.764  19.660  0.00  0.00    +0.000 N 
ATOM     12  O   UNL     1       1.087   4.367  17.497  0.00  0.00    +0.000 OA
ATOM     13  H   UNL     1       2.232   4.869  20.323  0.00  0.00    +0.000 HD
ATOM     14  H   UNL     1       0.810   4.022  19.851  0.00  0.00    +0.000 HD
ENDBRANCH   8  10
BRANCH   7  15
ATOM     15  N   UNL     1       2.102   8.260  18.325  0.00  0.00    +0.000 N 
ATOM     16  C   UNL     1       1.757   8.393  19.665  0.00  0.00    +0.000 C 
ATOM     17  O   UNL     1       2.133   7.643  20.561  0.00  0.00    +0.000 OA
ATOM     18  H   UNL     1       2.127   9.105  17.766  0.00  0.00    +0.000 HD
BRANCH  16  19
ATOM     19  C   UNL     1       0.824   9.512  19.986  0.00  0.00    +0.000 A 
ATOM     20  C   UNL     1       0.170   9.421  21.232  0.00  0.00    +0.000 A 
ATOM     21  C   UNL     1      -0.564  10.487  21.764  0.00  0.00    +0.000 A 
ATOM     22  C   UNL     1      -1.176  10.385  23.022  0.00  0.00    +0.000 A 
ATOM     23  C   UNL     1      -1.858  11.470  23.570  0.00  0.00    +0.000 A 
ATOM     24  C   UNL     1      -1.939  12.667  22.866  0.00  0.00    +0.000 A 
ATOM     25  C   UNL     1      -1.347  12.778  21.606  0.00  0.00    +0.000 A 
ATOM     26  C   UNL     1      -0.655  11.691  21.041  0.00  0.00    +0.000 A 
ATOM     27  C   UNL     1      -0.021  11.775  19.786  0.00  0.00    +0.000 A 
ATOM     28  C   UNL     1       0.709  10.700  19.245  0.00  0.00    +0.000 A 
BRANCH  28  29
ATOM     29  O   UNL     1       1.278  11.038  18.048  0.00  0.00    +0.000 OA
ATOM     30  C   UNL     1       2.380  11.936  18.037  0.00  0.00    +0.000 C 
ENDBRANCH  28  29
ENDBRANCH  16  19
ENDBRANCH   7  15
BRANCH   1  32
ATOM     31  C   UNL     1       6.560   4.493  14.052  0.00  0.00    +0.000 C 
ATOM     32  C   UNL     1       6.419   3.709  15.358  0.00  0.00    +0.000 C 
ENDBRANCH   1  32
TORSDOF 5
ENDMDL
