MODEL 1
REMARK VINA RESULT:      -7.8      0.000      0.000
REMARK  Name = 
REMARK  5 active torsions:
REMARK  status: ('A' for Active; 'I' for Inactive)
REMARK    1  A    between atoms: C_1  and  C_2
REMARK    2  A    between atoms: C_2  and  C_3
REMARK    3  A    between atoms: C_2  and  N_15
REMARK    4  A    between atoms: N_5  and  C_6
REMARK    5  A    between atoms: C_18  and  N_19
REMARK                            x       y       z     vdW  Elec       q    Type
REMARK                         _______ _______ _______ _____ _____    ______ ____
ROOT
ATOM      1  C   UNL     1       0.034   9.446  23.466  0.00  0.00    +0.000 C 
ATOM      2  C   UNL     1       0.944   9.566  22.229  0.00  0.00    +0.000 C 
ENDROOT
BRANCH   2   3
ATOM      3  N   UNL     1       0.833  10.836  21.447  0.00  0.00    +0.000 NA
ATOM      4  C   UNL     1       0.956  10.610  19.999  0.00  0.00    +0.000 C 
ATOM      5  C   UNL     1       0.591  11.812  19.136  0.00  0.00    +0.000 C 
ATOM      6  C   UNL     1      -0.783  12.420  19.469  0.00  0.00    +0.000 C 
ATOM      7  C   UNL     1      -0.759  12.761  20.967  0.00  0.00    +0.000 C 
ATOM      8  C   UNL     1      -0.341  11.606  21.876  0.00  0.00    +0.000 C 
BRANCH   6   9
ATOM      9  N   UNL     1      -2.010  11.731  18.977  0.00  0.00    +0.000 NA
ATOM     10  C   UNL     1      -3.233  12.434  19.398  0.00  0.00    +0.000 C 
ATOM     11  C   UNL     1      -4.515  11.697  19.004  0.00  0.00    +0.000 C 
ATOM     12  C   UNL     1      -4.553  11.455  17.503  0.00  0.00    +0.000 C 
ATOM     13  C   UNL     1      -3.326  10.657  17.107  0.00  0.00    +0.000 C 
ATOM     14  C   UNL     1      -2.037  11.347  17.566  0.00  0.00    +0.000 C 
ENDBRANCH   6   9
ENDBRANCH   2   3
BRANCH   2  15
ATOM     15  C   UNL     1       0.699   8.352  21.307  0.00  0.00    +0.000 C 
ATOM     16  O   UNL     1      -0.439   8.007  20.993  0.00  0.00    +0.000 OA
ATOM     17  N   UNL     1       1.867   7.692  20.951  0.00  0.00    +0.000 N 
ATOM     18  H   UNL     1       2.717   8.014  21.402  0.00  0.00    +0.000 HD
BRANCH  17  19
ATOM     19  C   UNL     1       1.927   6.547  20.134  0.00  0.00    +0.000 A 
ATOM     20  C   UNL     1       2.391   6.602  18.805  0.00  0.00    +0.000 A 
ATOM     21  C   UNL     1       2.356   5.482  17.971  0.00  0.00    +0.000 A 
ATOM     22  C   UNL     1       1.848   4.321  18.500  0.00  0.00    +0.000 A 
ATOM     23  C   UNL     1       1.435   4.241  19.810  0.00  0.00    +0.000 A 
ATOM     24  C   UNL     1       1.485   5.329  20.663  0.00  0.00    +0.000 A 
ATOM     25  O   UNL     1       0.953   3.005  20.118  0.00  0.00    +0.000 OA
ATOM     26  C   UNL     1       1.013   2.364  18.826  0.00  0.00    +0.000 C 
ATOM     27  O   UNL     1       1.677   3.156  17.823  0.00  0.00    +0.000 OA
ENDBRANCH  17  19
ENDBRANCH   2  15
TORSDOF 4
ENDMDL
MODEL 2
REMARK VINA RESULT:      -7.6      0.646      1.185
REMARK  Name = 
REMARK  5 active torsions:
REMARK  status: ('A' for Active; 'I' for Inactive)
REMARK    1  A    between atoms: C_1  and  C_2
REMARK    2  A    between atoms: C_2  and  C_3
REMARK    3  A    between atoms: C_2  and  N_15
REMARK    4  A    between atoms: N_5  and  C_6
REMARK    5  A    between atoms: C_18  and  N_19
REMARK                            x       y       z     vdW  Elec       q    Type
REMARK                         _______ _______ _______ _____ _____    ______ ____
ROOT
ATOM      1  C   UNL     1      -0.302   9.636  23.394  0.00  0.00    +0.000 C 
ATOM      2  C   UNL     1       0.759   9.794  22.289  0.00  0.00    +0.000 C 
ENDROOT
BRANCH   2   3
ATOM      3  N   UNL     1       0.760  11.097  21.554  0.00  0.00    +0.000 NA
ATOM      4  C   UNL     1       1.275  10.962  20.184  0.00  0.00    +0.000 C 
ATOM      5  C   UNL     1       1.058  12.185  19.301  0.00  0.00    +0.000 C 
ATOM      6  C   UNL     1      -0.398  12.684  19.280  0.00  0.00    +0.000 C 
ATOM      7  C   UNL     1      -0.794  12.940  20.743  0.00  0.00    +0.000 C 
ATOM      8  C   UNL     1      -0.541  11.764  21.685  0.00  0.00    +0.000 C 
BRANCH   6   9
ATOM      9  N   UNL     1      -1.396  11.946  18.454  0.00  0.00    +0.000 NA
ATOM     10  C   UNL     1      -0.911  10.605  18.087  0.00  0.00    +0.000 C 
ATOM     11  C   UNL     1      -1.862   9.859  17.149  0.00  0.00    +0.000 C 
ATOM     12  C   UNL     1      -3.248   9.753  17.766  0.00  0.00    +0.000 C 
ATOM     13  C   UNL     1      -3.761  11.150  18.057  0.00  0.00    +0.000 C 
ATOM     14  C   UNL     1      -2.778  11.935  18.932  0.00  0.00    +0.000 C 
ENDBRANCH   6   9
ENDBRANCH   2   3
BRANCH   2  15
ATOM     15  C   UNL     1       0.623   8.623  21.293  0.00  0.00    +0.000 C 
ATOM     16  O   UNL     1      -0.454   8.356  20.763  0.00  0.00    +0.000 OA
ATOM     17  N   UNL     1       1.800   7.904  21.131  0.00  0.00    +0.000 N 
ATOM     18  H   UNL     1       2.568   8.162  21.742  0.00  0.00    +0.000 HD
BRANCH  17  19
ATOM     19  C   UNL     1       1.948   6.781  20.295  0.00  0.00    +0.000 A 
ATOM     20  C   UNL     1       2.511   6.877  19.008  0.00  0.00    +0.000 A 
ATOM     21  C   UNL     1       2.565   5.777  18.149  0.00  0.00    +0.000 A 
ATOM     22  C   UNL     1       2.044   4.593  18.611  0.00  0.00    +0.000 A 
ATOM     23  C   UNL     1       1.535   4.473  19.884  0.00  0.00    +0.000 A 
ATOM     24  C   UNL     1       1.495   5.541  20.762  0.00  0.00    +0.000 A 
ATOM     25  O   UNL     1       1.059   3.221  20.127  0.00  0.00    +0.000 OA
ATOM     26  C   UNL     1       1.232   2.612  18.829  0.00  0.00    +0.000 C 
ATOM     27  O   UNL     1       1.951   3.441  17.897  0.00  0.00    +0.000 OA
ENDBRANCH  17  19
ENDBRANCH   2  15
TORSDOF 4
ENDMDL
MODEL 3
REMARK VINA RESULT:      -7.5      3.030      8.722
REMARK  Name = 
REMARK  5 active torsions:
REMARK  status: ('A' for Active; 'I' for Inactive)
REMARK    1  A    between atoms: C_1  and  C_2
REMARK    2  A    between atoms: C_2  and  C_3
REMARK    3  A    between atoms: C_2  and  N_15
REMARK    4  A    between atoms: N_5  and  C_6
REMARK    5  A    between atoms: C_18  and  N_19
REMARK                            x       y       z     vdW  Elec       q    Type
REMARK                         _______ _______ _______ _____ _____    ______ ____
ROOT
ATOM      1  C   UNL     1       2.116   8.207  17.930  0.00  0.00    +0.000 C 
ATOM      2  C   UNL     1       2.451   7.446  19.226  0.00  0.00    +0.000 C 
ENDROOT
BRANCH   2   3
ATOM      3  N   UNL     1       2.393   5.953  19.151  0.00  0.00    +0.000 NA
ATOM      4  C   UNL     1       2.211   5.472  17.774  0.00  0.00    +0.000 C 
ATOM      5  C   UNL     1       2.407   3.971  17.595  0.00  0.00    +0.000 C 
ATOM      6  C   UNL     1       3.732   3.445  18.176  0.00  0.00    +0.000 C 
ATOM      7  C   UNL     1       3.759   3.867  19.654  0.00  0.00    +0.000 C 
ATOM      8  C   UNL     1       3.508   5.355  19.895  0.00  0.00    +0.000 C 
BRANCH   6   9
ATOM      9  N   UNL     1       4.991   3.672  17.410  0.00  0.00    +0.000 NA
ATOM     10  C   UNL     1       4.714   4.075  16.020  0.00  0.00    +0.000 C 
ATOM     11  C   UNL     1       5.981   4.212  15.173  0.00  0.00    +0.000 C 
ATOM     12  C   UNL     1       6.948   5.198  15.811  0.00  0.00    +0.000 C 
ATOM     13  C   UNL     1       7.283   4.716  17.210  0.00  0.00    +0.000 C 
ATOM     14  C   UNL     1       6.016   4.500  18.044  0.00  0.00    +0.000 C 
ENDBRANCH   6   9
ENDBRANCH   2   3
BRANCH   2  15
ATOM     15  C   UNL     1       1.532   7.956  20.357  0.00  0.00    +0.000 C 
ATOM     16  O   UNL     1       1.159   7.212  21.262  0.00  0.00    +0.000 OA
ATOM     17  N   UNL     1       1.146   9.279  20.192  0.00  0.00    +0.000 N 
ATOM     18  H   UNL     1       1.424   9.720  19.322  0.00  0.00    +0.000 HD
BRANCH  17  19
ATOM     19  C   UNL     1       0.299   9.984  21.068  0.00  0.00    +0.000 A 
ATOM     20  C   UNL     1       0.157   9.623  22.422  0.00  0.00    +0.000 A 
ATOM     21  C   UNL     1      -0.757  10.267  23.260  0.00  0.00    +0.000 A 
ATOM     22  C   UNL     1      -1.516  11.269  22.707  0.00  0.00    +0.000 A 
ATOM     23  C   UNL     1      -1.354  11.664  21.399  0.00  0.00    +0.000 A 
ATOM     24  C   UNL     1      -0.437  11.060  20.558  0.00  0.00    +0.000 A 
ATOM     25  O   UNL     1      -2.218  12.660  21.057  0.00  0.00    +0.000 OA
ATOM     26  C   UNL     1      -3.003  12.761  22.264  0.00  0.00    +0.000 C 
ATOM     27  O   UNL     1      -2.496  11.958  23.348  0.00  0.00    +0.000 OA
ENDBRANCH  17  19
ENDBRANCH   2  15
TORSDOF 4
ENDMDL
MODEL 4
REMARK VINA RESULT:      -7.4      0.815      1.511
REMARK  Name = 
REMARK  5 active torsions:
REMARK  status: ('A' for Active; 'I' for Inactive)
REMARK    1  A    between atoms: C_1  and  C_2
REMARK    2  A    between atoms: C_2  and  C_3
REMARK    3  A    between atoms: C_2  and  N_15
REMARK    4  A    between atoms: N_5  and  C_6
REMARK    5  A    between atoms: C_18  and  N_19
REMARK                            x       y       z     vdW  Elec       q    Type
REMARK                         _______ _______ _______ _____ _____    ______ ____
ROOT
ATOM      1  C   UNL     1      -0.211   9.605  23.418  0.00  0.00    +0.000 C 
ATOM      2  C   UNL     1       0.789   9.659  22.247  0.00  0.00    +0.000 C 
ENDROOT
BRANCH   2   3
ATOM      3  N   UNL     1       0.722  10.872  21.375  0.00  0.00    +0.000 NA
ATOM      4  C   UNL     1       0.893  10.544  19.952  0.00  0.00    +0.000 C 
ATOM      5  C   UNL     1       0.574  11.687  18.994  0.00  0.00    +0.000 C 
ATOM      6  C   UNL     1      -0.803  12.332  19.235  0.00  0.00    +0.000 C 
ATOM      7  C   UNL     1      -0.826  12.777  20.707  0.00  0.00    +0.000 C 
ATOM      8  C   UNL     1      -0.455  11.683  21.708  0.00  0.00    +0.000 C 
BRANCH   6   9
ATOM      9  N   UNL     1      -2.021  11.623  18.749  0.00  0.00    +0.000 NA
ATOM     10  C   UNL     1      -3.254  12.278  19.220  0.00  0.00    +0.000 C 
ATOM     11  C   UNL     1      -4.523  11.517  18.831  0.00  0.00    +0.000 C 
ATOM     12  C   UNL     1      -4.589  11.320  17.324  0.00  0.00    +0.000 C 
ATOM     13  C   UNL     1      -3.349  10.569  16.877  0.00  0.00    +0.000 C 
ATOM     14  C   UNL     1      -2.070  11.281  17.328  0.00  0.00    +0.000 C 
ENDBRANCH   6   9
ENDBRANCH   2   3
BRANCH   2  15
ATOM     15  C   UNL     1       0.630   8.383  21.394  0.00  0.00    +0.000 C 
ATOM     16  O   UNL     1      -0.480   7.943  21.103  0.00  0.00    +0.000 OA
ATOM     17  N   UNL     1       1.842   7.788  21.069  0.00  0.00    +0.000 N 
ATOM     18  H   UNL     1       2.667   8.193  21.500  0.00  0.00    +0.000 HD
BRANCH  17  19
ATOM     19  C   UNL     1       1.982   6.607  20.315  0.00  0.00    +0.000 A 
ATOM     20  C   UNL     1       1.472   5.372  20.761  0.00  0.00    +0.000 A 
ATOM     21  C   UNL     1       1.699   4.189  20.054  0.00  0.00    +0.000 A 
ATOM     22  C   UNL     1       2.443   4.279  18.903  0.00  0.00    +0.000 A 
ATOM     23  C   UNL     1       2.906   5.485  18.431  0.00  0.00    +0.000 A 
ATOM     24  C   UNL     1       2.672   6.673  19.099  0.00  0.00    +0.000 A 
ATOM     25  O   UNL     1       3.632   5.341  17.288  0.00  0.00    +0.000 OA
ATOM     26  C   UNL     1       3.657   3.902  17.166  0.00  0.00    +0.000 C 
ATOM     27  O   UNL     1       2.818   3.230  18.125  0.00  0.00    +0.000 OA
ENDBRANCH  17  19
ENDBRANCH   2  15
TORSDOF 4
ENDMDL
MODEL 5
REMARK VINA RESULT:      -7.3      4.283      9.155
REMARK  Name = 
REMARK  5 active torsions:
REMARK  status: ('A' for Active; 'I' for Inactive)
REMARK    1  A    between atoms: C_1  and  C_2
REMARK    2  A    between atoms: C_2  and  C_3
REMARK    3  A    between atoms: C_2  and  N_15
REMARK    4  A    between atoms: N_5  and  C_6
REMARK    5  A    between atoms: C_18  and  N_19
REMARK                            x       y       z     vdW  Elec       q    Type
REMARK                         _______ _______ _______ _____ _____    ______ ____
ROOT
ATOM      1  C   UNL     1       2.034   4.894  18.406  0.00  0.00    +0.000 C 
ATOM      2  C   UNL     1       2.836   6.064  17.806  0.00  0.00    +0.000 C 
ENDROOT
BRANCH   2   3
ATOM      3  N   UNL     1       4.326   5.927  17.833  0.00  0.00    +0.000 NA
ATOM      4  C   UNL     1       4.764   4.557  17.527  0.00  0.00    +0.000 C 
ATOM      5  C   UNL     1       6.261   4.410  17.280  0.00  0.00    +0.000 C 
ATOM      6  C   UNL     1       6.817   5.397  16.238  0.00  0.00    +0.000 C 
ATOM      7  C   UNL     1       6.440   6.805  16.723  0.00  0.00    +0.000 C 
ATOM      8  C   UNL     1       4.957   6.992  17.044  0.00  0.00    +0.000 C 
BRANCH   6   9
ATOM      9  N   UNL     1       6.580   5.121  14.792  0.00  0.00    +0.000 NA
ATOM     10  C   UNL     1       7.789   5.366  13.987  0.00  0.00    +0.000 C 
ATOM     11  C   UNL     1       7.554   5.198  12.485  0.00  0.00    +0.000 C 
ATOM     12  C   UNL     1       7.008   3.811  12.181  0.00  0.00    +0.000 C 
ATOM     13  C   UNL     1       5.719   3.614  12.955  0.00  0.00    +0.000 C 
ATOM     14  C   UNL     1       5.925   3.857  14.454  0.00  0.00    +0.000 C 
ENDBRANCH   6   9
ENDBRANCH   2   3
BRANCH   2  15
ATOM     15  C   UNL     1       2.412   7.373  18.505  0.00  0.00    +0.000 C 
ATOM     16  O   UNL     1       2.496   7.503  19.725  0.00  0.00    +0.000 OA
ATOM     17  N   UNL     1       1.887   8.314  17.630  0.00  0.00    +0.000 N 
ATOM     18  H   UNL     1       1.754   8.007  16.672  0.00  0.00    +0.000 HD
BRANCH  17  19
ATOM     19  C   UNL     1       1.409   9.584  18.006  0.00  0.00    +0.000 A 
ATOM     20  C   UNL     1       2.268  10.691  18.152  0.00  0.00    +0.000 A 
ATOM     21  C   UNL     1       1.802  11.922  18.618  0.00  0.00    +0.000 A 
ATOM     22  C   UNL     1       0.468  12.010  18.931  0.00  0.00    +0.000 A 
ATOM     23  C   UNL     1      -0.392  10.951  18.748  0.00  0.00    +0.000 A 
ATOM     24  C   UNL     1       0.041   9.730  18.262  0.00  0.00    +0.000 A 
ATOM     25  O   UNL     1      -1.662  11.252  19.137  0.00  0.00    +0.000 OA
ATOM     26  C   UNL     1      -1.470  12.575  19.681  0.00  0.00    +0.000 C 
ATOM     27  O   UNL     1      -0.148  13.101  19.457  0.00  0.00    +0.000 OA
ENDBRANCH  17  19
ENDBRANCH   2  15
TORSDOF 4
ENDMDL
MODEL 6
REMARK VINA RESULT:      -7.3      2.747      4.084
REMARK  Name = 
REMARK  5 active torsions:
REMARK  status: ('A' for Active; 'I' for Inactive)
REMARK    1  A    between atoms: C_1  and  C_2
REMARK    2  A    between atoms: C_2  and  C_3
REMARK    3  A    between atoms: C_2  and  N_15
REMARK    4  A    between atoms: N_5  and  C_6
REMARK    5  A    between atoms: C_18  and  N_19
REMARK                            x       y       z     vdW  Elec       q    Type
REMARK                         _______ _______ _______ _____ _____    ______ ____
ROOT
ATOM      1  C   UNL     1       0.813   8.401  20.734  0.00  0.00    +0.000 C 
ATOM      2  C   UNL     1       1.464   9.366  19.726  0.00  0.00    +0.000 C 
ENDROOT
BRANCH   2   3
ATOM      3  N   UNL     1       0.592  10.463  19.202  0.00  0.00    +0.000 NA
ATOM      4  C   UNL     1      -0.838  10.167  19.374  0.00  0.00    +0.000 C 
ATOM      5  C   UNL     1      -1.766  11.346  19.107  0.00  0.00    +0.000 C 
ATOM      6  C   UNL     1      -1.386  12.623  19.878  0.00  0.00    +0.000 C 
ATOM      7  C   UNL     1       0.075  12.934  19.515  0.00  0.00    +0.000 C 
ATOM      8  C   UNL     1       1.042  11.766  19.708  0.00  0.00    +0.000 C 
BRANCH   6   9
ATOM      9  N   UNL     1      -1.732  12.715  21.325  0.00  0.00    +0.000 NA
ATOM     10  C   UNL     1      -1.039  13.839  21.978  0.00  0.00    +0.000 C 
ATOM     11  C   UNL     1      -1.285  13.900  23.487  0.00  0.00    +0.000 C 
ATOM     12  C   UNL     1      -2.775  13.974  23.783  0.00  0.00    +0.000 C 
ATOM     13  C   UNL     1      -3.454  12.763  23.173  0.00  0.00    +0.000 C 
ATOM     14  C   UNL     1      -3.150  12.647  21.676  0.00  0.00    +0.000 C 
ENDBRANCH   6   9
ENDBRANCH   2   3
BRANCH   2  15
ATOM     15  C   UNL     1       2.047   8.547  18.554  0.00  0.00    +0.000 C 
ATOM     16  O   UNL     1       1.871   8.888  17.386  0.00  0.00    +0.000 OA
ATOM     17  N   UNL     1       2.705   7.397  18.966  0.00  0.00    +0.000 N 
ATOM     18  H   UNL     1       2.646   7.179  19.955  0.00  0.00    +0.000 HD
BRANCH  17  19
ATOM     19  C   UNL     1       3.312   6.465  18.103  0.00  0.00    +0.000 A 
ATOM     20  C   UNL     1       2.862   5.133  18.006  0.00  0.00    +0.000 A 
ATOM     21  C   UNL     1       3.530   4.191  17.221  0.00  0.00    +0.000 A 
ATOM     22  C   UNL     1       4.647   4.615  16.545  0.00  0.00    +0.000 A 
ATOM     23  C   UNL     1       5.071   5.923  16.593  0.00  0.00    +0.000 A 
ATOM     24  C   UNL     1       4.411   6.881  17.342  0.00  0.00    +0.000 A 
ATOM     25  O   UNL     1       6.205   6.120  15.865  0.00  0.00    +0.000 OA
ATOM     26  C   UNL     1       6.495   4.767  15.451  0.00  0.00    +0.000 C 
ATOM     27  O   UNL     1       5.457   3.828  15.790  0.00  0.00    +0.000 OA
ENDBRANCH  17  19
ENDBRANCH   2  15
TORSDOF 4
ENDMDL
MODEL 7
REMARK VINA RESULT:      -7.3      4.235      8.887
REMARK  Name = 
REMARK  5 active torsions:
REMARK  status: ('A' for Active; 'I' for Inactive)
REMARK    1  A    between atoms: C_1  and  C_2
REMARK    2  A    between atoms: C_2  and  C_3
REMARK    3  A    between atoms: C_2  and  N_15
REMARK    4  A    between atoms: N_5  and  C_6
REMARK    5  A    between atoms: C_18  and  N_19
REMARK                            x       y       z     vdW  Elec       q    Type
REMARK                         _______ _______ _______ _____ _____    ______ ____
ROOT
ATOM      1  C   UNL     1       3.740   3.328  19.536  0.00  0.00    +0.000 C 
ATOM      2  C   UNL     1       3.744   4.249  18.302  0.00  0.00    +0.000 C 
ENDROOT
BRANCH   2   3
ATOM      3  N   UNL     1       5.038   4.931  17.990  0.00  0.00    +0.000 NA
ATOM      4  C   UNL     1       6.064   3.990  17.517  0.00  0.00    +0.000 C 
ATOM      5  C   UNL     1       7.310   4.648  16.935  0.00  0.00    +0.000 C 
ATOM      6  C   UNL     1       7.008   5.701  15.854  0.00  0.00    +0.000 C 
ATOM      7  C   UNL     1       6.050   6.720  16.491  0.00  0.00    +0.000 C 
ATOM      8  C   UNL     1       4.810   6.108  17.142  0.00  0.00    +0.000 C 
BRANCH   6   9
ATOM      9  N   UNL     1       6.648   5.236  14.483  0.00  0.00    +0.000 NA
ATOM     10  C   UNL     1       7.809   5.271  13.577  0.00  0.00    +0.000 C 
ATOM     11  C   UNL     1       7.455   4.904  12.135  0.00  0.00    +0.000 C 
ATOM     12  C   UNL     1       6.798   3.533  12.076  0.00  0.00    +0.000 C 
ATOM     13  C   UNL     1       5.559   3.549  12.951  0.00  0.00    +0.000 C 
ATOM     14  C   UNL     1       5.889   3.991  14.380  0.00  0.00    +0.000 C 
ENDBRANCH   6   9
ENDBRANCH   2   3
BRANCH   2  15
ATOM     15  C   UNL     1       2.617   5.293  18.452  0.00  0.00    +0.000 C 
ATOM     16  O   UNL     1       1.551   5.175  17.851  0.00  0.00    +0.000 OA
ATOM     17  N   UNL     1       2.971   6.364  19.262  0.00  0.00    +0.000 N 
ATOM     18  H   UNL     1       3.935   6.388  19.575  0.00  0.00    +0.000 HD
BRANCH  17  19
ATOM     19  C   UNL     1       2.138   7.461  19.552  0.00  0.00    +0.000 A 
ATOM     20  C   UNL     1       1.966   8.529  18.649  0.00  0.00    +0.000 A 
ATOM     21  C   UNL     1       1.216   9.658  18.984  0.00  0.00    +0.000 A 
ATOM     22  C   UNL     1       0.650   9.687  20.235  0.00  0.00    +0.000 A 
ATOM     23  C   UNL     1       0.770   8.631  21.110  0.00  0.00    +0.000 A 
ATOM     24  C   UNL     1       1.485   7.491  20.791  0.00  0.00    +0.000 A 
ATOM     25  O   UNL     1       0.147   8.878  22.295  0.00  0.00    +0.000 OA
ATOM     26  C   UNL     1      -0.277  10.244  22.096  0.00  0.00    +0.000 C 
ATOM     27  O   UNL     1      -0.054  10.725  20.757  0.00  0.00    +0.000 OA
ENDBRANCH  17  19
ENDBRANCH   2  15
TORSDOF 4
ENDMDL
MODEL 8
REMARK VINA RESULT:      -7.2      4.156      8.857
REMARK  Name = 
REMARK  5 active torsions:
REMARK  status: ('A' for Active; 'I' for Inactive)
REMARK    1  A    between atoms: C_1  and  C_2
REMARK    2  A    between atoms: C_2  and  C_3
REMARK    3  A    between atoms: C_2  and  N_15
REMARK    4  A    between atoms: N_5  and  C_6
REMARK    5  A    between atoms: C_18  and  N_19
REMARK                            x       y       z     vdW  Elec       q    Type
REMARK                         _______ _______ _______ _____ _____    ______ ____
ROOT
ATOM      1  C   UNL     1       3.720   3.490  19.808  0.00  0.00    +0.000 C 
ATOM      2  C   UNL     1       3.717   4.366  18.541  0.00  0.00    +0.000 C 
ENDROOT
BRANCH   2   3
ATOM      3  N   UNL     1       5.013   5.025  18.189  0.00  0.00    +0.000 NA
ATOM      4  C   UNL     1       6.009   4.063  17.694  0.00  0.00    +0.000 C 
ATOM      5  C   UNL     1       7.249   4.697  17.074  0.00  0.00    +0.000 C 
ATOM      6  C   UNL     1       6.935   5.748  15.994  0.00  0.00    +0.000 C 
ATOM      7  C   UNL     1       6.012   6.788  16.651  0.00  0.00    +0.000 C 
ATOM      8  C   UNL     1       4.781   6.200  17.341  0.00  0.00    +0.000 C 
BRANCH   6   9
ATOM      9  N   UNL     1       6.530   5.282  14.637  0.00  0.00    +0.000 NA
ATOM     10  C   UNL     1       7.691   5.142  13.743  0.00  0.00    +0.000 C 
ATOM     11  C   UNL     1       7.304   4.769  12.310  0.00  0.00    +0.000 C 
ATOM     12  C   UNL     1       6.485   3.487  12.293  0.00  0.00    +0.000 C 
ATOM     13  C   UNL     1       5.252   3.685  13.154  0.00  0.00    +0.000 C 
ATOM     14  C   UNL     1       5.624   4.135  14.570  0.00  0.00    +0.000 C 
ENDBRANCH   6   9
ENDBRANCH   2   3
BRANCH   2  15
ATOM     15  C   UNL     1       2.601   5.425  18.668  0.00  0.00    +0.000 C 
ATOM     16  O   UNL     1       1.609   5.399  17.943  0.00  0.00    +0.000 OA
ATOM     17  N   UNL     1       2.881   6.402  19.614  0.00  0.00    +0.000 N 
ATOM     18  H   UNL     1       3.804   6.365  20.034  0.00  0.00    +0.000 HD
BRANCH  17  19
ATOM     19  C   UNL     1       2.043   7.492  19.917  0.00  0.00    +0.000 A 
ATOM     20  C   UNL     1       1.236   7.515  21.072  0.00  0.00    +0.000 A 
ATOM     21  C   UNL     1       0.336   8.554  21.315  0.00  0.00    +0.000 A 
ATOM     22  C   UNL     1       0.268   9.557  20.380  0.00  0.00    +0.000 A 
ATOM     23  C   UNL     1       1.084   9.572  19.271  0.00  0.00    +0.000 A 
ATOM     24  C   UNL     1       2.002   8.568  19.023  0.00  0.00    +0.000 A 
ATOM     25  O   UNL     1       0.838  10.646  18.471  0.00  0.00    +0.000 OA
ATOM     26  C   UNL     1      -0.293  11.234  19.151  0.00  0.00    +0.000 C 
ATOM     27  O   UNL     1      -0.590  10.610  20.415  0.00  0.00    +0.000 OA
ENDBRANCH  17  19
ENDBRANCH   2  15
TORSDOF 4
ENDMDL
MODEL 9
REMARK VINA RESULT:      -7.2      2.989      8.726
REMARK  Name = 
REMARK  5 active torsions:
REMARK  status: ('A' for Active; 'I' for Inactive)
REMARK    1  A    between atoms: C_1  and  C_2
REMARK    2  A    between atoms: C_2  and  C_3
REMARK    3  A    between atoms: C_2  and  N_15
REMARK    4  A    between atoms: N_5  and  C_6
REMARK    5  A    between atoms: C_18  and  N_19
REMARK                            x       y       z     vdW  Elec       q    Type
REMARK                         _______ _______ _______ _____ _____    ______ ____
ROOT
ATOM      1  C   UNL     1       2.551   8.397  17.750  0.00  0.00    +0.000 C 
ATOM      2  C   UNL     1       2.536   7.720  19.133  0.00  0.00    +0.000 C 
ENDROOT
BRANCH   2   3
ATOM      3  N   UNL     1       2.357   6.235  19.141  0.00  0.00    +0.000 NA
ATOM      4  C   UNL     1       2.216   5.685  17.785  0.00  0.00    +0.000 C 
ATOM      5  C   UNL     1       2.295   4.165  17.705  0.00  0.00    +0.000 C 
ATOM      6  C   UNL     1       3.534   3.571  18.400  0.00  0.00    +0.000 C 
ATOM      7  C   UNL     1       3.510   4.082  19.849  0.00  0.00    +0.000 C 
ATOM      8  C   UNL     1       3.371   5.597  19.988  0.00  0.00    +0.000 C 
BRANCH   6   9
ATOM      9  N   UNL     1       4.851   3.648  17.704  0.00  0.00    +0.000 NA
ATOM     10  C   UNL     1       4.688   3.898  16.261  0.00  0.00    +0.000 C 
ATOM     11  C   UNL     1       6.012   3.875  15.495  0.00  0.00    +0.000 C 
ATOM     12  C   UNL     1       6.989   4.882  16.084  0.00  0.00    +0.000 C 
ATOM     13  C   UNL     1       7.205   4.552  17.549  0.00  0.00    +0.000 C 
ATOM     14  C   UNL     1       5.877   4.494  18.311  0.00  0.00    +0.000 C 
ENDBRANCH   6   9
ENDBRANCH   2   3
BRANCH   2  15
ATOM     15  C   UNL     1       1.452   8.389  20.005  0.00  0.00    +0.000 C 
ATOM     16  O   UNL     1       0.990   7.825  20.995  0.00  0.00    +0.000 OA
ATOM     17  N   UNL     1       1.039   9.620  19.514  0.00  0.00    +0.000 N 
ATOM     18  H   UNL     1       1.414   9.889  18.611  0.00  0.00    +0.000 HD
BRANCH  17  19
ATOM     19  C   UNL     1       0.052  10.432  20.106  0.00  0.00    +0.000 A 
ATOM     20  C   UNL     1      -1.048  10.923  19.376  0.00  0.00    +0.000 A 
ATOM     21  C   UNL     1      -1.969  11.806  19.945  0.00  0.00    +0.000 A 
ATOM     22  C   UNL     1      -1.757  12.178  21.250  0.00  0.00    +0.000 A 
ATOM     23  C   UNL     1      -0.714  11.669  21.989  0.00  0.00    +0.000 A 
ATOM     24  C   UNL     1       0.195  10.773  21.456  0.00  0.00    +0.000 A 
ATOM     25  O   UNL     1      -0.684  12.185  23.250  0.00  0.00    +0.000 OA
ATOM     26  C   UNL     1      -1.757  13.148  23.172  0.00  0.00    +0.000 C 
ATOM     27  O   UNL     1      -2.507  13.073  21.944  0.00  0.00    +0.000 OA
ENDBRANCH  17  19
ENDBRANCH   2  15
TORSDOF 4
ENDMDL
