MODEL 1
REMARK VINA RESULT:      -8.6      0.000      0.000
REMARK  Name = 
REMARK  4 active torsions:
REMARK  status: ('A' for Active; 'I' for Inactive)
REMARK    1  A    between atoms: C_1  and  N_2
REMARK    2  A    between atoms: N_4  and  C_5
REMARK    3  A    between atoms: C_5  and  C_6
REMARK    4  A    between atoms: C_15  and  C_16
REMARK                            x       y       z     vdW  Elec       q    Type
REMARK                         _______ _______ _______ _____ _____    ______ ____
ROOT
ATOM      1  C   UNL     1       2.037   4.608  21.347  0.00  0.00    +0.000 C 
ATOM      2  N   UNL     1       2.705   5.072  20.140  0.00  0.00    +0.000 N 
ATOM      3  C   UNL     1       2.643   6.391  19.666  0.00  0.00    +0.000 A 
ATOM      4  N   UNL     1       1.958   7.304  20.437  0.00  0.00    +0.000 N 
ATOM      5  N   UNL     1       3.177   6.790  18.536  0.00  0.00    +0.000 NA
ATOM      6  C   UNL     1       3.839   5.808  17.789  0.00  0.00    +0.000 A 
ATOM      7  C   UNL     1       4.512   6.022  16.555  0.00  0.00    +0.000 A 
ATOM      8  C   UNL     1       5.018   4.836  16.027  0.00  0.00    +0.000 A 
ATOM      9  S   UNL     1       4.716   3.519  17.110  0.00  0.00    +0.000 S 
ATOM     10  C   UNL     1       3.890   4.511  18.189  0.00  0.00    +0.000 A 
ATOM     11  C   UNL     1       3.298   4.044  19.397  0.00  0.00    +0.000 A 
ATOM     12  O   UNL     1       3.283   2.866  19.754  0.00  0.00    +0.000 OA
ATOM     13  H   UNL     1       2.119   7.253  21.436  0.00  0.00    +0.000 HD
ENDROOT
BRANCH   8  14
ATOM     14  C   UNL     1       5.765   4.567  14.781  0.00  0.00    +0.000 A 
ATOM     15  C   UNL     1       5.236   3.725  13.790  0.00  0.00    +0.000 A 
ATOM     16  C   UNL     1       5.911   3.541  12.576  0.00  0.00    +0.000 A 
ATOM     17  C   UNL     1       7.119   4.190  12.348  0.00  0.00    +0.000 A 
ATOM     18  F   UNL     1       7.748   4.033  11.176  0.00  0.00    +0.000 F 
ATOM     19  C   UNL     1       7.679   5.006  13.319  0.00  0.00    +0.000 A 
ATOM     20  C   UNL     1       7.010   5.182  14.532  0.00  0.00    +0.000 A 
ENDBRANCH   8  14
BRANCH   4  21
ATOM     21  C   UNL     1       1.632   8.641  19.974  0.00  0.00    +0.000 C 
BRANCH  21  22
ATOM     22  C   UNL     1       0.835   9.371  21.024  0.00  0.00    +0.000 A 
ATOM     23  C   UNL     1      -0.172  10.284  20.694  0.00  0.00    +0.000 A 
ATOM     24  C   UNL     1      -0.917  10.891  21.704  0.00  0.00    +0.000 A 
ATOM     25  C   UNL     1      -0.631  10.566  23.019  0.00  0.00    +0.000 A 
ATOM     26  N   UNL     1       0.330   9.693  23.379  0.00  0.00    +0.000 NA
ATOM     27  C   UNL     1       1.031   9.109  22.378  0.00  0.00    +0.000 A 
ENDBRANCH  21  22
ENDBRANCH   4  21
TORSDOF 3
ENDMDL
MODEL 2
REMARK VINA RESULT:      -8.5      0.573      1.336
REMARK  Name = 
REMARK  4 active torsions:
REMARK  status: ('A' for Active; 'I' for Inactive)
REMARK    1  A    between atoms: C_1  and  N_2
REMARK    2  A    between atoms: N_4  and  C_5
REMARK    3  A    between atoms: C_5  and  C_6
REMARK    4  A    between atoms: C_15  and  C_16
REMARK                            x       y       z     vdW  Elec       q    Type
REMARK                         _______ _______ _______ _____ _____    ______ ____
ROOT
ATOM      1  C   UNL     1       2.149   4.580  21.327  0.00  0.00    +0.000 C 
ATOM      2  N   UNL     1       2.776   5.061  20.106  0.00  0.00    +0.000 N 
ATOM      3  C   UNL     1       2.677   6.381  19.641  0.00  0.00    +0.000 A 
ATOM      4  N   UNL     1       1.996   7.278  20.434  0.00  0.00    +0.000 N 
ATOM      5  N   UNL     1       3.175   6.796  18.499  0.00  0.00    +0.000 NA
ATOM      6  C   UNL     1       3.835   5.830  17.730  0.00  0.00    +0.000 A 
ATOM      7  C   UNL     1       4.472   6.063  16.480  0.00  0.00    +0.000 A 
ATOM      8  C   UNL     1       4.986   4.889  15.933  0.00  0.00    +0.000 A 
ATOM      9  S   UNL     1       4.737   3.562  17.016  0.00  0.00    +0.000 S 
ATOM     10  C   UNL     1       3.921   4.533  18.122  0.00  0.00    +0.000 A 
ATOM     11  C   UNL     1       3.369   4.048  19.342  0.00  0.00    +0.000 A 
ATOM     12  O   UNL     1       3.385   2.868  19.693  0.00  0.00    +0.000 OA
ATOM     13  H   UNL     1       2.183   7.225  21.428  0.00  0.00    +0.000 HD
ENDROOT
BRANCH   8  14
ATOM     14  C   UNL     1       5.706   4.641  14.667  0.00  0.00    +0.000 A 
ATOM     15  C   UNL     1       6.968   5.209  14.432  0.00  0.00    +0.000 A 
ATOM     16  C   UNL     1       7.682   4.903  13.266  0.00  0.00    +0.000 A 
ATOM     17  C   UNL     1       7.137   4.035  12.327  0.00  0.00    +0.000 A 
ATOM     18  F   UNL     1       7.833   3.724  11.225  0.00  0.00    +0.000 F 
ATOM     19  C   UNL     1       5.882   3.481  12.519  0.00  0.00    +0.000 A 
ATOM     20  C   UNL     1       5.167   3.793  13.677  0.00  0.00    +0.000 A 
ENDBRANCH   8  14
BRANCH   4  21
ATOM     21  C   UNL     1       1.633   8.610  19.986  0.00  0.00    +0.000 C 
BRANCH  21  22
ATOM     22  C   UNL     1       0.749   9.276  21.010  0.00  0.00    +0.000 A 
ATOM     23  C   UNL     1       0.734   8.878  22.351  0.00  0.00    +0.000 A 
ATOM     24  C   UNL     1      -0.060   9.565  23.269  0.00  0.00    +0.000 A 
ATOM     25  C   UNL     1      -0.819  10.631  22.816  0.00  0.00    +0.000 A 
ATOM     26  N   UNL     1      -0.832  11.045  21.534  0.00  0.00    +0.000 NA
ATOM     27  C   UNL     1      -0.042  10.368  20.666  0.00  0.00    +0.000 A 
ENDBRANCH  21  22
ENDBRANCH   4  21
TORSDOF 3
ENDMDL
MODEL 3
REMARK VINA RESULT:      -8.3      4.131      8.204
REMARK  Name = 
REMARK  4 active torsions:
REMARK  status: ('A' for Active; 'I' for Inactive)
REMARK    1  A    between atoms: C_1  and  N_2
REMARK    2  A    between atoms: N_4  and  C_5
REMARK    3  A    between atoms: C_5  and  C_6
REMARK    4  A    between atoms: C_15  and  C_16
REMARK                            x       y       z     vdW  Elec       q    Type
REMARK                         _______ _______ _______ _____ _____    ______ ____
ROOT
ATOM      1  C   UNL     1       3.680   1.585  18.630  0.00  0.00    +0.000 C 
ATOM      2  N   UNL     1       3.442   3.021  18.610  0.00  0.00    +0.000 N 
ATOM      3  C   UNL     1       4.104   3.914  17.754  0.00  0.00    +0.000 A 
ATOM      4  N   UNL     1       4.980   3.375  16.838  0.00  0.00    +0.000 N 
ATOM      5  N   UNL     1       3.949   5.217  17.792  0.00  0.00    +0.000 NA
ATOM      6  C   UNL     1       3.062   5.702  18.760  0.00  0.00    +0.000 A 
ATOM      7  C   UNL     1       2.723   7.069  18.960  0.00  0.00    +0.000 A 
ATOM      8  C   UNL     1       1.861   7.237  20.041  0.00  0.00    +0.000 A 
ATOM      9  S   UNL     1       1.440   5.701  20.719  0.00  0.00    +0.000 S 
ATOM     10  C   UNL     1       2.430   4.879  19.636  0.00  0.00    +0.000 A 
ATOM     11  C   UNL     1       2.598   3.464  19.636  0.00  0.00    +0.000 A 
ATOM     12  O   UNL     1       2.080   2.702  20.452  0.00  0.00    +0.000 OA
ATOM     13  H   UNL     1       4.668   2.536  16.365  0.00  0.00    +0.000 HD
ENDROOT
BRANCH   8  14
ATOM     14  C   UNL     1       1.260   8.454  20.625  0.00  0.00    +0.000 A 
ATOM     15  C   UNL     1       0.855   9.522  19.807  0.00  0.00    +0.000 A 
ATOM     16  C   UNL     1       0.210  10.636  20.357  0.00  0.00    +0.000 A 
ATOM     17  C   UNL     1      -0.027  10.696  21.725  0.00  0.00    +0.000 A 
ATOM     18  F   UNL     1      -0.668  11.751  22.245  0.00  0.00    +0.000 F 
ATOM     19  C   UNL     1       0.386   9.670  22.561  0.00  0.00    +0.000 A 
ATOM     20  C   UNL     1       1.036   8.562  22.013  0.00  0.00    +0.000 A 
ENDBRANCH   8  14
BRANCH   4  21
ATOM     21  C   UNL     1       5.885   4.183  16.042  0.00  0.00    +0.000 C 
BRANCH  21  22
ATOM     22  C   UNL     1       6.701   5.079  16.938  0.00  0.00    +0.000 A 
ATOM     23  C   UNL     1       6.773   6.462  16.741  0.00  0.00    +0.000 A 
ATOM     24  C   UNL     1       7.498   7.253  17.632  0.00  0.00    +0.000 A 
ATOM     25  C   UNL     1       8.132   6.634  18.696  0.00  0.00    +0.000 A 
ATOM     26  N   UNL     1       8.087   5.306  18.921  0.00  0.00    +0.000 NA
ATOM     27  C   UNL     1       7.367   4.564  18.047  0.00  0.00    +0.000 A 
ENDBRANCH  21  22
ENDBRANCH   4  21
TORSDOF 3
ENDMDL
MODEL 4
REMARK VINA RESULT:      -8.1      6.195     10.703
REMARK  Name = 
REMARK  4 active torsions:
REMARK  status: ('A' for Active; 'I' for Inactive)
REMARK    1  A    between atoms: C_1  and  N_2
REMARK    2  A    between atoms: N_4  and  C_5
REMARK    3  A    between atoms: C_5  and  C_6
REMARK    4  A    between atoms: C_15  and  C_16
REMARK                            x       y       z     vdW  Elec       q    Type
REMARK                         _______ _______ _______ _____ _____    ______ ____
ROOT
ATOM      1  C   UNL     1       2.440   8.447  17.844  0.00  0.00    +0.000 C 
ATOM      2  N   UNL     1       1.803   8.817  19.100  0.00  0.00    +0.000 N 
ATOM      3  C   UNL     1       1.657   7.948  20.191  0.00  0.00    +0.000 A 
ATOM      4  N   UNL     1       2.214   6.694  20.075  0.00  0.00    +0.000 N 
ATOM      5  N   UNL     1       1.012   8.255  21.293  0.00  0.00    +0.000 NA
ATOM      6  C   UNL     1       0.450   9.537  21.338  0.00  0.00    +0.000 A 
ATOM      7  C   UNL     1      -0.263  10.088  22.438  0.00  0.00    +0.000 A 
ATOM      8  C   UNL     1      -0.751  11.361  22.154  0.00  0.00    +0.000 A 
ATOM      9  S   UNL     1      -0.244  11.861  20.576  0.00  0.00    +0.000 S 
ATOM     10  C   UNL     1       0.532  10.396  20.290  0.00  0.00    +0.000 A 
ATOM     11  C   UNL     1       1.203  10.082  19.074  0.00  0.00    +0.000 A 
ATOM     12  O   UNL     1       1.244  10.822  18.090  0.00  0.00    +0.000 OA
ATOM     13  H   UNL     1       3.138   6.653  19.662  0.00  0.00    +0.000 HD
ENDROOT
BRANCH   8  14
ATOM     14  C   UNL     1      -1.547  12.301  22.970  0.00  0.00    +0.000 A 
ATOM     15  C   UNL     1      -1.048  13.572  23.299  0.00  0.00    +0.000 A 
ATOM     16  C   UNL     1      -1.840  14.489  24.001  0.00  0.00    +0.000 A 
ATOM     17  C   UNL     1      -3.130  14.141  24.385  0.00  0.00    +0.000 A 
ATOM     18  F   UNL     1      -3.895  15.029  25.033  0.00  0.00    +0.000 F 
ATOM     19  C   UNL     1      -3.640  12.884  24.098  0.00  0.00    +0.000 A 
ATOM     20  C   UNL     1      -2.846  11.967  23.405  0.00  0.00    +0.000 A 
ENDBRANCH   8  14
BRANCH   4  21
ATOM     21  C   UNL     1       1.962   5.627  21.026  0.00  0.00    +0.000 C 
BRANCH  21  22
ATOM     22  C   UNL     1       1.989   4.293  20.325  0.00  0.00    +0.000 A 
ATOM     23  C   UNL     1       0.823   3.660  19.883  0.00  0.00    +0.000 A 
ATOM     24  C   UNL     1       0.908   2.453  19.189  0.00  0.00    +0.000 A 
ATOM     25  C   UNL     1       2.162   1.913  18.961  0.00  0.00    +0.000 A 
ATOM     26  N   UNL     1       3.309   2.490  19.370  0.00  0.00    +0.000 NA
ATOM     27  C   UNL     1       3.198   3.667  20.030  0.00  0.00    +0.000 A 
ENDBRANCH  21  22
ENDBRANCH   4  21
TORSDOF 3
ENDMDL
MODEL 5
REMARK VINA RESULT:      -8.1      3.937      9.276
REMARK  Name = 
REMARK  4 active torsions:
REMARK  status: ('A' for Active; 'I' for Inactive)
REMARK    1  A    between atoms: C_1  and  N_2
REMARK    2  A    between atoms: N_4  and  C_5
REMARK    3  A    between atoms: C_5  and  C_6
REMARK    4  A    between atoms: C_15  and  C_16
REMARK                            x       y       z     vdW  Elec       q    Type
REMARK                         _______ _______ _______ _____ _____    ______ ____
ROOT
ATOM      1  C   UNL     1       3.876   2.243  18.034  0.00  0.00    +0.000 C 
ATOM      2  N   UNL     1       3.551   3.653  18.184  0.00  0.00    +0.000 N 
ATOM      3  C   UNL     1       4.155   4.680  17.443  0.00  0.00    +0.000 A 
ATOM      4  N   UNL     1       5.059   4.308  16.473  0.00  0.00    +0.000 N 
ATOM      5  N   UNL     1       3.922   5.958  17.634  0.00  0.00    +0.000 NA
ATOM      6  C   UNL     1       3.010   6.270  18.650  0.00  0.00    +0.000 A 
ATOM      7  C   UNL     1       2.589   7.580  19.009  0.00  0.00    +0.000 A 
ATOM      8  C   UNL     1       1.723   7.566  20.100  0.00  0.00    +0.000 A 
ATOM      9  S   UNL     1       1.397   5.937  20.588  0.00  0.00    +0.000 S 
ATOM     10  C   UNL     1       2.432   5.311  19.419  0.00  0.00    +0.000 A 
ATOM     11  C   UNL     1       2.685   3.920  19.252  0.00  0.00    +0.000 A 
ATOM     12  O   UNL     1       2.217   3.036  19.970  0.00  0.00    +0.000 OA
ATOM     13  H   UNL     1       4.798   3.514  15.902  0.00  0.00    +0.000 HD
ENDROOT
BRANCH   8  14
ATOM     14  C   UNL     1       1.051   8.667  20.821  0.00  0.00    +0.000 A 
ATOM     15  C   UNL     1       0.380   9.683  20.122  0.00  0.00    +0.000 A 
ATOM     16  C   UNL     1      -0.325  10.677  20.813  0.00  0.00    +0.000 A 
ATOM     17  C   UNL     1      -0.359  10.666  22.202  0.00  0.00    +0.000 A 
ATOM     18  F   UNL     1      -1.057  11.602  22.859  0.00  0.00    +0.000 F 
ATOM     19  C   UNL     1       0.316   9.691  22.920  0.00  0.00    +0.000 A 
ATOM     20  C   UNL     1       1.026   8.705  22.231  0.00  0.00    +0.000 A 
ENDBRANCH   8  14
BRANCH   4  21
ATOM     21  C   UNL     1       5.911   5.258  15.782  0.00  0.00    +0.000 C 
BRANCH  21  22
ATOM     22  C   UNL     1       6.280   4.726  14.420  0.00  0.00    +0.000 A 
ATOM     23  C   UNL     1       5.498   3.775  13.756  0.00  0.00    +0.000 A 
ATOM     24  C   UNL     1       5.854   3.358  12.474  0.00  0.00    +0.000 A 
ATOM     25  C   UNL     1       6.986   3.906  11.893  0.00  0.00    +0.000 A 
ATOM     26  N   UNL     1       7.765   4.824  12.499  0.00  0.00    +0.000 NA
ATOM     27  C   UNL     1       7.389   5.220  13.739  0.00  0.00    +0.000 A 
ENDBRANCH  21  22
ENDBRANCH   4  21
TORSDOF 3
ENDMDL
MODEL 6
REMARK VINA RESULT:      -8.1      3.879      8.765
REMARK  Name = 
REMARK  4 active torsions:
REMARK  status: ('A' for Active; 'I' for Inactive)
REMARK    1  A    between atoms: C_1  and  N_2
REMARK    2  A    between atoms: N_4  and  C_5
REMARK    3  A    between atoms: C_5  and  C_6
REMARK    4  A    between atoms: C_15  and  C_16
REMARK                            x       y       z     vdW  Elec       q    Type
REMARK                         _______ _______ _______ _____ _____    ______ ____
ROOT
ATOM      1  C   UNL     1       4.437   1.986  19.885  0.00  0.00    +0.000 C 
ATOM      2  N   UNL     1       4.080   3.377  19.647  0.00  0.00    +0.000 N 
ATOM      3  C   UNL     1       4.858   4.269  18.893  0.00  0.00    +0.000 A 
ATOM      4  N   UNL     1       5.990   3.764  18.293  0.00  0.00    +0.000 N 
ATOM      5  N   UNL     1       4.577   5.543  18.746  0.00  0.00    +0.000 NA
ATOM      6  C   UNL     1       3.425   5.997  19.399  0.00  0.00    +0.000 A 
ATOM      7  C   UNL     1       2.919   7.326  19.354  0.00  0.00    +0.000 A 
ATOM      8  C   UNL     1       1.792   7.479  20.157  0.00  0.00    +0.000 A 
ATOM      9  S   UNL     1       1.352   5.965  20.872  0.00  0.00    +0.000 S 
ATOM     10  C   UNL     1       2.665   5.179  20.172  0.00  0.00    +0.000 A 
ATOM     11  C   UNL     1       2.958   3.800  20.371  0.00  0.00    +0.000 A 
ATOM     12  O   UNL     1       2.317   3.052  21.109  0.00  0.00    +0.000 OA
ATOM     13  H   UNL     1       5.894   2.857  17.853  0.00  0.00    +0.000 HD
ENDROOT
BRANCH   8  14
ATOM     14  C   UNL     1       0.948   8.660  20.432  0.00  0.00    +0.000 A 
ATOM     15  C   UNL     1       0.363   8.851  21.694  0.00  0.00    +0.000 A 
ATOM     16  C   UNL     1      -0.367  10.014  21.973  0.00  0.00    +0.000 A 
ATOM     17  C   UNL     1      -0.523  10.987  20.993  0.00  0.00    +0.000 A 
ATOM     18  F   UNL     1      -1.199  12.110  21.271  0.00  0.00    +0.000 F 
ATOM     19  C   UNL     1       0.019  10.814  19.729  0.00  0.00    +0.000 A 
ATOM     20  C   UNL     1       0.740   9.650  19.449  0.00  0.00    +0.000 A 
ENDBRANCH   8  14
BRANCH   4  21
ATOM     21  C   UNL     1       6.993   4.605  17.667  0.00  0.00    +0.000 C 
BRANCH  21  22
ATOM     22  C   UNL     1       6.869   4.528  16.167  0.00  0.00    +0.000 A 
ATOM     23  C   UNL     1       5.906   3.730  15.540  0.00  0.00    +0.000 A 
ATOM     24  C   UNL     1       5.796   3.739  14.150  0.00  0.00    +0.000 A 
ATOM     25  C   UNL     1       6.657   4.547  13.426  0.00  0.00    +0.000 A 
ATOM     26  N   UNL     1       7.597   5.330  13.992  0.00  0.00    +0.000 NA
ATOM     27  C   UNL     1       7.674   5.312  15.344  0.00  0.00    +0.000 A 
ENDBRANCH  21  22
ENDBRANCH   4  21
TORSDOF 3
ENDMDL
MODEL 7
REMARK VINA RESULT:      -8.0      4.115      8.195
REMARK  Name = 
REMARK  4 active torsions:
REMARK  status: ('A' for Active; 'I' for Inactive)
REMARK    1  A    between atoms: C_1  and  N_2
REMARK    2  A    between atoms: N_4  and  C_5
REMARK    3  A    between atoms: C_5  and  C_6
REMARK    4  A    between atoms: C_15  and  C_16
REMARK                            x       y       z     vdW  Elec       q    Type
REMARK                         _______ _______ _______ _____ _____    ______ ____
ROOT
ATOM      1  C   UNL     1       3.735   1.515  18.658  0.00  0.00    +0.000 C 
ATOM      2  N   UNL     1       3.480   2.947  18.618  0.00  0.00    +0.000 N 
ATOM      3  C   UNL     1       4.132   3.836  17.750  0.00  0.00    +0.000 A 
ATOM      4  N   UNL     1       5.014   3.294  16.842  0.00  0.00    +0.000 N 
ATOM      5  N   UNL     1       3.961   5.137  17.769  0.00  0.00    +0.000 NA
ATOM      6  C   UNL     1       3.068   5.626  18.730  0.00  0.00    +0.000 A 
ATOM      7  C   UNL     1       2.712   6.990  18.910  0.00  0.00    +0.000 A 
ATOM      8  C   UNL     1       1.848   7.163  19.989  0.00  0.00    +0.000 A 
ATOM      9  S   UNL     1       1.445   5.632  20.689  0.00  0.00    +0.000 S 
ATOM     10  C   UNL     1       2.446   4.807  19.618  0.00  0.00    +0.000 A 
ATOM     11  C   UNL     1       2.630   3.395  19.638  0.00  0.00    +0.000 A 
ATOM     12  O   UNL     1       2.122   2.638  20.465  0.00  0.00    +0.000 OA
ATOM     13  H   UNL     1       4.713   2.445  16.381  0.00  0.00    +0.000 HD
ENDROOT
BRANCH   8  14
ATOM     14  C   UNL     1       1.232   8.382  20.555  0.00  0.00    +0.000 A 
ATOM     15  C   UNL     1       0.924   8.465  21.923  0.00  0.00    +0.000 A 
ATOM     16  C   UNL     1       0.418   9.652  22.468  0.00  0.00    +0.000 A 
ATOM     17  C   UNL     1       0.211  10.758  21.652  0.00  0.00    +0.000 A 
ATOM     18  F   UNL     1      -0.248  11.900  22.182  0.00  0.00    +0.000 F 
ATOM     19  C   UNL     1       0.481  10.697  20.294  0.00  0.00    +0.000 A 
ATOM     20  C   UNL     1       0.977   9.510  19.749  0.00  0.00    +0.000 A 
ENDBRANCH   8  14
BRANCH   4  21
ATOM     21  C   UNL     1       5.910   4.102  16.034  0.00  0.00    +0.000 C 
BRANCH  21  22
ATOM     22  C   UNL     1       6.627   5.103  16.903  0.00  0.00    +0.000 A 
ATOM     23  C   UNL     1       7.328   4.724  18.053  0.00  0.00    +0.000 A 
ATOM     24  C   UNL     1       8.022   5.683  18.790  0.00  0.00    +0.000 A 
ATOM     25  C   UNL     1       7.992   6.997  18.354  0.00  0.00    +0.000 A 
ATOM     26  N   UNL     1       7.330   7.402  17.253  0.00  0.00    +0.000 NA
ATOM     27  C   UNL     1       6.675   6.449  16.549  0.00  0.00    +0.000 A 
ENDBRANCH  21  22
ENDBRANCH   4  21
TORSDOF 3
ENDMDL
MODEL 8
REMARK VINA RESULT:      -8.0      3.569      5.075
REMARK  Name = 
REMARK  4 active torsions:
REMARK  status: ('A' for Active; 'I' for Inactive)
REMARK    1  A    between atoms: C_1  and  N_2
REMARK    2  A    between atoms: N_4  and  C_5
REMARK    3  A    between atoms: C_5  and  C_6
REMARK    4  A    between atoms: C_15  and  C_16
REMARK                            x       y       z     vdW  Elec       q    Type
REMARK                         _______ _______ _______ _____ _____    ______ ____
ROOT
ATOM      1  C   UNL     1      -0.398  10.382  22.045  0.00  0.00    +0.000 C 
ATOM      2  N   UNL     1       0.328   9.940  20.864  0.00  0.00    +0.000 N 
ATOM      3  C   UNL     1       0.225  10.551  19.606  0.00  0.00    +0.000 A 
ATOM      4  N   UNL     1      -0.564  11.676  19.516  0.00  0.00    +0.000 N 
ATOM      5  N   UNL     1       0.817  10.104  18.522  0.00  0.00    +0.000 NA
ATOM      6  C   UNL     1       1.586   8.945  18.677  0.00  0.00    +0.000 A 
ATOM      7  C   UNL     1       2.333   8.305  17.650  0.00  0.00    +0.000 A 
ATOM      8  C   UNL     1       2.943   7.137  18.102  0.00  0.00    +0.000 A 
ATOM      9  S   UNL     1       2.639   6.915  19.792  0.00  0.00    +0.000 S 
ATOM     10  C   UNL     1       1.682   8.297  19.867  0.00  0.00    +0.000 A 
ATOM     11  C   UNL     1       1.032   8.743  21.053  0.00  0.00    +0.000 A 
ATOM     12  O   UNL     1       1.058   8.145  22.128  0.00  0.00    +0.000 OA
ATOM     13  H   UNL     1      -0.474  12.345  20.271  0.00  0.00    +0.000 HD
ENDROOT
BRANCH   8  14
ATOM     14  C   UNL     1       3.793   6.152  17.403  0.00  0.00    +0.000 A 
ATOM     15  C   UNL     1       3.562   4.773  17.541  0.00  0.00    +0.000 A 
ATOM     16  C   UNL     1       4.318   3.847  16.811  0.00  0.00    +0.000 A 
ATOM     17  C   UNL     1       5.310   4.290  15.945  0.00  0.00    +0.000 A 
ATOM     18  F   UNL     1       6.013   3.403  15.227  0.00  0.00    +0.000 F 
ATOM     19  C   UNL     1       5.579   5.643  15.808  0.00  0.00    +0.000 A 
ATOM     20  C   UNL     1       4.831   6.565  16.543  0.00  0.00    +0.000 A 
ENDBRANCH   8  14
BRANCH   4  21
ATOM     21  C   UNL     1      -0.932  12.283  18.250  0.00  0.00    +0.000 C 
BRANCH  21  22
ATOM     22  C   UNL     1      -2.301  11.814  17.830  0.00  0.00    +0.000 A 
ATOM     23  C   UNL     1      -3.405  11.877  18.688  0.00  0.00    +0.000 A 
ATOM     24  C   UNL     1      -4.662  11.481  18.231  0.00  0.00    +0.000 A 
ATOM     25  C   UNL     1      -4.777  11.032  16.926  0.00  0.00    +0.000 A 
ATOM     26  N   UNL     1      -3.739  10.957  16.069  0.00  0.00    +0.000 NA
ATOM     27  C   UNL     1      -2.533  11.358  16.535  0.00  0.00    +0.000 A 
ENDBRANCH  21  22
ENDBRANCH   4  21
TORSDOF 3
ENDMDL
MODEL 9
REMARK VINA RESULT:      -7.8      3.921      9.088
REMARK  Name = 
REMARK  4 active torsions:
REMARK  status: ('A' for Active; 'I' for Inactive)
REMARK    1  A    between atoms: C_1  and  N_2
REMARK    2  A    between atoms: N_4  and  C_5
REMARK    3  A    between atoms: C_5  and  C_6
REMARK    4  A    between atoms: C_15  and  C_16
REMARK                            x       y       z     vdW  Elec       q    Type
REMARK                         _______ _______ _______ _____ _____    ______ ____
ROOT
ATOM      1  C   UNL     1       4.060   1.706  17.933  0.00  0.00    +0.000 C 
ATOM      2  N   UNL     1       3.835   3.135  18.081  0.00  0.00    +0.000 N 
ATOM      3  C   UNL     1       4.635   4.122  17.485  0.00  0.00    +0.000 A 
ATOM      4  N   UNL     1       5.650   3.693  16.658  0.00  0.00    +0.000 N 
ATOM      5  N   UNL     1       4.482   5.410  17.684  0.00  0.00    +0.000 NA
ATOM      6  C   UNL     1       3.447   5.778  18.552  0.00  0.00    +0.000 A 
ATOM      7  C   UNL     1       3.085   7.112  18.887  0.00  0.00    +0.000 A 
ATOM      8  C   UNL     1       2.055   7.150  19.824  0.00  0.00    +0.000 A 
ATOM      9  S   UNL     1       1.519   5.546  20.194  0.00  0.00    +0.000 S 
ATOM     10  C   UNL     1       2.674   4.857  19.182  0.00  0.00    +0.000 A 
ATOM     11  C   UNL     1       2.833   3.453  19.006  0.00  0.00    +0.000 A 
ATOM     12  O   UNL     1       2.182   2.598  19.607  0.00  0.00    +0.000 OA
ATOM     13  H   UNL     1       5.419   2.938  16.024  0.00  0.00    +0.000 HD
ENDROOT
BRANCH   8  14
ATOM     14  C   UNL     1       1.369   8.289  20.469  0.00  0.00    +0.000 A 
ATOM     15  C   UNL     1       1.030   9.436  19.734  0.00  0.00    +0.000 A 
ATOM     16  C   UNL     1       0.307  10.477  20.331  0.00  0.00    +0.000 A 
ATOM     17  C   UNL     1      -0.076  10.381  21.664  0.00  0.00    +0.000 A 
ATOM     18  F   UNL     1      -0.790  11.366  22.224  0.00  0.00    +0.000 F 
ATOM     19  C   UNL     1       0.268   9.273  22.422  0.00  0.00    +0.000 A 
ATOM     20  C   UNL     1       0.997   8.239  21.828  0.00  0.00    +0.000 A 
ENDBRANCH   8  14
BRANCH   4  21
ATOM     21  C   UNL     1       6.680   4.579  16.148  0.00  0.00    +0.000 C 
BRANCH  21  22
ATOM     22  C   UNL     1       6.752   4.476  14.646  0.00  0.00    +0.000 A 
ATOM     23  C   UNL     1       7.653   5.234  13.890  0.00  0.00    +0.000 A 
ATOM     24  C   UNL     1       7.718   5.060  12.508  0.00  0.00    +0.000 A 
ATOM     25  C   UNL     1       6.875   4.130  11.922  0.00  0.00    +0.000 A 
ATOM     26  N   UNL     1       5.994   3.381  12.613  0.00  0.00    +0.000 NA
ATOM     27  C   UNL     1       5.961   3.563  13.955  0.00  0.00    +0.000 A 
ENDBRANCH  21  22
ENDBRANCH   4  21
TORSDOF 3
ENDMDL
