MODEL 1
REMARK VINA RESULT:      -7.8      0.000      0.000
REMARK  Name = 
REMARK  4 active torsions:
REMARK  status: ('A' for Active; 'I' for Inactive)
REMARK    1  A    between atoms: C_1  and  O_2
REMARK    2  A    between atoms: O_2  and  C_3
REMARK    3  A    between atoms: C_4  and  C_5
REMARK    4  A    between atoms: C_8  and  C_9
REMARK                            x       y       z     vdW  Elec       q    Type
REMARK                         _______ _______ _______ _____ _____    ______ ____
ROOT
ATOM      1  C   UNL     1       3.802   4.443  19.411  0.00  0.00    +0.000 A 
ATOM      2  C   UNL     1       4.446   3.659  18.413  0.00  0.00    +0.000 A 
ATOM      3  C   UNL     1       4.140   2.296  18.271  0.00  0.00    +0.000 A 
ATOM      4  C   UNL     1       3.192   1.671  19.084  0.00  0.00    +0.000 A 
ATOM      5  C   UNL     1       2.556   2.470  20.027  0.00  0.00    +0.000 A 
ATOM      6  O   UNL     1       1.590   2.029  20.878  0.00  0.00    +0.000 OA
ATOM      7  C   UNL     1       1.192   3.096  21.611  0.00  0.00    +0.000 A 
ATOM      8  C   UNL     1       1.889   4.220  21.238  0.00  0.00    +0.000 A 
ATOM      9  C   UNL     1       2.809   3.825  20.216  0.00  0.00    +0.000 A 
ENDROOT
BRANCH   2  10
ATOM     10  C   UNL     1       5.463   4.246  17.494  0.00  0.00    +0.000 C 
ATOM     11  N   UNL     1       6.736   4.211  17.714  0.00  0.00    +0.000 NA
ATOM     12  O   UNL     1       7.387   4.893  16.662  0.00  0.00    +0.000 OA
ATOM     13  C   UNL     1       6.411   5.409  15.745  0.00  0.00    +0.000 C 
ATOM     14  C   UNL     1       5.062   4.916  16.221  0.00  0.00    +0.000 C 
BRANCH  13  15
ATOM     15  C   UNL     1       6.729   4.976  14.328  0.00  0.00    +0.000 A 
ATOM     16  C   UNL     1       5.978   3.983  13.695  0.00  0.00    +0.000 A 
ATOM     17  C   UNL     1       6.313   3.596  12.401  0.00  0.00    +0.000 A 
ATOM     18  C   UNL     1       7.385   4.208  11.766  0.00  0.00    +0.000 A 
ATOM     19  C   UNL     1       8.068   5.199  12.448  0.00  0.00    +0.000 A 
ATOM     20  N   UNL     1       7.759   5.604  13.702  0.00  0.00    +0.000 NA
ENDBRANCH  13  15
ENDBRANCH   2  10
BRANCH   1  22
ATOM     21  C   UNL     1       3.073   6.669  18.978  0.00  0.00    +0.000 C 
ATOM     22  O   UNL     1       4.094   5.796  19.449  0.00  0.00    +0.000 OA
ENDBRANCH   1  22
TORSDOF 3
ENDMDL
MODEL 2
REMARK VINA RESULT:      -7.7      1.980      3.594
REMARK  Name = 
REMARK  4 active torsions:
REMARK  status: ('A' for Active; 'I' for Inactive)
REMARK    1  A    between atoms: C_1  and  O_2
REMARK    2  A    between atoms: O_2  and  C_3
REMARK    3  A    between atoms: C_4  and  C_5
REMARK    4  A    between atoms: C_8  and  C_9
REMARK                            x       y       z     vdW  Elec       q    Type
REMARK                         _______ _______ _______ _____ _____    ______ ____
ROOT
ATOM      1  C   UNL     1       2.924   6.421  19.265  0.00  0.00    +0.000 A 
ATOM      2  C   UNL     1       3.426   6.615  17.948  0.00  0.00    +0.000 A 
ATOM      3  C   UNL     1       3.071   7.758  17.212  0.00  0.00    +0.000 A 
ATOM      4  C   UNL     1       2.237   8.741  17.745  0.00  0.00    +0.000 A 
ATOM      5  C   UNL     1       1.789   8.541  19.046  0.00  0.00    +0.000 A 
ATOM      6  O   UNL     1       0.994   9.410  19.725  0.00  0.00    +0.000 OA
ATOM      7  C   UNL     1       0.804   8.891  20.961  0.00  0.00    +0.000 A 
ATOM      8  C   UNL     1       1.473   7.697  21.086  0.00  0.00    +0.000 A 
ATOM      9  C   UNL     1       2.105   7.435  19.830  0.00  0.00    +0.000 A 
ENDROOT
BRANCH   2  10
ATOM     10  C   UNL     1       4.332   5.621  17.303  0.00  0.00    +0.000 C 
ATOM     11  N   UNL     1       4.079   4.356  17.234  0.00  0.00    +0.000 NA
ATOM     12  O   UNL     1       5.166   3.720  16.596  0.00  0.00    +0.000 OA
ATOM     13  C   UNL     1       6.175   4.691  16.280  0.00  0.00    +0.000 C 
ATOM     14  C   UNL     1       5.614   6.043  16.666  0.00  0.00    +0.000 C 
BRANCH  13  15
ATOM     15  C   UNL     1       6.555   4.608  14.815  0.00  0.00    +0.000 A 
ATOM     16  C   UNL     1       5.862   3.768  13.941  0.00  0.00    +0.000 A 
ATOM     17  C   UNL     1       6.253   3.701  12.607  0.00  0.00    +0.000 A 
ATOM     18  C   UNL     1       7.321   4.475  12.173  0.00  0.00    +0.000 A 
ATOM     19  C   UNL     1       7.944   5.301  13.092  0.00  0.00    +0.000 A 
ATOM     20  N   UNL     1       7.580   5.394  14.392  0.00  0.00    +0.000 NA
ENDBRANCH  13  15
ENDBRANCH   2  10
BRANCH   1  22
ATOM     21  C   UNL     1       2.366   4.400  20.395  0.00  0.00    +0.000 C 
ATOM     22  O   UNL     1       3.370   5.312  19.964  0.00  0.00    +0.000 OA
ENDBRANCH   1  22
TORSDOF 3
ENDMDL
MODEL 3
REMARK VINA RESULT:      -7.5      1.132      2.074
REMARK  Name = 
REMARK  4 active torsions:
REMARK  status: ('A' for Active; 'I' for Inactive)
REMARK    1  A    between atoms: C_1  and  O_2
REMARK    2  A    between atoms: O_2  and  C_3
REMARK    3  A    between atoms: C_4  and  C_5
REMARK    4  A    between atoms: C_8  and  C_9
REMARK                            x       y       z     vdW  Elec       q    Type
REMARK                         _______ _______ _______ _____ _____    ______ ____
ROOT
ATOM      1  C   UNL     1       3.863   3.501  19.048  0.00  0.00    +0.000 A 
ATOM      2  C   UNL     1       4.339   4.773  18.624  0.00  0.00    +0.000 A 
ATOM      3  C   UNL     1       3.734   5.952  19.091  0.00  0.00    +0.000 A 
ATOM      4  C   UNL     1       2.668   5.919  19.991  0.00  0.00    +0.000 A 
ATOM      5  C   UNL     1       2.246   4.664  20.414  0.00  0.00    +0.000 A 
ATOM      6  O   UNL     1       1.241   4.453  21.306  0.00  0.00    +0.000 OA
ATOM      7  C   UNL     1       1.151   3.115  21.491  0.00  0.00    +0.000 A 
ATOM      8  C   UNL     1       2.090   2.461  20.729  0.00  0.00    +0.000 A 
ATOM      9  C   UNL     1       2.803   3.460  19.994  0.00  0.00    +0.000 A 
ENDROOT
BRANCH   2  10
ATOM     10  C   UNL     1       5.480   4.903  17.673  0.00  0.00    +0.000 C 
ATOM     11  N   UNL     1       6.653   4.404  17.885  0.00  0.00    +0.000 NA
ATOM     12  O   UNL     1       7.487   4.754  16.800  0.00  0.00    +0.000 OA
ATOM     13  C   UNL     1       6.751   5.561  15.867  0.00  0.00    +0.000 C 
ATOM     14  C   UNL     1       5.327   5.624  16.375  0.00  0.00    +0.000 C 
BRANCH  13  15
ATOM     15  C   UNL     1       6.853   4.986  14.468  0.00  0.00    +0.000 A 
ATOM     16  C   UNL     1       6.022   3.939  14.061  0.00  0.00    +0.000 A 
ATOM     17  C   UNL     1       6.159   3.422  12.776  0.00  0.00    +0.000 A 
ATOM     18  C   UNL     1       7.115   3.961  11.926  0.00  0.00    +0.000 A 
ATOM     19  C   UNL     1       7.886   5.011  12.392  0.00  0.00    +0.000 A 
ATOM     20  N   UNL     1       7.769   5.541  13.632  0.00  0.00    +0.000 NA
ENDBRANCH  13  15
ENDBRANCH   2  10
BRANCH   1  22
ATOM     21  C   UNL     1       3.756   1.349  18.034  0.00  0.00    +0.000 C 
ATOM     22  O   UNL     1       4.549   2.382  18.609  0.00  0.00    +0.000 OA
ENDBRANCH   1  22
TORSDOF 3
ENDMDL
MODEL 4
REMARK VINA RESULT:      -7.3      0.626      1.035
REMARK  Name = 
REMARK  4 active torsions:
REMARK  status: ('A' for Active; 'I' for Inactive)
REMARK    1  A    between atoms: C_1  and  O_2
REMARK    2  A    between atoms: O_2  and  C_3
REMARK    3  A    between atoms: C_4  and  C_5
REMARK    4  A    between atoms: C_8  and  C_9
REMARK                            x       y       z     vdW  Elec       q    Type
REMARK                         _______ _______ _______ _____ _____    ______ ____
ROOT
ATOM      1  C   UNL     1       3.816   4.426  19.303  0.00  0.00    +0.000 A 
ATOM      2  C   UNL     1       4.402   3.647  18.267  0.00  0.00    +0.000 A 
ATOM      3  C   UNL     1       4.045   2.298  18.100  0.00  0.00    +0.000 A 
ATOM      4  C   UNL     1       3.100   1.686  18.925  0.00  0.00    +0.000 A 
ATOM      5  C   UNL     1       2.520   2.480  19.907  0.00  0.00    +0.000 A 
ATOM      6  O   UNL     1       1.565   2.051  20.775  0.00  0.00    +0.000 OA
ATOM      7  C   UNL     1       1.225   3.110  21.546  0.00  0.00    +0.000 A 
ATOM      8  C   UNL     1       1.950   4.220  21.181  0.00  0.00    +0.000 A 
ATOM      9  C   UNL     1       2.825   3.821  20.122  0.00  0.00    +0.000 A 
ENDROOT
BRANCH   2  10
ATOM     10  C   UNL     1       5.412   4.222  17.333  0.00  0.00    +0.000 C 
ATOM     11  N   UNL     1       6.685   4.214  17.556  0.00  0.00    +0.000 NA
ATOM     12  O   UNL     1       7.328   4.875  16.487  0.00  0.00    +0.000 OA
ATOM     13  C   UNL     1       6.345   5.349  15.552  0.00  0.00    +0.000 C 
ATOM     14  C   UNL     1       5.003   4.847  16.041  0.00  0.00    +0.000 C 
BRANCH  13  15
ATOM     15  C   UNL     1       6.674   4.878  14.149  0.00  0.00    +0.000 A 
ATOM     16  C   UNL     1       7.667   5.508  13.396  0.00  0.00    +0.000 A 
ATOM     17  C   UNL     1       7.927   5.063  12.103  0.00  0.00    +0.000 A 
ATOM     18  C   UNL     1       7.197   3.999  11.593  0.00  0.00    +0.000 A 
ATOM     19  C   UNL     1       6.245   3.410  12.407  0.00  0.00    +0.000 A 
ATOM     20  N   UNL     1       5.977   3.815  13.670  0.00  0.00    +0.000 NA
ENDBRANCH  13  15
ENDBRANCH   2  10
BRANCH   1  22
ATOM     21  C   UNL     1       3.217   6.676  18.803  0.00  0.00    +0.000 C 
ATOM     22  O   UNL     1       4.155   5.766  19.367  0.00  0.00    +0.000 OA
ENDBRANCH   1  22
TORSDOF 3
ENDMDL
MODEL 5
REMARK VINA RESULT:      -7.2      1.242      1.839
REMARK  Name = 
REMARK  4 active torsions:
REMARK  status: ('A' for Active; 'I' for Inactive)
REMARK    1  A    between atoms: C_1  and  O_2
REMARK    2  A    between atoms: O_2  and  C_3
REMARK    3  A    between atoms: C_4  and  C_5
REMARK    4  A    between atoms: C_8  and  C_9
REMARK                            x       y       z     vdW  Elec       q    Type
REMARK                         _______ _______ _______ _____ _____    ______ ____
ROOT
ATOM      1  C   UNL     1       3.959   3.391  19.562  0.00  0.00    +0.000 A 
ATOM      2  C   UNL     1       3.908   4.182  18.381  0.00  0.00    +0.000 A 
ATOM      3  C   UNL     1       2.694   4.743  17.950  0.00  0.00    +0.000 A 
ATOM      4  C   UNL     1       1.510   4.560  18.666  0.00  0.00    +0.000 A 
ATOM      5  C   UNL     1       1.597   3.811  19.834  0.00  0.00    +0.000 A 
ATOM      6  O   UNL     1       0.548   3.559  20.663  0.00  0.00    +0.000 OA
ATOM      7  C   UNL     1       1.028   2.836  21.701  0.00  0.00    +0.000 A 
ATOM      8  C   UNL     1       2.378   2.622  21.552  0.00  0.00    +0.000 A 
ATOM      9  C   UNL     1       2.766   3.232  20.318  0.00  0.00    +0.000 A 
ENDROOT
BRANCH   2  10
ATOM     10  C   UNL     1       5.126   4.439  17.559  0.00  0.00    +0.000 C 
ATOM     11  N   UNL     1       6.289   3.937  17.820  0.00  0.00    +0.000 NA
ATOM     12  O   UNL     1       7.207   4.423  16.863  0.00  0.00    +0.000 OA
ATOM     13  C   UNL     1       6.537   5.321  15.965  0.00  0.00    +0.000 C 
ATOM     14  C   UNL     1       5.072   5.302  16.343  0.00  0.00    +0.000 C 
BRANCH  13  15
ATOM     15  C   UNL     1       6.779   4.912  14.525  0.00  0.00    +0.000 A 
ATOM     16  C   UNL     1       6.012   3.911  13.925  0.00  0.00    +0.000 A 
ATOM     17  C   UNL     1       6.277   3.547  12.608  0.00  0.00    +0.000 A 
ATOM     18  C   UNL     1       7.294   4.191  11.918  0.00  0.00    +0.000 A 
ATOM     19  C   UNL     1       7.996   5.189  12.571  0.00  0.00    +0.000 A 
ATOM     20  N   UNL     1       7.755   5.571  13.847  0.00  0.00    +0.000 NA
ENDBRANCH  13  15
ENDBRANCH   2  10
BRANCH   1  22
ATOM     21  C   UNL     1       5.240   1.591  20.451  0.00  0.00    +0.000 C 
ATOM     22  O   UNL     1       5.198   2.930  19.972  0.00  0.00    +0.000 OA
ENDBRANCH   1  22
TORSDOF 3
ENDMDL
MODEL 6
REMARK VINA RESULT:      -7.1      1.383      2.368
REMARK  Name = 
REMARK  4 active torsions:
REMARK  status: ('A' for Active; 'I' for Inactive)
REMARK    1  A    between atoms: C_1  and  O_2
REMARK    2  A    between atoms: O_2  and  C_3
REMARK    3  A    between atoms: C_4  and  C_5
REMARK    4  A    between atoms: C_8  and  C_9
REMARK                            x       y       z     vdW  Elec       q    Type
REMARK                         _______ _______ _______ _____ _____    ______ ____
ROOT
ATOM      1  C   UNL     1       3.445   3.539  18.299  0.00  0.00    +0.000 A 
ATOM      2  C   UNL     1       4.267   4.699  18.243  0.00  0.00    +0.000 A 
ATOM      3  C   UNL     1       4.010   5.795  19.084  0.00  0.00    +0.000 A 
ATOM      4  C   UNL     1       2.962   5.779  20.005  0.00  0.00    +0.000 A 
ATOM      5  C   UNL     1       2.197   4.620  20.060  0.00  0.00    +0.000 A 
ATOM      6  O   UNL     1       1.158   4.427  20.917  0.00  0.00    +0.000 OA
ATOM      7  C   UNL     1       0.692   3.175  20.698  0.00  0.00    +0.000 A 
ATOM      8  C   UNL     1       1.422   2.557  19.711  0.00  0.00    +0.000 A 
ATOM      9  C   UNL     1       2.400   3.499  19.260  0.00  0.00    +0.000 A 
ENDROOT
BRANCH   2  10
ATOM     10  C   UNL     1       5.415   4.798  17.296  0.00  0.00    +0.000 C 
ATOM     11  N   UNL     1       6.580   4.287  17.522  0.00  0.00    +0.000 NA
ATOM     12  O   UNL     1       7.424   4.608  16.437  0.00  0.00    +0.000 OA
ATOM     13  C   UNL     1       6.706   5.412  15.489  0.00  0.00    +0.000 C 
ATOM     14  C   UNL     1       5.280   5.502  15.987  0.00  0.00    +0.000 C 
BRANCH  13  15
ATOM     15  C   UNL     1       6.807   4.814  14.099  0.00  0.00    +0.000 A 
ATOM     16  C   UNL     1       7.701   5.331  13.159  0.00  0.00    +0.000 A 
ATOM     17  C   UNL     1       7.750   4.771  11.886  0.00  0.00    +0.000 A 
ATOM     18  C   UNL     1       6.914   3.707  11.580  0.00  0.00    +0.000 A 
ATOM     19  C   UNL     1       6.070   3.234  12.570  0.00  0.00    +0.000 A 
ATOM     20  N   UNL     1       6.007   3.752  13.819  0.00  0.00    +0.000 NA
ENDBRANCH  13  15
ENDBRANCH   2  10
BRANCH   1  22
ATOM     21  C   UNL     1       3.999   1.226  18.166  0.00  0.00    +0.000 C 
ATOM     22  O   UNL     1       3.797   2.466  17.497  0.00  0.00    +0.000 OA
ENDBRANCH   1  22
TORSDOF 3
ENDMDL
MODEL 7
REMARK VINA RESULT:      -7.0      2.260      3.915
REMARK  Name = 
REMARK  4 active torsions:
REMARK  status: ('A' for Active; 'I' for Inactive)
REMARK    1  A    between atoms: C_1  and  O_2
REMARK    2  A    between atoms: O_2  and  C_3
REMARK    3  A    between atoms: C_4  and  C_5
REMARK    4  A    between atoms: C_8  and  C_9
REMARK                            x       y       z     vdW  Elec       q    Type
REMARK                         _______ _______ _______ _____ _____    ______ ____
ROOT
ATOM      1  C   UNL     1       2.674   6.562  19.413  0.00  0.00    +0.000 A 
ATOM      2  C   UNL     1       3.166   6.691  18.084  0.00  0.00    +0.000 A 
ATOM      3  C   UNL     1       2.882   7.839  17.327  0.00  0.00    +0.000 A 
ATOM      4  C   UNL     1       2.129   8.891  17.850  0.00  0.00    +0.000 A 
ATOM      5  C   UNL     1       1.690   8.753  19.161  0.00  0.00    +0.000 A 
ATOM      6  O   UNL     1       0.970   9.692  19.832  0.00  0.00    +0.000 OA
ATOM      7  C   UNL     1       0.764   9.215  21.082  0.00  0.00    +0.000 A 
ATOM      8  C   UNL     1       1.348   7.979  21.225  0.00  0.00    +0.000 A 
ATOM      9  C   UNL     1       1.939   7.645  19.966  0.00  0.00    +0.000 A 
ENDROOT
BRANCH   2  10
ATOM     10  C   UNL     1       3.988   5.620  17.449  0.00  0.00    +0.000 C 
ATOM     11  N   UNL     1       3.592   4.398  17.308  0.00  0.00    +0.000 NA
ATOM     12  O   UNL     1       4.635   3.660  16.707  0.00  0.00    +0.000 OA
ATOM     13  C   UNL     1       5.771   4.514  16.496  0.00  0.00    +0.000 C 
ATOM     14  C   UNL     1       5.350   5.908  16.909  0.00  0.00    +0.000 C 
BRANCH  13  15
ATOM     15  C   UNL     1       6.231   4.442  15.053  0.00  0.00    +0.000 A 
ATOM     16  C   UNL     1       7.327   5.187  14.612  0.00  0.00    +0.000 A 
ATOM     17  C   UNL     1       7.707   5.112  13.275  0.00  0.00    +0.000 A 
ATOM     18  C   UNL     1       6.992   4.294  12.411  0.00  0.00    +0.000 A 
ATOM     19  C   UNL     1       5.932   3.568  12.926  0.00  0.00    +0.000 A 
ATOM     20  N   UNL     1       5.545   3.614  14.222  0.00  0.00    +0.000 NA
ENDBRANCH  13  15
ENDBRANCH   2  10
BRANCH   1  22
ATOM     21  C   UNL     1       1.993   4.596  20.572  0.00  0.00    +0.000 C 
ATOM     22  O   UNL     1       3.051   5.440  20.130  0.00  0.00    +0.000 OA
ENDBRANCH   1  22
TORSDOF 3
ENDMDL
MODEL 8
REMARK VINA RESULT:      -6.7      4.375      7.250
REMARK  Name = 
REMARK  4 active torsions:
REMARK  status: ('A' for Active; 'I' for Inactive)
REMARK    1  A    between atoms: C_1  and  O_2
REMARK    2  A    between atoms: O_2  and  C_3
REMARK    3  A    between atoms: C_4  and  C_5
REMARK    4  A    between atoms: C_8  and  C_9
REMARK                            x       y       z     vdW  Elec       q    Type
REMARK                         _______ _______ _______ _____ _____    ______ ____
ROOT
ATOM      1  C   UNL     1       3.381   5.661  18.488  0.00  0.00    +0.000 A 
ATOM      2  C   UNL     1       2.472   6.497  19.193  0.00  0.00    +0.000 A 
ATOM      3  C   UNL     1       1.853   6.043  20.370  0.00  0.00    +0.000 A 
ATOM      4  C   UNL     1       2.118   4.777  20.893  0.00  0.00    +0.000 A 
ATOM      5  C   UNL     1       3.036   3.995  20.201  0.00  0.00    +0.000 A 
ATOM      6  O   UNL     1       3.428   2.751  20.586  0.00  0.00    +0.000 OA
ATOM      7  C   UNL     1       4.350   2.331  19.689  0.00  0.00    +0.000 A 
ATOM      8  C   UNL     1       4.559   3.293  18.730  0.00  0.00    +0.000 A 
ATOM      9  C   UNL     1       3.686   4.385  19.034  0.00  0.00    +0.000 A 
ENDROOT
BRANCH   2  10
ATOM     10  C   UNL     1       2.138   7.869  18.713  0.00  0.00    +0.000 C 
ATOM     11  N   UNL     1       2.444   8.314  17.538  0.00  0.00    +0.000 NA
ATOM     12  O   UNL     1       2.011   9.655  17.445  0.00  0.00    +0.000 OA
ATOM     13  C   UNL     1       1.418  10.057  18.689  0.00  0.00    +0.000 C 
ATOM     14  C   UNL     1       1.397   8.833  19.578  0.00  0.00    +0.000 C 
BRANCH  13  15
ATOM     15  C   UNL     1       0.038  10.641  18.457  0.00  0.00    +0.000 A 
ATOM     16  C   UNL     1      -0.936   9.924  17.760  0.00  0.00    +0.000 A 
ATOM     17  C   UNL     1      -2.185  10.500  17.547  0.00  0.00    +0.000 A 
ATOM     18  C   UNL     1      -2.436  11.774  18.038  0.00  0.00    +0.000 A 
ATOM     19  C   UNL     1      -1.430  12.414  18.739  0.00  0.00    +0.000 A 
ATOM     20  N   UNL     1      -0.210  11.875  18.970  0.00  0.00    +0.000 NA
ENDBRANCH  13  15
ENDBRANCH   2  10
BRANCH   1  22
ATOM     21  C   UNL     1       5.410   6.431  17.506  0.00  0.00    +0.000 C 
ATOM     22  O   UNL     1       4.013   6.194  17.377  0.00  0.00    +0.000 OA
ENDBRANCH   1  22
TORSDOF 3
ENDMDL
MODEL 9
REMARK VINA RESULT:      -6.6      4.766      6.913
REMARK  Name = 
REMARK  4 active torsions:
REMARK  status: ('A' for Active; 'I' for Inactive)
REMARK    1  A    between atoms: C_1  and  O_2
REMARK    2  A    between atoms: O_2  and  C_3
REMARK    3  A    between atoms: C_4  and  C_5
REMARK    4  A    between atoms: C_8  and  C_9
REMARK                            x       y       z     vdW  Elec       q    Type
REMARK                         _______ _______ _______ _____ _____    ______ ____
ROOT
ATOM      1  C   UNL     1       0.193  10.303  20.071  0.00  0.00    +0.000 A 
ATOM      2  C   UNL     1       1.054   9.200  20.330  0.00  0.00    +0.000 A 
ATOM      3  C   UNL     1       1.228   8.724  21.640  0.00  0.00    +0.000 A 
ATOM      4  C   UNL     1       0.558   9.299  22.721  0.00  0.00    +0.000 A 
ATOM      5  C   UNL     1      -0.301  10.353  22.434  0.00  0.00    +0.000 A 
ATOM      6  O   UNL     1      -1.050  11.007  23.363  0.00  0.00    +0.000 OA
ATOM      7  C   UNL     1      -1.779  11.936  22.702  0.00  0.00    +0.000 A 
ATOM      8  C   UNL     1      -1.510  11.886  21.354  0.00  0.00    +0.000 A 
ATOM      9  C   UNL     1      -0.522  10.869  21.161  0.00  0.00    +0.000 A 
ENDROOT
BRANCH   2  10
ATOM     10  C   UNL     1       1.801   8.519  19.234  0.00  0.00    +0.000 C 
ATOM     11  N   UNL     1       2.093   9.078  18.106  0.00  0.00    +0.000 NA
ATOM     12  O   UNL     1       2.764   8.132  17.301  0.00  0.00    +0.000 OA
ATOM     13  C   UNL     1       2.855   6.882  18.002  0.00  0.00    +0.000 C 
ATOM     14  C   UNL     1       2.284   7.114  19.384  0.00  0.00    +0.000 C 
BRANCH  13  15
ATOM     15  C   UNL     1       4.289   6.392  18.032  0.00  0.00    +0.000 A 
ATOM     16  C   UNL     1       5.195   6.760  17.035  0.00  0.00    +0.000 A 
ATOM     17  C   UNL     1       6.498   6.273  17.084  0.00  0.00    +0.000 A 
ATOM     18  C   UNL     1       6.870   5.436  18.127  0.00  0.00    +0.000 A 
ATOM     19  C   UNL     1       5.924   5.133  19.091  0.00  0.00    +0.000 A 
ATOM     20  N   UNL     1       4.654   5.599  19.075  0.00  0.00    +0.000 NA
ENDBRANCH  13  15
ENDBRANCH   2  10
BRANCH   1  22
ATOM     21  C   UNL     1      -1.248  10.334  18.176  0.00  0.00    +0.000 C 
ATOM     22  O   UNL     1       0.008  10.676  18.751  0.00  0.00    +0.000 OA
ENDBRANCH   1  22
TORSDOF 3
ENDMDL
