MODEL 1
REMARK VINA RESULT:      -8.7      0.000      0.000
REMARK  Name = 
REMARK  9 active torsions:
REMARK  status: ('A' for Active; 'I' for Inactive)
REMARK    1  A    between atoms: C_1  and  C_2
REMARK    2  A    between atoms: C_3  and  N_4
REMARK    3  A    between atoms: N_4  and  C_5
REMARK    4  A    between atoms: C_6  and  C_7
REMARK    5  A    between atoms: C_12  and  C_13
REMARK    6  A    between atoms: C_14  and  C_15
REMARK    7  A    between atoms: C_15  and  C_16
REMARK    8  A    between atoms: C_16  and  N_17
REMARK    9  A    between atoms: C_21  and  N_22
REMARK                            x       y       z     vdW  Elec       q    Type
REMARK                         _______ _______ _______ _____ _____    ______ ____
ROOT
ATOM      1  C   UNL     1       3.774   4.284  19.844  0.00  0.00    +0.000 A 
ATOM      2  C   UNL     1       3.490   2.970  20.284  0.00  0.00    +0.000 A 
ATOM      3  C   UNL     1       2.167   2.552  20.363  0.00  0.00    +0.000 A 
ATOM      4  N   UNL     1       1.109   3.342  20.102  0.00  0.00    +0.000 NA
ATOM      5  C   UNL     1       1.395   4.620  19.778  0.00  0.00    +0.000 A 
ATOM      6  C   UNL     1       2.681   5.163  19.652  0.00  0.00    +0.000 A 
ENDROOT
BRANCH   1   7
ATOM      7  N   UNL     1       5.124   4.701  19.605  0.00  0.00    +0.000 N 
ATOM      8  H   UNL     1       5.373   5.490  20.200  0.00  0.00    +0.000 HD
BRANCH   7  11
ATOM      9  C   UNL     1       4.210   3.174  17.246  0.00  0.00    +0.000 C 
ATOM     10  C   UNL     1       5.303   4.207  17.188  0.00  0.00    +0.000 A 
ATOM     11  C   UNL     1       5.672   4.989  18.312  0.00  0.00    +0.000 A 
ATOM     12  C   UNL     1       6.647   5.995  18.178  0.00  0.00    +0.000 A 
ATOM     13  C   UNL     1       7.226   6.311  16.952  0.00  0.00    +0.000 A 
ATOM     14  C   UNL     1       6.905   5.491  15.876  0.00  0.00    +0.000 A 
ATOM     15  N   UNL     1       7.372   5.521  14.582  0.00  0.00    +0.000 N 
ATOM     16  C   UNL     1       6.844   4.482  13.866  0.00  0.00    +0.000 A 
ATOM     17  C   UNL     1       5.969   3.812  14.688  0.00  0.00    +0.000 A 
ATOM     18  C   UNL     1       5.991   4.444  15.967  0.00  0.00    +0.000 A 
ATOM     19  H   UNL     1       8.036   6.196  14.232  0.00  0.00    +0.000 HD
ENDBRANCH   7  11
ENDBRANCH   1   7
BRANCH   2  20
ATOM     20  C   UNL     1       4.491   2.018  20.645  0.00  0.00    +0.000 C 
ATOM     21  N   UNL     1       5.282   1.196  20.888  0.00  0.00    +0.000 NA
ENDBRANCH   2  20
BRANCH   6  22
ATOM     22  C   UNL     1       2.728   6.586  19.275  0.00  0.00    +0.000 C 
ATOM     23  C   UNL     1       2.325   7.127  18.114  0.00  0.00    +0.000 C 
BRANCH  23  24
ATOM     24  C   UNL     1       2.571   8.562  17.700  0.00  0.00    +0.000 C 
BRANCH  24  25
ATOM     25  C   UNL     1       1.355   9.478  17.935  0.00  0.00    +0.000 C 
BRANCH  25  26
ATOM     26  N   UNL     1       1.472  10.429  19.052  0.00  0.00    +0.000 NA
ATOM     27  C   UNL     1       0.739  10.031  20.262  0.00  0.00    +0.000 C 
ATOM     28  C   UNL     1      -0.783  10.067  20.109  0.00  0.00    +0.000 C 
ATOM     29  C   UNL     1      -1.266  11.433  19.619  0.00  0.00    +0.000 C 
ATOM     30  C   UNL     1      -0.502  11.872  18.363  0.00  0.00    +0.000 C 
ATOM     31  C   UNL     1       1.025  11.773  18.615  0.00  0.00    +0.000 C 
BRANCH  30  32
ATOM     32  N   UNL     1      -0.900  13.223  17.959  0.00  0.00    +0.000 NA
ATOM     33  H   UNL     1      -0.274  13.565  17.232  0.00  0.00    +0.000 HD
ATOM     34  H   UNL     1      -0.790  13.857  18.750  0.00  0.00    +0.000 HD
ENDBRANCH  30  32
ENDBRANCH  25  26
ENDBRANCH  24  25
ENDBRANCH  23  24
ENDBRANCH   6  22
TORSDOF 8
ENDMDL
MODEL 2
REMARK VINA RESULT:      -8.6      0.703      1.463
REMARK  Name = 
REMARK  9 active torsions:
REMARK  status: ('A' for Active; 'I' for Inactive)
REMARK    1  A    between atoms: C_1  and  C_2
REMARK    2  A    between atoms: C_3  and  N_4
REMARK    3  A    between atoms: N_4  and  C_5
REMARK    4  A    between atoms: C_6  and  C_7
REMARK    5  A    between atoms: C_12  and  C_13
REMARK    6  A    between atoms: C_14  and  C_15
REMARK    7  A    between atoms: C_15  and  C_16
REMARK    8  A    between atoms: C_16  and  N_17
REMARK    9  A    between atoms: C_21  and  N_22
REMARK                            x       y       z     vdW  Elec       q    Type
REMARK                         _______ _______ _______ _____ _____    ______ ____
ROOT
ATOM      1  C   UNL     1       3.567   4.338  19.934  0.00  0.00    +0.000 A 
ATOM      2  C   UNL     1       3.424   3.058  20.518  0.00  0.00    +0.000 A 
ATOM      3  C   UNL     1       2.176   2.658  20.979  0.00  0.00    +0.000 A 
ATOM      4  N   UNL     1       1.080   3.439  20.965  0.00  0.00    +0.000 NA
ATOM      5  C   UNL     1       1.257   4.692  20.494  0.00  0.00    +0.000 A 
ATOM      6  C   UNL     1       2.456   5.213  19.991  0.00  0.00    +0.000 A 
ENDROOT
BRANCH   1   7
ATOM      7  N   UNL     1       4.799   4.726  19.312  0.00  0.00    +0.000 N 
ATOM      8  H   UNL     1       4.999   5.711  19.481  0.00  0.00    +0.000 HD
BRANCH   7  11
ATOM      9  C   UNL     1       7.421   5.587  18.255  0.00  0.00    +0.000 C 
ATOM     10  C   UNL     1       6.350   4.965  17.400  0.00  0.00    +0.000 A 
ATOM     11  C   UNL     1       5.131   4.482  17.939  0.00  0.00    +0.000 A 
ATOM     12  C   UNL     1       4.200   3.839  17.103  0.00  0.00    +0.000 A 
ATOM     13  C   UNL     1       4.457   3.586  15.758  0.00  0.00    +0.000 A 
ATOM     14  C   UNL     1       5.624   4.126  15.230  0.00  0.00    +0.000 A 
ATOM     15  N   UNL     1       6.097   4.099  13.939  0.00  0.00    +0.000 N 
ATOM     16  C   UNL     1       7.256   4.818  13.844  0.00  0.00    +0.000 A 
ATOM     17  C   UNL     1       7.576   5.259  15.106  0.00  0.00    +0.000 A 
ATOM     18  C   UNL     1       6.553   4.823  16.000  0.00  0.00    +0.000 A 
ATOM     19  H   UNL     1       5.628   3.639  13.170  0.00  0.00    +0.000 HD
ENDBRANCH   7  11
ENDBRANCH   1   7
BRANCH   2  20
ATOM     20  C   UNL     1       4.494   2.122  20.654  0.00  0.00    +0.000 C 
ATOM     21  N   UNL     1       5.319   1.302  20.756  0.00  0.00    +0.000 NA
ENDBRANCH   2  20
BRANCH   6  22
ATOM     22  C   UNL     1       2.387   6.608  19.524  0.00  0.00    +0.000 C 
ATOM     23  C   UNL     1       2.475   7.042  18.256  0.00  0.00    +0.000 C 
BRANCH  23  24
ATOM     24  C   UNL     1       2.592   8.494  17.847  0.00  0.00    +0.000 C 
BRANCH  24  25
ATOM     25  C   UNL     1       1.325   9.314  18.153  0.00  0.00    +0.000 C 
BRANCH  25  26
ATOM     26  N   UNL     1       1.475  10.385  19.152  0.00  0.00    +0.000 NA
ATOM     27  C   UNL     1       0.798  10.118  20.427  0.00  0.00    +0.000 C 
ATOM     28  C   UNL     1      -0.730  10.125  20.336  0.00  0.00    +0.000 C 
ATOM     29  C   UNL     1      -1.250  11.423  19.718  0.00  0.00    +0.000 C 
ATOM     30  C   UNL     1      -0.544  11.726  18.391  0.00  0.00    +0.000 C 
ATOM     31  C   UNL     1       0.993  11.668  18.587  0.00  0.00    +0.000 C 
BRANCH  30  32
ATOM     32  N   UNL     1      -0.976  13.020  17.857  0.00  0.00    +0.000 NA
ATOM     33  H   UNL     1      -1.465  13.546  18.579  0.00  0.00    +0.000 HD
ATOM     34  H   UNL     1      -1.651  12.868  17.108  0.00  0.00    +0.000 HD
ENDBRANCH  30  32
ENDBRANCH  25  26
ENDBRANCH  24  25
ENDBRANCH  23  24
ENDBRANCH   6  22
TORSDOF 8
ENDMDL
MODEL 3
REMARK VINA RESULT:      -8.4      1.289      1.777
REMARK  Name = 
REMARK  9 active torsions:
REMARK  status: ('A' for Active; 'I' for Inactive)
REMARK    1  A    between atoms: C_1  and  C_2
REMARK    2  A    between atoms: C_3  and  N_4
REMARK    3  A    between atoms: N_4  and  C_5
REMARK    4  A    between atoms: C_6  and  C_7
REMARK    5  A    between atoms: C_12  and  C_13
REMARK    6  A    between atoms: C_14  and  C_15
REMARK    7  A    between atoms: C_15  and  C_16
REMARK    8  A    between atoms: C_16  and  N_17
REMARK    9  A    between atoms: C_21  and  N_22
REMARK                            x       y       z     vdW  Elec       q    Type
REMARK                         _______ _______ _______ _____ _____    ______ ____
ROOT
ATOM      1  C   UNL     1       3.235   4.828  20.130  0.00  0.00    +0.000 A 
ATOM      2  C   UNL     1       3.090   3.422  20.139  0.00  0.00    +0.000 A 
ATOM      3  C   UNL     1       1.814   2.872  20.130  0.00  0.00    +0.000 A 
ATOM      4  N   UNL     1       0.680   3.594  20.174  0.00  0.00    +0.000 NA
ATOM      5  C   UNL     1       0.838   4.932  20.265  0.00  0.00    +0.000 A 
ATOM      6  C   UNL     1       2.064   5.611  20.271  0.00  0.00    +0.000 A 
ENDROOT
BRANCH   1   7
ATOM      7  N   UNL     1       4.528   5.430  19.987  0.00  0.00    +0.000 N 
ATOM      8  H   UNL     1       4.495   6.424  20.210  0.00  0.00    +0.000 HD
BRANCH   7  11
ATOM      9  C   UNL     1       3.394   5.955  17.309  0.00  0.00    +0.000 C 
ATOM     10  C   UNL     1       4.805   5.478  17.530  0.00  0.00    +0.000 A 
ATOM     11  C   UNL     1       5.358   5.311  18.824  0.00  0.00    +0.000 A 
ATOM     12  C   UNL     1       6.708   4.939  18.968  0.00  0.00    +0.000 A 
ATOM     13  C   UNL     1       7.561   4.793  17.877  0.00  0.00    +0.000 A 
ATOM     14  C   UNL     1       6.986   4.892  16.615  0.00  0.00    +0.000 A 
ATOM     15  N   UNL     1       7.560   4.726  15.376  0.00  0.00    +0.000 N 
ATOM     16  C   UNL     1       6.613   4.843  14.396  0.00  0.00    +0.000 A 
ATOM     17  C   UNL     1       5.421   5.159  15.006  0.00  0.00    +0.000 A 
ATOM     18  C   UNL     1       5.642   5.200  16.415  0.00  0.00    +0.000 A 
ATOM     19  H   UNL     1       8.536   4.514  15.224  0.00  0.00    +0.000 HD
ENDBRANCH   7  11
ENDBRANCH   1   7
BRANCH   2  20
ATOM     20  C   UNL     1       4.187   2.508  20.140  0.00  0.00    +0.000 C 
ATOM     21  N   UNL     1       5.130   1.820  20.141  0.00  0.00    +0.000 NA
ENDBRANCH   2  20
BRANCH   6  22
ATOM     22  C   UNL     1       1.969   7.077  20.365  0.00  0.00    +0.000 C 
ATOM     23  C   UNL     1       1.237   7.785  21.241  0.00  0.00    +0.000 C 
BRANCH  23  24
ATOM     24  C   UNL     1       1.022   9.281  21.175  0.00  0.00    +0.000 C 
BRANCH  24  25
ATOM     25  C   UNL     1      -0.137   9.687  20.245  0.00  0.00    +0.000 C 
BRANCH  25  26
ATOM     26  N   UNL     1       0.232   9.997  18.854  0.00  0.00    +0.000 NA
ATOM     27  C   UNL     1       1.217  11.077  18.718  0.00  0.00    +0.000 C 
ATOM     28  C   UNL     1       0.688  12.458  19.110  0.00  0.00    +0.000 C 
ATOM     29  C   UNL     1      -0.593  12.806  18.349  0.00  0.00    +0.000 C 
ATOM     30  C   UNL     1      -1.630  11.683  18.469  0.00  0.00    +0.000 C 
ATOM     31  C   UNL     1      -0.986  10.327  18.076  0.00  0.00    +0.000 C 
BRANCH  30  32
ATOM     32  N   UNL     1      -2.812  11.979  17.656  0.00  0.00    +0.000 NA
ATOM     33  H   UNL     1      -3.581  11.369  17.930  0.00  0.00    +0.000 HD
ATOM     34  H   UNL     1      -2.612  11.763  16.679  0.00  0.00    +0.000 HD
ENDBRANCH  30  32
ENDBRANCH  25  26
ENDBRANCH  24  25
ENDBRANCH  23  24
ENDBRANCH   6  22
TORSDOF 8
ENDMDL
MODEL 4
REMARK VINA RESULT:      -8.3      1.026      1.754
REMARK  Name = 
REMARK  9 active torsions:
REMARK  status: ('A' for Active; 'I' for Inactive)
REMARK    1  A    between atoms: C_1  and  C_2
REMARK    2  A    between atoms: C_3  and  N_4
REMARK    3  A    between atoms: N_4  and  C_5
REMARK    4  A    between atoms: C_6  and  C_7
REMARK    5  A    between atoms: C_12  and  C_13
REMARK    6  A    between atoms: C_14  and  C_15
REMARK    7  A    between atoms: C_15  and  C_16
REMARK    8  A    between atoms: C_16  and  N_17
REMARK    9  A    between atoms: C_21  and  N_22
REMARK                            x       y       z     vdW  Elec       q    Type
REMARK                         _______ _______ _______ _____ _____    ______ ____
ROOT
ATOM      1  C   UNL     1       3.488   4.419  19.959  0.00  0.00    +0.000 A 
ATOM      2  C   UNL     1       3.331   3.116  20.485  0.00  0.00    +0.000 A 
ATOM      3  C   UNL     1       2.079   2.711  20.930  0.00  0.00    +0.000 A 
ATOM      4  N   UNL     1       0.992   3.504  20.954  0.00  0.00    +0.000 NA
ATOM      5  C   UNL     1       1.182   4.775  20.540  0.00  0.00    +0.000 A 
ATOM      6  C   UNL     1       2.387   5.304  20.057  0.00  0.00    +0.000 A 
ENDROOT
BRANCH   1   7
ATOM      7  N   UNL     1       4.723   4.821  19.352  0.00  0.00    +0.000 N 
ATOM      8  H   UNL     1       4.908   5.809  19.521  0.00  0.00    +0.000 HD
BRANCH   7  11
ATOM      9  C   UNL     1       7.432   5.501  18.386  0.00  0.00    +0.000 C 
ATOM     10  C   UNL     1       6.342   4.978  17.489  0.00  0.00    +0.000 A 
ATOM     11  C   UNL     1       5.075   4.579  17.983  0.00  0.00    +0.000 A 
ATOM     12  C   UNL     1       4.123   4.023  17.109  0.00  0.00    +0.000 A 
ATOM     13  C   UNL     1       4.399   3.777  15.766  0.00  0.00    +0.000 A 
ATOM     14  C   UNL     1       5.619   4.236  15.283  0.00  0.00    +0.000 A 
ATOM     15  N   UNL     1       6.125   4.198  14.004  0.00  0.00    +0.000 N 
ATOM     16  C   UNL     1       7.337   4.829  13.956  0.00  0.00    +0.000 A 
ATOM     17  C   UNL     1       7.653   5.221  15.236  0.00  0.00    +0.000 A 
ATOM     18  C   UNL     1       6.575   4.847  16.092  0.00  0.00    +0.000 A 
ATOM     19  H   UNL     1       5.646   3.789  13.214  0.00  0.00    +0.000 HD
ENDBRANCH   7  11
ENDBRANCH   1   7
BRANCH   2  20
ATOM     20  C   UNL     1       4.390   2.163  20.576  0.00  0.00    +0.000 C 
ATOM     21  N   UNL     1       5.291   1.430  20.695  0.00  0.00    +0.000 NA
ENDBRANCH   2  20
BRANCH   6  22
ATOM     22  C   UNL     1       2.333   6.720  19.654  0.00  0.00    +0.000 C 
ATOM     23  C   UNL     1       2.255   7.201  18.403  0.00  0.00    +0.000 C 
BRANCH  23  24
ATOM     24  C   UNL     1       2.397   8.661  18.029  0.00  0.00    +0.000 C 
BRANCH  24  25
ATOM     25  C   UNL     1       1.044   9.383  17.884  0.00  0.00    +0.000 C 
BRANCH  25  26
ATOM     26  N   UNL     1       0.414   9.830  19.137  0.00  0.00    +0.000 NA
ATOM     27  C   UNL     1      -1.003  10.190  19.004  0.00  0.00    +0.000 C 
ATOM     28  C   UNL     1      -1.250  11.456  18.178  0.00  0.00    +0.000 C 
ATOM     29  C   UNL     1      -0.447  12.642  18.714  0.00  0.00    +0.000 C 
ATOM     30  C   UNL     1       1.035  12.280  18.872  0.00  0.00    +0.000 C 
ATOM     31  C   UNL     1       1.172  10.974  19.698  0.00  0.00    +0.000 C 
BRANCH  30  32
ATOM     32  N   UNL     1       1.777  13.387  19.480  0.00  0.00    +0.000 NA
ATOM     33  H   UNL     1       2.554  13.654  18.877  0.00  0.00    +0.000 HD
ATOM     34  H   UNL     1       2.193  13.074  20.357  0.00  0.00    +0.000 HD
ENDBRANCH  30  32
ENDBRANCH  25  26
ENDBRANCH  24  25
ENDBRANCH  23  24
ENDBRANCH   6  22
TORSDOF 8
ENDMDL
MODEL 5
REMARK VINA RESULT:      -8.3      1.183      2.076
REMARK  Name = 
REMARK  9 active torsions:
REMARK  status: ('A' for Active; 'I' for Inactive)
REMARK    1  A    between atoms: C_1  and  C_2
REMARK    2  A    between atoms: C_3  and  N_4
REMARK    3  A    between atoms: N_4  and  C_5
REMARK    4  A    between atoms: C_6  and  C_7
REMARK    5  A    between atoms: C_12  and  C_13
REMARK    6  A    between atoms: C_14  and  C_15
REMARK    7  A    between atoms: C_15  and  C_16
REMARK    8  A    between atoms: C_16  and  N_17
REMARK    9  A    between atoms: C_21  and  N_22
REMARK                            x       y       z     vdW  Elec       q    Type
REMARK                         _______ _______ _______ _____ _____    ______ ____
ROOT
ATOM      1  C   UNL     1       3.538   4.548  19.864  0.00  0.00    +0.000 A 
ATOM      2  C   UNL     1       3.365   3.258  20.418  0.00  0.00    +0.000 A 
ATOM      3  C   UNL     1       2.110   2.882  20.880  0.00  0.00    +0.000 A 
ATOM      4  N   UNL     1       1.036   3.692  20.895  0.00  0.00    +0.000 NA
ATOM      5  C   UNL     1       1.243   4.951  20.454  0.00  0.00    +0.000 A 
ATOM      6  C   UNL     1       2.452   5.452  19.952  0.00  0.00    +0.000 A 
ENDROOT
BRANCH   1   7
ATOM      7  N   UNL     1       4.775   4.917  19.241  0.00  0.00    +0.000 N 
ATOM      8  H   UNL     1       4.971   5.907  19.378  0.00  0.00    +0.000 HD
BRANCH   7  11
ATOM      9  C   UNL     1       7.425   5.701  18.194  0.00  0.00    +0.000 C 
ATOM     10  C   UNL     1       6.354   5.074  17.343  0.00  0.00    +0.000 A 
ATOM     11  C   UNL     1       5.119   4.629  17.879  0.00  0.00    +0.000 A 
ATOM     12  C   UNL     1       4.187   3.978  17.050  0.00  0.00    +0.000 A 
ATOM     13  C   UNL     1       4.456   3.683  15.715  0.00  0.00    +0.000 A 
ATOM     14  C   UNL     1       5.639   4.187  15.188  0.00  0.00    +0.000 A 
ATOM     15  N   UNL     1       6.127   4.115  13.904  0.00  0.00    +0.000 N 
ATOM     16  C   UNL     1       7.300   4.811  13.804  0.00  0.00    +0.000 A 
ATOM     17  C   UNL     1       7.613   5.282  15.058  0.00  0.00    +0.000 A 
ATOM     18  C   UNL     1       6.571   4.889  15.950  0.00  0.00    +0.000 A 
ATOM     19  H   UNL     1       5.660   3.642  13.143  0.00  0.00    +0.000 HD
ENDBRANCH   7  11
ENDBRANCH   1   7
BRANCH   2  20
ATOM     20  C   UNL     1       4.409   2.290  20.521  0.00  0.00    +0.000 C 
ATOM     21  N   UNL     1       5.232   1.462  20.549  0.00  0.00    +0.000 NA
ENDBRANCH   2  20
BRANCH   6  22
ATOM     22  C   UNL     1       2.418   6.859  19.521  0.00  0.00    +0.000 C 
ATOM     23  C   UNL     1       2.107   7.323  18.300  0.00  0.00    +0.000 C 
BRANCH  23  24
ATOM     24  C   UNL     1       2.272   8.759  17.854  0.00  0.00    +0.000 C 
BRANCH  24  25
ATOM     25  C   UNL     1       1.660   9.774  18.837  0.00  0.00    +0.000 C 
BRANCH  25  26
ATOM     26  N   UNL     1       0.218   9.630  19.098  0.00  0.00    +0.000 NA
ATOM     27  C   UNL     1      -0.610  10.689  18.507  0.00  0.00    +0.000 C 
ATOM     28  C   UNL     1      -0.414  12.065  19.149  0.00  0.00    +0.000 C 
ATOM     29  C   UNL     1      -0.617  12.012  20.664  0.00  0.00    +0.000 C 
ATOM     30  C   UNL     1       0.230  10.902  21.297  0.00  0.00    +0.000 C 
ATOM     31  C   UNL     1      -0.022   9.561  20.558  0.00  0.00    +0.000 C 
BRANCH  30  32
ATOM     32  N   UNL     1      -0.047  10.792  22.732  0.00  0.00    +0.000 NA
ATOM     33  H   UNL     1      -0.110   9.810  22.998  0.00  0.00    +0.000 HD
ATOM     34  H   UNL     1      -0.959  11.200  22.932  0.00  0.00    +0.000 HD
ENDBRANCH  30  32
ENDBRANCH  25  26
ENDBRANCH  24  25
ENDBRANCH  23  24
ENDBRANCH   6  22
TORSDOF 8
ENDMDL
MODEL 6
REMARK VINA RESULT:      -8.3      2.648      9.295
REMARK  Name = 
REMARK  9 active torsions:
REMARK  status: ('A' for Active; 'I' for Inactive)
REMARK    1  A    between atoms: C_1  and  C_2
REMARK    2  A    between atoms: C_3  and  N_4
REMARK    3  A    between atoms: N_4  and  C_5
REMARK    4  A    between atoms: C_6  and  C_7
REMARK    5  A    between atoms: C_12  and  C_13
REMARK    6  A    between atoms: C_14  and  C_15
REMARK    7  A    between atoms: C_15  and  C_16
REMARK    8  A    between atoms: C_16  and  N_17
REMARK    9  A    between atoms: C_21  and  N_22
REMARK                            x       y       z     vdW  Elec       q    Type
REMARK                         _______ _______ _______ _____ _____    ______ ____
ROOT
ATOM      1  C   UNL     1      -0.409  10.838  21.055  0.00  0.00    +0.000 A 
ATOM      2  C   UNL     1      -1.065  11.252  22.237  0.00  0.00    +0.000 A 
ATOM      3  C   UNL     1      -0.755  10.627  23.439  0.00  0.00    +0.000 A 
ATOM      4  N   UNL     1       0.098   9.593  23.555  0.00  0.00    +0.000 NA
ATOM      5  C   UNL     1       0.641   9.146  22.402  0.00  0.00    +0.000 A 
ATOM      6  C   UNL     1       0.422   9.694  21.131  0.00  0.00    +0.000 A 
ENDROOT
BRANCH   1   7
ATOM      7  N   UNL     1      -0.588  11.556  19.827  0.00  0.00    +0.000 N 
ATOM      8  H   UNL     1      -0.565  12.562  19.986  0.00  0.00    +0.000 HD
BRANCH   7  11
ATOM      9  C   UNL     1      -0.158   9.774  17.509  0.00  0.00    +0.000 C 
ATOM     10  C   UNL     1      -1.433  10.539  17.737  0.00  0.00    +0.000 A 
ATOM     11  C   UNL     1      -1.654  11.324  18.896  0.00  0.00    +0.000 A 
ATOM     12  C   UNL     1      -2.897  11.954  19.093  0.00  0.00    +0.000 A 
ATOM     13  C   UNL     1      -3.966  11.781  18.217  0.00  0.00    +0.000 A 
ATOM     14  C   UNL     1      -3.712  11.066  17.052  0.00  0.00    +0.000 A 
ATOM     15  N   UNL     1      -4.544  10.799  15.989  0.00  0.00    +0.000 N 
ATOM     16  C   UNL     1      -3.865  10.120  15.016  0.00  0.00    +0.000 A 
ATOM     17  C   UNL     1      -2.594   9.882  15.484  0.00  0.00    +0.000 A 
ATOM     18  C   UNL     1      -2.482  10.471  16.779  0.00  0.00    +0.000 A 
ATOM     19  H   UNL     1      -5.508  11.097  15.931  0.00  0.00    +0.000 HD
ENDBRANCH   7  11
ENDBRANCH   1   7
BRANCH   2  20
ATOM     20  C   UNL     1      -2.031  12.302  22.285  0.00  0.00    +0.000 C 
ATOM     21  N   UNL     1      -2.767  13.208  22.308  0.00  0.00    +0.000 NA
ENDBRANCH   2  20
BRANCH   6  22
ATOM     22  C   UNL     1       1.143   9.033  20.030  0.00  0.00    +0.000 C 
ATOM     23  C   UNL     1       1.740   7.830  20.062  0.00  0.00    +0.000 C 
BRANCH  23  24
ATOM     24  C   UNL     1       2.630   7.279  18.970  0.00  0.00    +0.000 C 
BRANCH  24  25
ATOM     25  C   UNL     1       3.242   5.910  19.319  0.00  0.00    +0.000 C 
BRANCH  25  26
ATOM     26  N   UNL     1       3.069   4.850  18.312  0.00  0.00    +0.000 NA
ATOM     27  C   UNL     1       1.729   4.249  18.294  0.00  0.00    +0.000 C 
ATOM     28  C   UNL     1       1.402   3.417  19.536  0.00  0.00    +0.000 C 
ATOM     29  C   UNL     1       2.464   2.346  19.791  0.00  0.00    +0.000 C 
ATOM     30  C   UNL     1       3.872   2.954  19.799  0.00  0.00    +0.000 C 
ATOM     31  C   UNL     1       4.090   3.795  18.515  0.00  0.00    +0.000 C 
BRANCH  30  32
ATOM     32  N   UNL     1       4.888   1.907  19.943  0.00  0.00    +0.000 NA
ATOM     33  H   UNL     1       5.534   1.943  19.156  0.00  0.00    +0.000 HD
ATOM     34  H   UNL     1       4.439   0.993  19.900  0.00  0.00    +0.000 HD
ENDBRANCH  30  32
ENDBRANCH  25  26
ENDBRANCH  24  25
ENDBRANCH  23  24
ENDBRANCH   6  22
TORSDOF 8
ENDMDL
MODEL 7
REMARK VINA RESULT:      -8.2      1.134      1.612
REMARK  Name = 
REMARK  9 active torsions:
REMARK  status: ('A' for Active; 'I' for Inactive)
REMARK    1  A    between atoms: C_1  and  C_2
REMARK    2  A    between atoms: C_3  and  N_4
REMARK    3  A    between atoms: N_4  and  C_5
REMARK    4  A    between atoms: C_6  and  C_7
REMARK    5  A    between atoms: C_12  and  C_13
REMARK    6  A    between atoms: C_14  and  C_15
REMARK    7  A    between atoms: C_15  and  C_16
REMARK    8  A    between atoms: C_16  and  N_17
REMARK    9  A    between atoms: C_21  and  N_22
REMARK                            x       y       z     vdW  Elec       q    Type
REMARK                         _______ _______ _______ _____ _____    ______ ____
ROOT
ATOM      1  C   UNL     1       3.518   4.100  19.374  0.00  0.00    +0.000 A 
ATOM      2  C   UNL     1       3.343   2.845  20.002  0.00  0.00    +0.000 A 
ATOM      3  C   UNL     1       2.098   2.229  19.950  0.00  0.00    +0.000 A 
ATOM      4  N   UNL     1       1.007   2.778  19.386  0.00  0.00    +0.000 NA
ATOM      5  C   UNL     1       1.168   4.018  18.878  0.00  0.00    +0.000 A 
ATOM      6  C   UNL     1       2.368   4.742  18.856  0.00  0.00    +0.000 A 
ENDROOT
BRANCH   1   7
ATOM      7  N   UNL     1       4.819   4.695  19.275  0.00  0.00    +0.000 N 
ATOM      8  H   UNL     1       4.875   5.546  19.833  0.00  0.00    +0.000 HD
BRANCH   7  11
ATOM      9  C   UNL     1       4.162   3.148  16.845  0.00  0.00    +0.000 C 
ATOM     10  C   UNL     1       5.245   4.192  16.892  0.00  0.00    +0.000 A 
ATOM     11  C   UNL     1       5.492   4.982  18.042  0.00  0.00    +0.000 A 
ATOM     12  C   UNL     1       6.465   5.997  18.002  0.00  0.00    +0.000 A 
ATOM     13  C   UNL     1       7.163   6.314  16.839  0.00  0.00    +0.000 A 
ATOM     14  C   UNL     1       6.960   5.486  15.741  0.00  0.00    +0.000 A 
ATOM     15  N   UNL     1       7.555   5.514  14.501  0.00  0.00    +0.000 N 
ATOM     16  C   UNL     1       7.112   4.467  13.741  0.00  0.00    +0.000 A 
ATOM     17  C   UNL     1       6.165   3.792  14.474  0.00  0.00    +0.000 A 
ATOM     18  C   UNL     1       6.052   4.429  15.745  0.00  0.00    +0.000 A 
ATOM     19  H   UNL     1       8.245   6.194  14.215  0.00  0.00    +0.000 HD
ENDBRANCH   7  11
ENDBRANCH   1   7
BRANCH   2  20
ATOM     20  C   UNL     1       4.383   2.145  20.684  0.00  0.00    +0.000 C 
ATOM     21  N   UNL     1       5.193   1.510  21.235  0.00  0.00    +0.000 NA
ENDBRANCH   2  20
BRANCH   6  22
ATOM     22  C   UNL     1       2.286   6.074  18.232  0.00  0.00    +0.000 C 
ATOM     23  C   UNL     1       2.360   7.262  18.853  0.00  0.00    +0.000 C 
BRANCH  23  24
ATOM     24  C   UNL     1       2.078   8.597  18.197  0.00  0.00    +0.000 C 
BRANCH  24  25
ATOM     25  C   UNL     1       1.552   9.657  19.183  0.00  0.00    +0.000 C 
BRANCH  25  26
ATOM     26  N   UNL     1       0.088   9.749  19.311  0.00  0.00    +0.000 NA
ATOM     27  C   UNL     1      -0.497  10.948  18.696  0.00  0.00    +0.000 C 
ATOM     28  C   UNL     1      -0.139  12.253  19.411  0.00  0.00    +0.000 C 
ATOM     29  C   UNL     1      -0.487  12.193  20.899  0.00  0.00    +0.000 C 
ATOM     30  C   UNL     1       0.104  10.939  21.555  0.00  0.00    +0.000 C 
ATOM     31  C   UNL     1      -0.295   9.680  20.741  0.00  0.00    +0.000 C 
BRANCH  30  32
ATOM     32  N   UNL     1      -0.318  10.837  22.954  0.00  0.00    +0.000 NA
ATOM     33  H   UNL     1       0.376  11.276  23.558  0.00  0.00    +0.000 HD
ATOM     34  H   UNL     1      -0.350   9.855  23.226  0.00  0.00    +0.000 HD
ENDBRANCH  30  32
ENDBRANCH  25  26
ENDBRANCH  24  25
ENDBRANCH  23  24
ENDBRANCH   6  22
TORSDOF 8
ENDMDL
MODEL 8
REMARK VINA RESULT:      -8.2      1.425      4.902
REMARK  Name = 
REMARK  9 active torsions:
REMARK  status: ('A' for Active; 'I' for Inactive)
REMARK    1  A    between atoms: C_1  and  C_2
REMARK    2  A    between atoms: C_3  and  N_4
REMARK    3  A    between atoms: N_4  and  C_5
REMARK    4  A    between atoms: C_6  and  C_7
REMARK    5  A    between atoms: C_12  and  C_13
REMARK    6  A    between atoms: C_14  and  C_15
REMARK    7  A    between atoms: C_15  and  C_16
REMARK    8  A    between atoms: C_16  and  N_17
REMARK    9  A    between atoms: C_21  and  N_22
REMARK                            x       y       z     vdW  Elec       q    Type
REMARK                         _______ _______ _______ _____ _____    ______ ____
ROOT
ATOM      1  C   UNL     1       5.167   5.316  16.609  0.00  0.00    +0.000 A 
ATOM      2  C   UNL     1       6.215   5.043  15.700  0.00  0.00    +0.000 A 
ATOM      3  C   UNL     1       7.333   5.868  15.686  0.00  0.00    +0.000 A 
ATOM      4  N   UNL     1       7.469   6.968  16.449  0.00  0.00    +0.000 NA
ATOM      5  C   UNL     1       6.417   7.269  17.240  0.00  0.00    +0.000 A 
ATOM      6  C   UNL     1       5.241   6.516  17.356  0.00  0.00    +0.000 A 
ENDROOT
BRANCH   1   7
ATOM      7  N   UNL     1       4.070   4.404  16.759  0.00  0.00    +0.000 N 
ATOM      8  H   UNL     1       3.216   4.793  16.363  0.00  0.00    +0.000 HD
BRANCH   7  11
ATOM      9  C   UNL     1       1.242   4.435  17.614  0.00  0.00    +0.000 C 
ATOM     10  C   UNL     1       2.352   3.864  18.454  0.00  0.00    +0.000 A 
ATOM     11  C   UNL     1       3.691   3.783  17.994  0.00  0.00    +0.000 A 
ATOM     12  C   UNL     1       4.672   3.167  18.793  0.00  0.00    +0.000 A 
ATOM     13  C   UNL     1       4.369   2.560  20.009  0.00  0.00    +0.000 A 
ATOM     14  C   UNL     1       3.069   2.709  20.477  0.00  0.00    +0.000 A 
ATOM     15  N   UNL     1       2.509   2.283  21.660  0.00  0.00    +0.000 N 
ATOM     16  C   UNL     1       1.212   2.707  21.748  0.00  0.00    +0.000 A 
ATOM     17  C   UNL     1       0.905   3.355  20.575  0.00  0.00    +0.000 A 
ATOM     18  C   UNL     1       2.072   3.361  19.754  0.00  0.00    +0.000 A 
ATOM     19  H   UNL     1       3.005   1.763  22.370  0.00  0.00    +0.000 HD
ENDBRANCH   7  11
ENDBRANCH   1   7
BRANCH   2  20
ATOM     20  C   UNL     1       6.212   3.944  14.788  0.00  0.00    +0.000 C 
ATOM     21  N   UNL     1       6.217   3.094  13.988  0.00  0.00    +0.000 NA
ENDBRANCH   2  20
BRANCH   6  22
ATOM     22  C   UNL     1       4.244   7.050  18.299  0.00  0.00    +0.000 C 
ATOM     23  C   UNL     1       2.998   7.461  18.012  0.00  0.00    +0.000 C 
BRANCH  23  24
ATOM     24  C   UNL     1       2.082   8.179  18.978  0.00  0.00    +0.000 C 
BRANCH  24  25
ATOM     25  C   UNL     1       1.542   9.512  18.425  0.00  0.00    +0.000 C 
BRANCH  25  26
ATOM     26  N   UNL     1       1.518  10.640  19.371  0.00  0.00    +0.000 NA
ATOM     27  C   UNL     1       0.776  10.372  20.610  0.00  0.00    +0.000 C 
ATOM     28  C   UNL     1      -0.735  10.227  20.413  0.00  0.00    +0.000 C 
ATOM     29  C   UNL     1      -1.326  11.437  19.689  0.00  0.00    +0.000 C 
ATOM     30  C   UNL     1      -0.555  11.740  18.398  0.00  0.00    +0.000 C 
ATOM     31  C   UNL     1       0.963  11.841  18.703  0.00  0.00    +0.000 C 
BRANCH  30  32
ATOM     32  N   UNL     1      -1.063  12.960  17.764  0.00  0.00    +0.000 NA
ATOM     33  H   UNL     1      -0.910  12.916  16.758  0.00  0.00    +0.000 HD
ATOM     34  H   UNL     1      -0.528  13.762  18.098  0.00  0.00    +0.000 HD
ENDBRANCH  30  32
ENDBRANCH  25  26
ENDBRANCH  24  25
ENDBRANCH  23  24
ENDBRANCH   6  22
TORSDOF 8
ENDMDL
MODEL 9
REMARK VINA RESULT:      -8.2      1.114      1.864
REMARK  Name = 
REMARK  9 active torsions:
REMARK  status: ('A' for Active; 'I' for Inactive)
REMARK    1  A    between atoms: C_1  and  C_2
REMARK    2  A    between atoms: C_3  and  N_4
REMARK    3  A    between atoms: N_4  and  C_5
REMARK    4  A    between atoms: C_6  and  C_7
REMARK    5  A    between atoms: C_12  and  C_13
REMARK    6  A    between atoms: C_14  and  C_15
REMARK    7  A    between atoms: C_15  and  C_16
REMARK    8  A    between atoms: C_16  and  N_17
REMARK    9  A    between atoms: C_21  and  N_22
REMARK                            x       y       z     vdW  Elec       q    Type
REMARK                         _______ _______ _______ _____ _____    ______ ____
ROOT
ATOM      1  C   UNL     1       3.470   4.410  19.974  0.00  0.00    +0.000 A 
ATOM      2  C   UNL     1       3.316   3.102  20.489  0.00  0.00    +0.000 A 
ATOM      3  C   UNL     1       2.069   2.698  20.950  0.00  0.00    +0.000 A 
ATOM      4  N   UNL     1       0.987   3.496  21.000  0.00  0.00    +0.000 NA
ATOM      5  C   UNL     1       1.177   4.770  20.596  0.00  0.00    +0.000 A 
ATOM      6  C   UNL     1       2.376   5.300  20.100  0.00  0.00    +0.000 A 
ENDROOT
BRANCH   1   7
ATOM      7  N   UNL     1       4.698   4.813  19.352  0.00  0.00    +0.000 N 
ATOM      8  H   UNL     1       4.881   5.802  19.512  0.00  0.00    +0.000 HD
BRANCH   7  11
ATOM      9  C   UNL     1       7.380   5.532  18.343  0.00  0.00    +0.000 C 
ATOM     10  C   UNL     1       6.289   4.980  17.466  0.00  0.00    +0.000 A 
ATOM     11  C   UNL     1       5.036   4.562  17.981  0.00  0.00    +0.000 A 
ATOM     12  C   UNL     1       4.084   3.980  17.125  0.00  0.00    +0.000 A 
ATOM     13  C   UNL     1       4.347   3.725  15.782  0.00  0.00    +0.000 A 
ATOM     14  C   UNL     1       5.551   4.202  15.277  0.00  0.00    +0.000 A 
ATOM     15  N   UNL     1       6.042   4.159  13.992  0.00  0.00    +0.000 N 
ATOM     16  C   UNL     1       7.241   4.813  13.922  0.00  0.00    +0.000 A 
ATOM     17  C   UNL     1       7.566   5.224  15.194  0.00  0.00    +0.000 A 
ATOM     18  C   UNL     1       6.506   4.839  16.068  0.00  0.00    +0.000 A 
ATOM     19  H   UNL     1       5.560   3.733  13.213  0.00  0.00    +0.000 HD
ENDBRANCH   7  11
ENDBRANCH   1   7
BRANCH   2  20
ATOM     20  C   UNL     1       4.371   2.143  20.553  0.00  0.00    +0.000 C 
ATOM     21  N   UNL     1       5.282   1.415  20.612  0.00  0.00    +0.000 NA
ENDBRANCH   2  20
BRANCH   6  22
ATOM     22  C   UNL     1       2.323   6.719  19.713  0.00  0.00    +0.000 C 
ATOM     23  C   UNL     1       1.594   7.688  20.290  0.00  0.00    +0.000 C 
BRANCH  23  24
ATOM     24  C   UNL     1       1.424   9.086  19.738  0.00  0.00    +0.000 C 
BRANCH  24  25
ATOM     25  C   UNL     1       0.441   9.946  20.555  0.00  0.00    +0.000 C 
BRANCH  25  26
ATOM     26  N   UNL     1       0.665  11.400  20.510  0.00  0.00    +0.000 NA
ATOM     27  C   UNL     1      -0.125  12.162  21.487  0.00  0.00    +0.000 C 
ATOM     28  C   UNL     1      -1.629  12.169  21.203  0.00  0.00    +0.000 C 
ATOM     29  C   UNL     1      -1.931  12.649  19.783  0.00  0.00    +0.000 C 
ATOM     30  C   UNL     1      -1.104  11.874  18.750  0.00  0.00    +0.000 C 
ATOM     31  C   UNL     1       0.396  11.906  19.143  0.00  0.00    +0.000 C 
BRANCH  30  32
ATOM     32  N   UNL     1      -1.324  12.408  17.403  0.00  0.00    +0.000 NA
ATOM     33  H   UNL     1      -0.451  12.777  17.031  0.00  0.00    +0.000 HD
ATOM     34  H   UNL     1      -1.968  13.197  17.454  0.00  0.00    +0.000 HD
ENDBRANCH  30  32
ENDBRANCH  25  26
ENDBRANCH  24  25
ENDBRANCH  23  24
ENDBRANCH   6  22
TORSDOF 8
ENDMDL
