MODEL 1
REMARK VINA RESULT:      -7.0      0.000      0.000
REMARK  Name = 
REMARK  7 active torsions:
REMARK  status: ('A' for Active; 'I' for Inactive)
REMARK    1  A    between atoms: C_1  and  C_2
REMARK    2  A    between atoms: C_2  and  C_3
REMARK    3  A    between atoms: C_3  and  N_4
REMARK    4  A    between atoms: C_8  and  C_9
REMARK    5  A    between atoms: C_13  and  O_14
REMARK    6  A    between atoms: C_15  and  N_16
REMARK    7  A    between atoms: C_17  and  C_18
REMARK                            x       y       z     vdW  Elec       q    Type
REMARK                         _______ _______ _______ _____ _____    ______ ____
ROOT
ATOM      1  C   UNL     1       3.125   4.401  17.731  0.00  0.00    +0.000 C 
ATOM      2  O   UNL     1       2.320   3.944  16.917  0.00  0.00    +0.000 OA
ATOM      3  N   UNL     1       4.487   4.289  17.487  0.00  0.00    +0.000 N 
ATOM      4  C   UNL     1       5.600   4.356  18.417  0.00  0.00    +0.000 C 
ATOM      5  C   UNL     1       6.791   4.734  17.548  0.00  0.00    +0.000 C 
ATOM      6  C   UNL     1       6.483   4.093  16.180  0.00  0.00    +0.000 C 
ATOM      7  C   UNL     1       4.948   4.084  16.122  0.00  0.00    +0.000 C 
ENDROOT
BRANCH   1  12
ATOM      8  N   UNL     1       1.949   6.830  20.042  0.00  0.00    +0.000 N 
ATOM      9  C   UNL     1       1.592   5.744  20.777  0.00  0.00    +0.000 A 
ATOM     10  C   UNL     1       2.034   4.652  20.071  0.00  0.00    +0.000 A 
ATOM     11 CL   UNL     1       1.821   3.028  20.515  0.00  0.00    +0.000 Cl
ATOM     12  C   UNL     1       2.658   5.172  18.901  0.00  0.00    +0.000 A 
ATOM     13  N   UNL     1       2.627   6.524  18.924  0.00  0.00    +0.000 NA
BRANCH   8  14
ATOM     14  C   UNL     1       1.661   8.218  20.361  0.00  0.00    +0.000 C 
BRANCH  14  16
ATOM     15  C   UNL     1      -0.268   8.944  21.863  0.00  0.00    +0.000 C 
ATOM     16  C   UNL     1       1.170   8.449  21.790  0.00  0.00    +0.000 C 
ENDBRANCH  14  16
ENDBRANCH   8  14
ENDBRANCH   1  12
BRANCH   6  17
ATOM     17  N   UNL     1       7.119   4.843  15.103  0.00  0.00    +0.000 N 
ATOM     18  C   UNL     1       6.992   4.475  13.784  0.00  0.00    +0.000 C 
ATOM     19  C   UNL     1       7.785   5.343  12.846  0.00  0.00    +0.000 C 
ATOM     20  O   UNL     1       6.316   3.526  13.406  0.00  0.00    +0.000 OA
ATOM     21  H   UNL     1       7.875   5.470  15.352  0.00  0.00    +0.000 HD
ENDBRANCH   6  17
BRANCH   5  22
ATOM     22  O   UNL     1       8.041   4.289  18.065  0.00  0.00    +0.000 OA
ATOM     23  H   UNL     1       8.452   5.025  18.552  0.00  0.00    +0.000 HD
ENDBRANCH   5  22
TORSDOF 5
ENDMDL
MODEL 2
REMARK VINA RESULT:      -7.0      3.137      4.323
REMARK  Name = 
REMARK  7 active torsions:
REMARK  status: ('A' for Active; 'I' for Inactive)
REMARK    1  A    between atoms: C_1  and  C_2
REMARK    2  A    between atoms: C_2  and  C_3
REMARK    3  A    between atoms: C_3  and  N_4
REMARK    4  A    between atoms: C_8  and  C_9
REMARK    5  A    between atoms: C_13  and  O_14
REMARK    6  A    between atoms: C_15  and  N_16
REMARK    7  A    between atoms: C_17  and  C_18
REMARK                            x       y       z     vdW  Elec       q    Type
REMARK                         _______ _______ _______ _____ _____    ______ ____
ROOT
ATOM      1  C   UNL     1       4.960   5.093  16.997  0.00  0.00    +0.000 C 
ATOM      2  O   UNL     1       5.072   5.265  15.782  0.00  0.00    +0.000 OA
ATOM      3  N   UNL     1       6.048   5.327  17.827  0.00  0.00    +0.000 N 
ATOM      4  C   UNL     1       6.312   4.832  19.166  0.00  0.00    +0.000 C 
ATOM      5  C   UNL     1       7.298   5.835  19.748  0.00  0.00    +0.000 C 
ATOM      6  C   UNL     1       8.109   6.321  18.530  0.00  0.00    +0.000 C 
ATOM      7  C   UNL     1       7.118   6.197  17.363  0.00  0.00    +0.000 C 
ENDROOT
BRANCH   1  12
ATOM      8  N   UNL     1       2.158   3.629  18.620  0.00  0.00    +0.000 N 
ATOM      9  C   UNL     1       1.726   4.914  18.713  0.00  0.00    +0.000 A 
ATOM     10  C   UNL     1       2.665   5.674  18.059  0.00  0.00    +0.000 A 
ATOM     11 CL   UNL     1       2.642   7.363  17.900  0.00  0.00    +0.000 Cl
ATOM     12  C   UNL     1       3.651   4.757  17.593  0.00  0.00    +0.000 A 
ATOM     13  N   UNL     1       3.296   3.493  17.919  0.00  0.00    +0.000 NA
BRANCH   8  14
ATOM     14  C   UNL     1       1.517   2.461  19.198  0.00  0.00    +0.000 C 
BRANCH  14  16
ATOM     15  C   UNL     1       2.410   2.774  21.566  0.00  0.00    +0.000 C 
ATOM     16  C   UNL     1       1.183   2.594  20.684  0.00  0.00    +0.000 C 
ENDBRANCH  14  16
ENDBRANCH   8  14
ENDBRANCH   1  12
BRANCH   6  17
ATOM     17  N   UNL     1       8.610   7.673  18.750  0.00  0.00    +0.000 N 
ATOM     18  C   UNL     1       8.155   8.747  18.022  0.00  0.00    +0.000 C 
ATOM     19  C   UNL     1       8.855  10.035  18.362  0.00  0.00    +0.000 C 
ATOM     20  O   UNL     1       7.279   8.668  17.170  0.00  0.00    +0.000 OA
ATOM     21  H   UNL     1       9.488   7.772  19.247  0.00  0.00    +0.000 HD
ENDBRANCH   6  17
BRANCH   5  22
ATOM     22  O   UNL     1       8.144   5.287  20.755  0.00  0.00    +0.000 OA
ATOM     23  H   UNL     1       8.777   5.973  21.031  0.00  0.00    +0.000 HD
ENDBRANCH   5  22
TORSDOF 5
ENDMDL
MODEL 3
REMARK VINA RESULT:      -6.9      1.775      2.074
REMARK  Name = 
REMARK  7 active torsions:
REMARK  status: ('A' for Active; 'I' for Inactive)
REMARK    1  A    between atoms: C_1  and  C_2
REMARK    2  A    between atoms: C_2  and  C_3
REMARK    3  A    between atoms: C_3  and  N_4
REMARK    4  A    between atoms: C_8  and  C_9
REMARK    5  A    between atoms: C_13  and  O_14
REMARK    6  A    between atoms: C_15  and  N_16
REMARK    7  A    between atoms: C_17  and  C_18
REMARK                            x       y       z     vdW  Elec       q    Type
REMARK                         _______ _______ _______ _____ _____    ______ ____
ROOT
ATOM      1  C   UNL     1       4.626   3.959  19.166  0.00  0.00    +0.000 C 
ATOM      2  O   UNL     1       5.277   3.035  19.657  0.00  0.00    +0.000 OA
ATOM      3  N   UNL     1       5.046   4.537  17.975  0.00  0.00    +0.000 N 
ATOM      4  C   UNL     1       4.731   5.842  17.420  0.00  0.00    +0.000 C 
ATOM      5  C   UNL     1       4.982   5.683  15.927  0.00  0.00    +0.000 C 
ATOM      6  C   UNL     1       6.123   4.650  15.841  0.00  0.00    +0.000 C 
ATOM      7  C   UNL     1       5.922   3.783  17.092  0.00  0.00    +0.000 C 
ENDROOT
BRANCH   1  12
ATOM      8  N   UNL     1       1.822   5.675  20.514  0.00  0.00    +0.000 N 
ATOM      9  C   UNL     1       1.164   4.519  20.231  0.00  0.00    +0.000 A 
ATOM     10  C   UNL     1       2.116   3.656  19.744  0.00  0.00    +0.000 A 
ATOM     11 CL   UNL     1       1.837   2.074  19.199  0.00  0.00    +0.000 Cl
ATOM     12  C   UNL     1       3.343   4.379  19.764  0.00  0.00    +0.000 A 
ATOM     13  N   UNL     1       3.143   5.613  20.281  0.00  0.00    +0.000 NA
BRANCH   8  14
ATOM     14  C   UNL     1       1.229   6.902  21.017  0.00  0.00    +0.000 C 
BRANCH  14  16
ATOM     15  C   UNL     1       0.655   9.296  20.351  0.00  0.00    +0.000 C 
ATOM     16  C   UNL     1       1.671   8.166  20.277  0.00  0.00    +0.000 C 
ENDBRANCH  14  16
ENDBRANCH   8  14
ENDBRANCH   1  12
BRANCH   6  17
ATOM     17  N   UNL     1       6.059   3.914  14.584  0.00  0.00    +0.000 N 
ATOM     18  C   UNL     1       6.736   4.328  13.461  0.00  0.00    +0.000 C 
ATOM     19  C   UNL     1       6.476   3.463  12.257  0.00  0.00    +0.000 C 
ATOM     20  O   UNL     1       7.466   5.311  13.431  0.00  0.00    +0.000 OA
ATOM     21  H   UNL     1       5.300   3.254  14.466  0.00  0.00    +0.000 HD
ENDBRANCH   6  17
BRANCH   5  22
ATOM     22  O   UNL     1       5.326   6.901  15.273  0.00  0.00    +0.000 OA
ATOM     23  H   UNL     1       5.856   7.440  15.886  0.00  0.00    +0.000 HD
ENDBRANCH   5  22
TORSDOF 5
ENDMDL
MODEL 4
REMARK VINA RESULT:      -6.7      2.605      7.476
REMARK  Name = 
REMARK  7 active torsions:
REMARK  status: ('A' for Active; 'I' for Inactive)
REMARK    1  A    between atoms: C_1  and  C_2
REMARK    2  A    between atoms: C_2  and  C_3
REMARK    3  A    between atoms: C_3  and  N_4
REMARK    4  A    between atoms: C_8  and  C_9
REMARK    5  A    between atoms: C_13  and  O_14
REMARK    6  A    between atoms: C_15  and  N_16
REMARK    7  A    between atoms: C_17  and  C_18
REMARK                            x       y       z     vdW  Elec       q    Type
REMARK                         _______ _______ _______ _____ _____    ______ ____
ROOT
ATOM      1  C   UNL     1       4.102   4.413  18.405  0.00  0.00    +0.000 C 
ATOM      2  O   UNL     1       3.914   3.365  19.027  0.00  0.00    +0.000 OA
ATOM      3  N   UNL     1       3.273   5.503  18.632  0.00  0.00    +0.000 N 
ATOM      4  C   UNL     1       3.012   6.656  17.788  0.00  0.00    +0.000 C 
ATOM      5  C   UNL     1       2.518   7.723  18.755  0.00  0.00    +0.000 C 
ATOM      6  C   UNL     1       1.793   6.929  19.860  0.00  0.00    +0.000 C 
ATOM      7  C   UNL     1       2.530   5.582  19.881  0.00  0.00    +0.000 C 
ENDROOT
BRANCH   1  12
ATOM      8  N   UNL     1       6.384   4.748  15.703  0.00  0.00    +0.000 N 
ATOM      9  C   UNL     1       7.211   5.254  16.657  0.00  0.00    +0.000 A 
ATOM     10  C   UNL     1       6.525   5.149  17.841  0.00  0.00    +0.000 A 
ATOM     11 CL   UNL     1       7.077   5.667  19.360  0.00  0.00    +0.000 Cl
ATOM     12  C   UNL     1       5.269   4.561  17.513  0.00  0.00    +0.000 A 
ATOM     13  N   UNL     1       5.220   4.286  16.190  0.00  0.00    +0.000 NA
BRANCH   8  14
ATOM     14  C   UNL     1       6.653   4.682  14.277  0.00  0.00    +0.000 C 
BRANCH  14  16
ATOM     15  C   UNL     1       5.573   3.640  12.215  0.00  0.00    +0.000 C 
ATOM     16  C   UNL     1       6.158   3.403  13.600  0.00  0.00    +0.000 C 
ENDBRANCH  14  16
ENDBRANCH   8  14
ENDBRANCH   1  12
BRANCH   6  17
ATOM     17  N   UNL     1       1.829   7.652  21.125  0.00  0.00    +0.000 N 
ATOM     18  C   UNL     1       0.910   8.625  21.436  0.00  0.00    +0.000 C 
ATOM     19  C   UNL     1       1.173   9.292  22.759  0.00  0.00    +0.000 C 
ATOM     20  O   UNL     1      -0.024   8.936  20.707  0.00  0.00    +0.000 OA
ATOM     21  H   UNL     1       2.694   7.627  21.654  0.00  0.00    +0.000 HD
ENDBRANCH   6  17
BRANCH   5  22
ATOM     22  O   UNL     1       1.660   8.688  18.153  0.00  0.00    +0.000 OA
ATOM     23  H   UNL     1       1.168   8.254  17.434  0.00  0.00    +0.000 HD
ENDBRANCH   5  22
TORSDOF 5
ENDMDL
MODEL 5
REMARK VINA RESULT:      -6.7      3.678      6.945
REMARK  Name = 
REMARK  7 active torsions:
REMARK  status: ('A' for Active; 'I' for Inactive)
REMARK    1  A    between atoms: C_1  and  C_2
REMARK    2  A    between atoms: C_2  and  C_3
REMARK    3  A    between atoms: C_3  and  N_4
REMARK    4  A    between atoms: C_8  and  C_9
REMARK    5  A    between atoms: C_13  and  O_14
REMARK    6  A    between atoms: C_15  and  N_16
REMARK    7  A    between atoms: C_17  and  C_18
REMARK                            x       y       z     vdW  Elec       q    Type
REMARK                         _______ _______ _______ _____ _____    ______ ____
ROOT
ATOM      1  C   UNL     1       3.525   6.860  18.026  0.00  0.00    +0.000 C 
ATOM      2  O   UNL     1       4.152   7.128  16.999  0.00  0.00    +0.000 OA
ATOM      3  N   UNL     1       2.660   7.802  18.568  0.00  0.00    +0.000 N 
ATOM      4  C   UNL     1       2.144   7.912  19.921  0.00  0.00    +0.000 C 
ATOM      5  C   UNL     1       0.870   8.732  19.770  0.00  0.00    +0.000 C 
ATOM      6  C   UNL     1       1.158   9.666  18.578  0.00  0.00    +0.000 C 
ATOM      7  C   UNL     1       2.140   8.860  17.715  0.00  0.00    +0.000 C 
ENDROOT
BRANCH   1  12
ATOM      8  N   UNL     1       3.043   3.492  19.052  0.00  0.00    +0.000 N 
ATOM      9  C   UNL     1       4.369   3.548  19.350  0.00  0.00    +0.000 A 
ATOM     10  C   UNL     1       4.758   4.838  19.083  0.00  0.00    +0.000 A 
ATOM     11 CL   UNL     1       6.331   5.454  19.245  0.00  0.00    +0.000 Cl
ATOM     12  C   UNL     1       3.591   5.509  18.620  0.00  0.00    +0.000 A 
ATOM     13  N   UNL     1       2.533   4.667  18.646  0.00  0.00    +0.000 NA
BRANCH   8  14
ATOM     14  C   UNL     1       2.191   2.319  19.133  0.00  0.00    +0.000 C 
BRANCH  14  16
ATOM     15  C   UNL     1       1.395   2.736  21.520  0.00  0.00    +0.000 C 
ATOM     16  C   UNL     1       0.996   2.470  20.075  0.00  0.00    +0.000 C 
ENDBRANCH  14  16
ENDBRANCH   8  14
ENDBRANCH   1  12
BRANCH   6  17
ATOM     17  N   UNL     1      -0.078  10.031  17.897  0.00  0.00    +0.000 N 
ATOM     18  C   UNL     1      -0.872  11.066  18.332  0.00  0.00    +0.000 C 
ATOM     19  C   UNL     1      -2.134  11.226  17.528  0.00  0.00    +0.000 C 
ATOM     20  O   UNL     1      -0.595  11.779  19.288  0.00  0.00    +0.000 OA
ATOM     21  H   UNL     1      -0.487   9.348  17.269  0.00  0.00    +0.000 HD
ENDBRANCH   6  17
BRANCH   5  22
ATOM     22  O   UNL     1       0.521   9.467  20.939  0.00  0.00    +0.000 OA
ATOM     23  H   UNL     1       0.651   8.891  21.713  0.00  0.00    +0.000 HD
ENDBRANCH   5  22
TORSDOF 5
ENDMDL
MODEL 6
REMARK VINA RESULT:      -6.6      3.464      7.702
REMARK  Name = 
REMARK  7 active torsions:
REMARK  status: ('A' for Active; 'I' for Inactive)
REMARK    1  A    between atoms: C_1  and  C_2
REMARK    2  A    between atoms: C_2  and  C_3
REMARK    3  A    between atoms: C_3  and  N_4
REMARK    4  A    between atoms: C_8  and  C_9
REMARK    5  A    between atoms: C_13  and  O_14
REMARK    6  A    between atoms: C_15  and  N_16
REMARK    7  A    between atoms: C_17  and  C_18
REMARK                            x       y       z     vdW  Elec       q    Type
REMARK                         _______ _______ _______ _____ _____    ______ ____
ROOT
ATOM      1  C   UNL     1       5.547   5.455  15.194  0.00  0.00    +0.000 C 
ATOM      2  O   UNL     1       5.528   6.686  15.128  0.00  0.00    +0.000 OA
ATOM      3  N   UNL     1       5.147   4.824  16.363  0.00  0.00    +0.000 N 
ATOM      4  C   UNL     1       5.450   3.486  16.841  0.00  0.00    +0.000 C 
ATOM      5  C   UNL     1       4.326   3.176  17.821  0.00  0.00    +0.000 C 
ATOM      6  C   UNL     1       3.956   4.547  18.421  0.00  0.00    +0.000 C 
ATOM      7  C   UNL     1       4.286   5.537  17.294  0.00  0.00    +0.000 C 
ENDROOT
BRANCH   1  12
ATOM      8  N   UNL     1       5.580   3.423  12.279  0.00  0.00    +0.000 N 
ATOM      9  C   UNL     1       6.825   3.942  12.109  0.00  0.00    +0.000 A 
ATOM     10  C   UNL     1       7.052   4.736  13.207  0.00  0.00    +0.000 A 
ATOM     11 CL   UNL     1       8.447   5.659  13.494  0.00  0.00    +0.000 Cl
ATOM     12  C   UNL     1       5.877   4.642  14.006  0.00  0.00    +0.000 A 
ATOM     13  N   UNL     1       4.995   3.793  13.430  0.00  0.00    +0.000 NA
BRANCH   8  14
ATOM     14  C   UNL     1       4.877   2.551  11.355  0.00  0.00    +0.000 C 
BRANCH  14  16
ATOM     15  C   UNL     1       3.319   4.002   9.951  0.00  0.00    +0.000 C 
ATOM     16  C   UNL     1       3.436   2.969  11.063  0.00  0.00    +0.000 C 
ENDBRANCH  14  16
ENDBRANCH   8  14
ENDBRANCH   1  12
BRANCH   6  17
ATOM     17  N   UNL     1       2.562   4.565  18.847  0.00  0.00    +0.000 N 
ATOM     18  C   UNL     1       2.158   4.027  20.046  0.00  0.00    +0.000 C 
ATOM     19  C   UNL     1       0.669   4.090  20.254  0.00  0.00    +0.000 C 
ATOM     20  O   UNL     1       2.925   3.529  20.860  0.00  0.00    +0.000 OA
ATOM     21  H   UNL     1       1.857   4.729  18.136  0.00  0.00    +0.000 HD
ENDBRANCH   6  17
BRANCH   5  22
ATOM     22  O   UNL     1       4.691   2.242  18.832  0.00  0.00    +0.000 OA
ATOM     23  H   UNL     1       4.447   2.615  19.698  0.00  0.00    +0.000 HD
ENDBRANCH   5  22
TORSDOF 5
ENDMDL
MODEL 7
REMARK VINA RESULT:      -6.5      3.886      6.337
REMARK  Name = 
REMARK  7 active torsions:
REMARK  status: ('A' for Active; 'I' for Inactive)
REMARK    1  A    between atoms: C_1  and  C_2
REMARK    2  A    between atoms: C_2  and  C_3
REMARK    3  A    between atoms: C_3  and  N_4
REMARK    4  A    between atoms: C_8  and  C_9
REMARK    5  A    between atoms: C_13  and  O_14
REMARK    6  A    between atoms: C_15  and  N_16
REMARK    7  A    between atoms: C_17  and  C_18
REMARK                            x       y       z     vdW  Elec       q    Type
REMARK                         _______ _______ _______ _____ _____    ______ ____
ROOT
ATOM      1  C   UNL     1       6.799   6.106  16.595  0.00  0.00    +0.000 C 
ATOM      2  O   UNL     1       7.328   5.443  15.701  0.00  0.00    +0.000 OA
ATOM      3  N   UNL     1       5.480   5.855  16.947  0.00  0.00    +0.000 N 
ATOM      4  C   UNL     1       4.527   6.713  17.631  0.00  0.00    +0.000 C 
ATOM      5  C   UNL     1       3.511   5.745  18.222  0.00  0.00    +0.000 C 
ATOM      6  C   UNL     1       3.479   4.571  17.223  0.00  0.00    +0.000 C 
ATOM      7  C   UNL     1       4.896   4.561  16.630  0.00  0.00    +0.000 C 
ENDROOT
BRANCH   1  12
ATOM      8  N   UNL     1       8.318   8.968  18.055  0.00  0.00    +0.000 N 
ATOM      9  C   UNL     1       8.596   8.116  19.078  0.00  0.00    +0.000 A 
ATOM     10  C   UNL     1       8.138   6.886  18.676  0.00  0.00    +0.000 A 
ATOM     11 CL   UNL     1       8.197   5.457  19.589  0.00  0.00    +0.000 Cl
ATOM     12  C   UNL     1       7.587   7.081  17.377  0.00  0.00    +0.000 A 
ATOM     13  N   UNL     1       7.744   8.370  16.998  0.00  0.00    +0.000 NA
BRANCH   8  14
ATOM     14  C   UNL     1       8.577  10.397  18.029  0.00  0.00    +0.000 C 
BRANCH  14  16
ATOM     15  C   UNL     1       9.472  11.555  20.118  0.00  0.00    +0.000 C 
ATOM     16  C   UNL     1       9.810  10.829  18.823  0.00  0.00    +0.000 C 
ENDBRANCH  14  16
ENDBRANCH   8  14
ENDBRANCH   1  12
BRANCH   6  17
ATOM     17  N   UNL     1       3.102   3.333  17.894  0.00  0.00    +0.000 N 
ATOM     18  C   UNL     1       1.788   2.998  18.122  0.00  0.00    +0.000 C 
ATOM     19  C   UNL     1       1.626   1.714  18.890  0.00  0.00    +0.000 C 
ATOM     20  O   UNL     1       0.839   3.679  17.755  0.00  0.00    +0.000 OA
ATOM     21  H   UNL     1       3.815   2.855  18.433  0.00  0.00    +0.000 HD
ENDBRANCH   6  17
BRANCH   5  22
ATOM     22  O   UNL     1       2.218   6.315  18.402  0.00  0.00    +0.000 OA
ATOM     23  H   UNL     1       1.551   5.640  18.180  0.00  0.00    +0.000 HD
ENDBRANCH   5  22
TORSDOF 5
ENDMDL
MODEL 8
REMARK VINA RESULT:      -6.5      2.431      7.231
REMARK  Name = 
REMARK  7 active torsions:
REMARK  status: ('A' for Active; 'I' for Inactive)
REMARK    1  A    between atoms: C_1  and  C_2
REMARK    2  A    between atoms: C_2  and  C_3
REMARK    3  A    between atoms: C_3  and  N_4
REMARK    4  A    between atoms: C_8  and  C_9
REMARK    5  A    between atoms: C_13  and  O_14
REMARK    6  A    between atoms: C_15  and  N_16
REMARK    7  A    between atoms: C_17  and  C_18
REMARK                            x       y       z     vdW  Elec       q    Type
REMARK                         _______ _______ _______ _____ _____    ______ ____
ROOT
ATOM      1  C   UNL     1       5.856   4.300  17.990  0.00  0.00    +0.000 C 
ATOM      2  O   UNL     1       6.658   4.246  18.924  0.00  0.00    +0.000 OA
ATOM      3  N   UNL     1       4.493   4.302  18.255  0.00  0.00    +0.000 N 
ATOM      4  C   UNL     1       3.383   3.953  17.386  0.00  0.00    +0.000 C 
ATOM      5  C   UNL     1       2.188   4.670  18.000  0.00  0.00    +0.000 C 
ATOM      6  C   UNL     1       2.493   4.691  19.512  0.00  0.00    +0.000 C 
ATOM      7  C   UNL     1       4.028   4.712  19.571  0.00  0.00    +0.000 C 
ENDROOT
BRANCH   1  12
ATOM      8  N   UNL     1       6.459   4.215  14.489  0.00  0.00    +0.000 N 
ATOM      9  C   UNL     1       7.014   5.437  14.704  0.00  0.00    +0.000 A 
ATOM     10  C   UNL     1       6.947   5.647  16.059  0.00  0.00    +0.000 A 
ATOM     11 CL   UNL     1       7.468   7.039  16.877  0.00  0.00    +0.000 Cl
ATOM     12  C   UNL     1       6.326   4.485  16.602  0.00  0.00    +0.000 A 
ATOM     13  N   UNL     1       6.069   3.596  15.616  0.00  0.00    +0.000 NA
BRANCH   8  14
ATOM     14  C   UNL     1       6.265   3.571  13.202  0.00  0.00    +0.000 C 
BRANCH  14  16
ATOM     15  C   UNL     1       4.619   2.927  11.363  0.00  0.00    +0.000 C 
ATOM     16  C   UNL     1       4.883   3.794  12.586  0.00  0.00    +0.000 C 
ENDBRANCH  14  16
ENDBRANCH   8  14
ENDBRANCH   1  12
BRANCH   6  17
ATOM     17  N   UNL     1       1.852   5.833  20.152  0.00  0.00    +0.000 N 
ATOM     18  C   UNL     1       2.112   7.126  19.765  0.00  0.00    +0.000 C 
ATOM     19  C   UNL     1       1.398   8.152  20.603  0.00  0.00    +0.000 C 
ATOM     20  O   UNL     1       2.860   7.422  18.843  0.00  0.00    +0.000 OA
ATOM     21  H   UNL     1       1.427   5.683  21.060  0.00  0.00    +0.000 HD
ENDBRANCH   6  17
BRANCH   5  22
ATOM     22  O   UNL     1       0.941   4.040  17.726  0.00  0.00    +0.000 OA
ATOM     23  H   UNL     1       0.615   3.632  18.548  0.00  0.00    +0.000 HD
ENDBRANCH   5  22
TORSDOF 5
ENDMDL
MODEL 9
REMARK VINA RESULT:      -6.4      3.271      7.278
REMARK  Name = 
REMARK  7 active torsions:
REMARK  status: ('A' for Active; 'I' for Inactive)
REMARK    1  A    between atoms: C_1  and  C_2
REMARK    2  A    between atoms: C_2  and  C_3
REMARK    3  A    between atoms: C_3  and  N_4
REMARK    4  A    between atoms: C_8  and  C_9
REMARK    5  A    between atoms: C_13  and  O_14
REMARK    6  A    between atoms: C_15  and  N_16
REMARK    7  A    between atoms: C_17  and  C_18
REMARK                            x       y       z     vdW  Elec       q    Type
REMARK                         _______ _______ _______ _____ _____    ______ ____
ROOT
ATOM      1  C   UNL     1       2.725   5.948  19.688  0.00  0.00    +0.000 C 
ATOM      2  O   UNL     1       2.377   5.371  20.720  0.00  0.00    +0.000 OA
ATOM      3  N   UNL     1       2.142   7.162  19.350  0.00  0.00    +0.000 N 
ATOM      4  C   UNL     1       2.057   7.818  18.057  0.00  0.00    +0.000 C 
ATOM      5  C   UNL     1       1.847   9.287  18.397  0.00  0.00    +0.000 C 
ATOM      6  C   UNL     1       1.055   9.263  19.719  0.00  0.00    +0.000 C 
ATOM      7  C   UNL     1       1.514   7.960  20.392  0.00  0.00    +0.000 C 
ENDROOT
BRANCH   1  12
ATOM      8  N   UNL     1       5.836   4.963  18.283  0.00  0.00    +0.000 N 
ATOM      9  C   UNL     1       5.073   4.090  17.574  0.00  0.00    +0.000 A 
ATOM     10  C   UNL     1       3.772   4.358  17.926  0.00  0.00    +0.000 A 
ATOM     11 CL   UNL     1       2.400   3.535  17.362  0.00  0.00    +0.000 Cl
ATOM     12  C   UNL     1       3.837   5.423  18.870  0.00  0.00    +0.000 A 
ATOM     13  N   UNL     1       5.122   5.807  19.045  0.00  0.00    +0.000 NA
BRANCH   8  14
ATOM     14  C   UNL     1       7.287   5.039  18.279  0.00  0.00    +0.000 C 
BRANCH  14  16
ATOM     15  C   UNL     1       7.725   7.465  17.627  0.00  0.00    +0.000 C 
ATOM     16  C   UNL     1       7.849   6.396  18.703  0.00  0.00    +0.000 C 
ENDBRANCH  14  16
ENDBRANCH   8  14
ENDBRANCH   1  12
BRANCH   6  17
ATOM     17  N   UNL     1       1.317  10.466  20.500  0.00  0.00    +0.000 N 
ATOM     18  C   UNL     1       0.625  11.635  20.292  0.00  0.00    +0.000 C 
ATOM     19  C   UNL     1       1.101  12.770  21.157  0.00  0.00    +0.000 C 
ATOM     20  O   UNL     1      -0.278  11.754  19.474  0.00  0.00    +0.000 OA
ATOM     21  H   UNL     1       2.194  10.514  21.006  0.00  0.00    +0.000 HD
ENDBRANCH   6  17
BRANCH   5  22
ATOM     22  O   UNL     1       1.156  10.014  17.385  0.00  0.00    +0.000 OA
ATOM     23  H   UNL     1       0.239   9.690  17.346  0.00  0.00    +0.000 HD
ENDBRANCH   5  22
TORSDOF 5
ENDMDL
