MODEL 1
REMARK VINA RESULT:      -8.3      0.000      0.000
REMARK  Name = 
REMARK  10 active torsions:
REMARK  status: ('A' for Active; 'I' for Inactive)
REMARK    1  A    between atoms: C_1  and  C_2
REMARK    2  A    between atoms: C_2  and  C_3
REMARK    3  A    between atoms: C_3  and  C_4
REMARK    4  A    between atoms: C_4  and  C_5
REMARK    5  A    between atoms: C_5  and  C_6
REMARK    6  A    between atoms: C_6  and  N_7
REMARK    7  A    between atoms: C_9  and  O_10
REMARK    8  A    between atoms: C_11  and  N_12
REMARK    9  A    between atoms: C_14  and  C_15
REMARK   10  A    between atoms: C_25  and  C_26
REMARK                            x       y       z     vdW  Elec       q    Type
REMARK                         _______ _______ _______ _____ _____    ______ ____
ROOT
ATOM      1  N   UNL     1       6.044   4.082  17.118  0.00  0.00    +0.000 NA
ATOM      2  C   UNL     1       6.321   5.129  18.129  0.00  0.00    +0.000 C 
ATOM      3  C   UNL     1       6.074   6.570  17.654  0.00  0.00    +0.000 C 
ATOM      4  C   UNL     1       4.712   6.709  16.943  0.00  0.00    +0.000 C 
ATOM      5  C   UNL     1       4.328   5.516  16.041  0.00  0.00    +0.000 C 
ATOM      6  C   UNL     1       4.610   4.127  16.678  0.00  0.00    +0.000 C 
ENDROOT
BRANCH   6   7
ATOM      7  C   UNL     1       3.547   3.756  17.734  0.00  0.00    +0.000 A 
ATOM      8  C   UNL     1       2.178   3.992  17.479  0.00  0.00    +0.000 A 
ATOM      9  C   UNL     1       1.215   3.897  18.486  0.00  0.00    +0.000 A 
ATOM     10  C   UNL     1       1.583   3.474  19.754  0.00  0.00    +0.000 A 
ATOM     11  C   UNL     1       2.899   3.081  19.988  0.00  0.00    +0.000 A 
ATOM     12  C   UNL     1       3.868   3.200  18.981  0.00  0.00    +0.000 A 
ENDBRANCH   6   7
BRANCH   4  13
ATOM     13  N   UNL     1       3.655   7.054  17.879  0.00  0.00    +0.000 N 
ATOM     14  C   UNL     1       2.711   8.023  17.717  0.00  0.00    +0.000 A 
ATOM     15  C   UNL     1       2.134   8.116  18.963  0.00  0.00    +0.000 A 
ATOM     16  N   UNL     1       2.685   7.177  19.792  0.00  0.00    +0.000 NA
ATOM     17  N   UNL     1       3.624   6.539  19.118  0.00  0.00    +0.000 NA
BRANCH  15  18
ATOM     18  C   UNL     1       1.129   9.060  19.389  0.00  0.00    +0.000 A 
ATOM     19  C   UNL     1       0.532   9.896  18.433  0.00  0.00    +0.000 A 
ATOM     20  C   UNL     1      -0.467  10.791  18.807  0.00  0.00    +0.000 A 
ATOM     21  C   UNL     1      -0.868  10.849  20.135  0.00  0.00    +0.000 A 
ATOM     22  F   UNL     1      -1.834  11.703  20.495  0.00  0.00    +0.000 F 
ATOM     23  C   UNL     1      -0.293  10.027  21.097  0.00  0.00    +0.000 A 
ATOM     24  C   UNL     1       0.709   9.131  20.726  0.00  0.00    +0.000 A 
ENDBRANCH  15  18
ENDBRANCH   4  13
BRANCH   3  25
ATOM     25  O   UNL     1       7.165   7.035  16.841  0.00  0.00    +0.000 OA
ATOM     26  H   UNL     1       7.208   6.527  16.013  0.00  0.00    +0.000 HD
ENDBRANCH   3  25
BRANCH   1  27
ATOM     27  C   UNL     1       6.960   4.169  15.951  0.00  0.00    +0.000 C 
BRANCH  27  28
ATOM     28  C   UNL     1       6.449   3.701  14.578  0.00  0.00    +0.000 C 
BRANCH  28  29
ATOM     29  C   UNL     1       6.899   4.610  13.445  0.00  0.00    +0.000 C 
BRANCH  29  30
ATOM     30  C   UNL     1       6.826   3.921  12.081  0.00  0.00    +0.000 C 
BRANCH  30  32
ATOM     31  C   UNL     1       4.470   3.334  11.445  0.00  0.00    +0.000 C 
ATOM     32  C   UNL     1       5.779   2.810  12.012  0.00  0.00    +0.000 C 
ENDBRANCH  30  32
ENDBRANCH  29  30
ENDBRANCH  28  29
ENDBRANCH  27  28
ENDBRANCH   1  27
TORSDOF 9
ENDMDL
MODEL 2
REMARK VINA RESULT:      -8.2      0.576      1.078
REMARK  Name = 
REMARK  10 active torsions:
REMARK  status: ('A' for Active; 'I' for Inactive)
REMARK    1  A    between atoms: C_1  and  C_2
REMARK    2  A    between atoms: C_2  and  C_3
REMARK    3  A    between atoms: C_3  and  C_4
REMARK    4  A    between atoms: C_4  and  C_5
REMARK    5  A    between atoms: C_5  and  C_6
REMARK    6  A    between atoms: C_6  and  N_7
REMARK    7  A    between atoms: C_9  and  O_10
REMARK    8  A    between atoms: C_11  and  N_12
REMARK    9  A    between atoms: C_14  and  C_15
REMARK   10  A    between atoms: C_25  and  C_26
REMARK                            x       y       z     vdW  Elec       q    Type
REMARK                         _______ _______ _______ _____ _____    ______ ____
ROOT
ATOM      1  N   UNL     1       5.903   4.007  17.009  0.00  0.00    +0.000 NA
ATOM      2  C   UNL     1       6.242   4.948  18.102  0.00  0.00    +0.000 C 
ATOM      3  C   UNL     1       5.959   6.427  17.796  0.00  0.00    +0.000 C 
ATOM      4  C   UNL     1       4.553   6.625  17.193  0.00  0.00    +0.000 C 
ATOM      5  C   UNL     1       4.115   5.528  16.200  0.00  0.00    +0.000 C 
ATOM      6  C   UNL     1       4.443   4.083  16.670  0.00  0.00    +0.000 C 
ENDROOT
BRANCH   6   7
ATOM      7  C   UNL     1       3.453   3.594  17.748  0.00  0.00    +0.000 A 
ATOM      8  C   UNL     1       2.070   3.840  17.608  0.00  0.00    +0.000 A 
ATOM      9  C   UNL     1       1.174   3.632  18.660  0.00  0.00    +0.000 A 
ATOM     10  C   UNL     1       1.627   3.085  19.851  0.00  0.00    +0.000 A 
ATOM     11  C   UNL     1       2.956   2.685  19.958  0.00  0.00    +0.000 A 
ATOM     12  C   UNL     1       3.857   2.917  18.908  0.00  0.00    +0.000 A 
ENDBRANCH   6   7
BRANCH   4  13
ATOM     13  N   UNL     1       3.558   6.860  18.227  0.00  0.00    +0.000 N 
ATOM     14  C   UNL     1       2.635   7.862  18.252  0.00  0.00    +0.000 A 
ATOM     15  C   UNL     1       2.129   7.796  19.530  0.00  0.00    +0.000 A 
ATOM     16  N   UNL     1       2.697   6.741  20.191  0.00  0.00    +0.000 NA
ATOM     17  N   UNL     1       3.580   6.182  19.384  0.00  0.00    +0.000 NA
BRANCH  15  18
ATOM     18  C   UNL     1       1.176   8.693  20.137  0.00  0.00    +0.000 A 
ATOM     19  C   UNL     1       0.859   8.532  21.495  0.00  0.00    +0.000 A 
ATOM     20  C   UNL     1      -0.029   9.406  22.117  0.00  0.00    +0.000 A 
ATOM     21  C   UNL     1      -0.598  10.438  21.383  0.00  0.00    +0.000 A 
ATOM     22  F   UNL     1      -1.446  11.283  21.983  0.00  0.00    +0.000 F 
ATOM     23  C   UNL     1      -0.295  10.617  20.039  0.00  0.00    +0.000 A 
ATOM     24  C   UNL     1       0.593   9.743  19.412  0.00  0.00    +0.000 A 
ENDBRANCH  15  18
ENDBRANCH   4  13
BRANCH   3  25
ATOM     25  O   UNL     1       6.993   6.985  16.967  0.00  0.00    +0.000 OA
ATOM     26  H   UNL     1       7.759   6.388  16.938  0.00  0.00    +0.000 HD
ENDBRANCH   3  25
BRANCH   1  27
ATOM     27  C   UNL     1       6.740   4.224  15.800  0.00  0.00    +0.000 C 
BRANCH  27  28
ATOM     28  C   UNL     1       6.314   3.558  14.481  0.00  0.00    +0.000 C 
BRANCH  28  29
ATOM     29  C   UNL     1       6.624   4.418  13.265  0.00  0.00    +0.000 C 
BRANCH  29  30
ATOM     30  C   UNL     1       6.740   3.592  11.982  0.00  0.00    +0.000 C 
BRANCH  30  32
ATOM     31  C   UNL     1       4.309   3.304  11.426  0.00  0.00    +0.000 C 
ATOM     32  C   UNL     1       5.600   2.591  11.794  0.00  0.00    +0.000 C 
ENDBRANCH  30  32
ENDBRANCH  29  30
ENDBRANCH  28  29
ENDBRANCH  27  28
ENDBRANCH   1  27
TORSDOF 9
ENDMDL
MODEL 3
REMARK VINA RESULT:      -8.0      0.875      1.609
REMARK  Name = 
REMARK  10 active torsions:
REMARK  status: ('A' for Active; 'I' for Inactive)
REMARK    1  A    between atoms: C_1  and  C_2
REMARK    2  A    between atoms: C_2  and  C_3
REMARK    3  A    between atoms: C_3  and  C_4
REMARK    4  A    between atoms: C_4  and  C_5
REMARK    5  A    between atoms: C_5  and  C_6
REMARK    6  A    between atoms: C_6  and  N_7
REMARK    7  A    between atoms: C_9  and  O_10
REMARK    8  A    between atoms: C_11  and  N_12
REMARK    9  A    between atoms: C_14  and  C_15
REMARK   10  A    between atoms: C_25  and  C_26
REMARK                            x       y       z     vdW  Elec       q    Type
REMARK                         _______ _______ _______ _____ _____    ______ ____
ROOT
ATOM      1  N   UNL     1       6.085   4.084  16.671  0.00  0.00    +0.000 NA
ATOM      2  C   UNL     1       6.409   4.922  17.849  0.00  0.00    +0.000 C 
ATOM      3  C   UNL     1       6.152   6.426  17.667  0.00  0.00    +0.000 C 
ATOM      4  C   UNL     1       4.763   6.695  17.052  0.00  0.00    +0.000 C 
ATOM      5  C   UNL     1       4.335   5.694  15.957  0.00  0.00    +0.000 C 
ATOM      6  C   UNL     1       4.634   4.210  16.306  0.00  0.00    +0.000 C 
ENDROOT
BRANCH   6   7
ATOM      7  C   UNL     1       3.613   3.643  17.316  0.00  0.00    +0.000 A 
ATOM      8  C   UNL     1       4.024   2.721  18.302  0.00  0.00    +0.000 A 
ATOM      9  C   UNL     1       3.103   2.007  19.072  0.00  0.00    +0.000 A 
ATOM     10  C   UNL     1       1.747   2.264  18.939  0.00  0.00    +0.000 A 
ATOM     11  C   UNL     1       1.326   3.283  18.088  0.00  0.00    +0.000 A 
ATOM     12  C   UNL     1       2.252   3.982  17.299  0.00  0.00    +0.000 A 
ENDBRANCH   6   7
BRANCH   4  13
ATOM     13  N   UNL     1       3.747   6.854  18.079  0.00  0.00    +0.000 N 
ATOM     14  C   UNL     1       2.828   7.857  18.165  0.00  0.00    +0.000 A 
ATOM     15  C   UNL     1       2.295   7.692  19.422  0.00  0.00    +0.000 A 
ATOM     16  N   UNL     1       2.843   6.584  20.009  0.00  0.00    +0.000 NA
ATOM     17  N   UNL     1       3.740   6.086  19.179  0.00  0.00    +0.000 NA
BRANCH  15  18
ATOM     18  C   UNL     1       1.333   8.545  20.078  0.00  0.00    +0.000 A 
ATOM     19  C   UNL     1       1.032   8.317  21.430  0.00  0.00    +0.000 A 
ATOM     20  C   UNL     1       0.136   9.147  22.100  0.00  0.00    +0.000 A 
ATOM     21  C   UNL     1      -0.458  10.201  21.419  0.00  0.00    +0.000 A 
ATOM     22  F   UNL     1      -1.315  11.002  22.064  0.00  0.00    +0.000 F 
ATOM     23  C   UNL     1      -0.172  10.445  20.081  0.00  0.00    +0.000 A 
ATOM     24  C   UNL     1       0.724   9.616  19.407  0.00  0.00    +0.000 A 
ENDBRANCH  15  18
ENDBRANCH   4  13
BRANCH   3  25
ATOM     25  O   UNL     1       7.212   7.039  16.912  0.00  0.00    +0.000 OA
ATOM     26  H   UNL     1       7.367   7.945  17.226  0.00  0.00    +0.000 HD
ENDBRANCH   3  25
BRANCH   1  27
ATOM     27  C   UNL     1       6.953   4.393  15.504  0.00  0.00    +0.000 C 
BRANCH  27  28
ATOM     28  C   UNL     1       6.291   4.633  14.138  0.00  0.00    +0.000 C 
BRANCH  28  29
ATOM     29  C   UNL     1       6.594   3.528  13.138  0.00  0.00    +0.000 C 
BRANCH  29  30
ATOM     30  C   UNL     1       5.449   3.309  12.147  0.00  0.00    +0.000 C 
BRANCH  30  32
ATOM     31  C   UNL     1       6.965   1.580  11.139  0.00  0.00    +0.000 C 
ATOM     32  C   UNL     1       5.522   1.970  11.414  0.00  0.00    +0.000 C 
ENDBRANCH  30  32
ENDBRANCH  29  30
ENDBRANCH  28  29
ENDBRANCH  27  28
ENDBRANCH   1  27
TORSDOF 9
ENDMDL
MODEL 4
REMARK VINA RESULT:      -7.7      0.753      1.443
REMARK  Name = 
REMARK  10 active torsions:
REMARK  status: ('A' for Active; 'I' for Inactive)
REMARK    1  A    between atoms: C_1  and  C_2
REMARK    2  A    between atoms: C_2  and  C_3
REMARK    3  A    between atoms: C_3  and  C_4
REMARK    4  A    between atoms: C_4  and  C_5
REMARK    5  A    between atoms: C_5  and  C_6
REMARK    6  A    between atoms: C_6  and  N_7
REMARK    7  A    between atoms: C_9  and  O_10
REMARK    8  A    between atoms: C_11  and  N_12
REMARK    9  A    between atoms: C_14  and  C_15
REMARK   10  A    between atoms: C_25  and  C_26
REMARK                            x       y       z     vdW  Elec       q    Type
REMARK                         _______ _______ _______ _____ _____    ______ ____
ROOT
ATOM      1  N   UNL     1       5.810   4.352  17.784  0.00  0.00    +0.000 NA
ATOM      2  C   UNL     1       6.019   5.555  18.623  0.00  0.00    +0.000 C 
ATOM      3  C   UNL     1       5.704   6.891  17.931  0.00  0.00    +0.000 C 
ATOM      4  C   UNL     1       4.347   6.848  17.200  0.00  0.00    +0.000 C 
ATOM      5  C   UNL     1       4.037   5.512  16.490  0.00  0.00    +0.000 C 
ATOM      6  C   UNL     1       4.381   4.254  17.333  0.00  0.00    +0.000 C 
ENDROOT
BRANCH   6   7
ATOM      7  C   UNL     1       3.324   3.992  18.428  0.00  0.00    +0.000 A 
ATOM      8  C   UNL     1       3.724   3.595  19.722  0.00  0.00    +0.000 A 
ATOM      9  C   UNL     1       2.807   3.120  20.663  0.00  0.00    +0.000 A 
ATOM     10  C   UNL     1       1.453   3.117  20.363  0.00  0.00    +0.000 A 
ATOM     11  C   UNL     1       1.019   3.653  19.154  0.00  0.00    +0.000 A 
ATOM     12  C   UNL     1       1.945   4.108  18.203  0.00  0.00    +0.000 A 
ENDBRANCH   6   7
BRANCH   4  13
ATOM     13  N   UNL     1       3.261   7.275  18.066  0.00  0.00    +0.000 N 
ATOM     14  C   UNL     1       2.328   8.229  17.788  0.00  0.00    +0.000 A 
ATOM     15  C   UNL     1       1.710   8.431  19.001  0.00  0.00    +0.000 A 
ATOM     16  N   UNL     1       2.228   7.567  19.927  0.00  0.00    +0.000 NA
ATOM     17  N   UNL     1       3.187   6.871  19.343  0.00  0.00    +0.000 NA
BRANCH  15  18
ATOM     18  C   UNL     1       0.696   9.411  19.309  0.00  0.00    +0.000 A 
ATOM     19  C   UNL     1       0.449   9.735  20.652  0.00  0.00    +0.000 A 
ATOM     20  C   UNL     1      -0.497  10.704  20.978  0.00  0.00    +0.000 A 
ATOM     21  C   UNL     1      -1.194  11.345  19.963  0.00  0.00    +0.000 A 
ATOM     22  F   UNL     1      -2.099  12.282  20.276  0.00  0.00    +0.000 F 
ATOM     23  C   UNL     1      -0.963  11.041  18.627  0.00  0.00    +0.000 A 
ATOM     24  C   UNL     1      -0.016  10.071  18.297  0.00  0.00    +0.000 A 
ENDBRANCH  15  18
ENDBRANCH   4  13
BRANCH   3  25
ATOM     25  O   UNL     1       6.781   7.283  17.063  0.00  0.00    +0.000 OA
ATOM     26  H   UNL     1       7.377   6.532  16.906  0.00  0.00    +0.000 HD
ENDBRANCH   3  25
BRANCH   1  27
ATOM     27  C   UNL     1       6.735   4.308  16.622  0.00  0.00    +0.000 C 
BRANCH  27  28
ATOM     28  C   UNL     1       6.307   3.527  15.369  0.00  0.00    +0.000 C 
BRANCH  28  29
ATOM     29  C   UNL     1       6.596   4.283  14.081  0.00  0.00    +0.000 C 
BRANCH  29  30
ATOM     30  C   UNL     1       5.736   3.795  12.914  0.00  0.00    +0.000 C 
BRANCH  30  32
ATOM     31  C   UNL     1       5.806   1.799  11.393  0.00  0.00    +0.000 C 
ATOM     32  C   UNL     1       6.529   3.062  11.833  0.00  0.00    +0.000 C 
ENDBRANCH  30  32
ENDBRANCH  29  30
ENDBRANCH  28  29
ENDBRANCH  27  28
ENDBRANCH   1  27
TORSDOF 9
ENDMDL
MODEL 5
REMARK VINA RESULT:      -7.3      0.924      1.118
REMARK  Name = 
REMARK  10 active torsions:
REMARK  status: ('A' for Active; 'I' for Inactive)
REMARK    1  A    between atoms: C_1  and  C_2
REMARK    2  A    between atoms: C_2  and  C_3
REMARK    3  A    between atoms: C_3  and  C_4
REMARK    4  A    between atoms: C_4  and  C_5
REMARK    5  A    between atoms: C_5  and  C_6
REMARK    6  A    between atoms: C_6  and  N_7
REMARK    7  A    between atoms: C_9  and  O_10
REMARK    8  A    between atoms: C_11  and  N_12
REMARK    9  A    between atoms: C_14  and  C_15
REMARK   10  A    between atoms: C_25  and  C_26
REMARK                            x       y       z     vdW  Elec       q    Type
REMARK                         _______ _______ _______ _____ _____    ______ ____
ROOT
ATOM      1  N   UNL     1       6.065   4.188  16.479  0.00  0.00    +0.000 NA
ATOM      2  C   UNL     1       6.443   4.938  17.699  0.00  0.00    +0.000 C 
ATOM      3  C   UNL     1       6.203   6.455  17.628  0.00  0.00    +0.000 C 
ATOM      4  C   UNL     1       4.798   6.784  17.084  0.00  0.00    +0.000 C 
ATOM      5  C   UNL     1       4.316   5.866  15.940  0.00  0.00    +0.000 C 
ATOM      6  C   UNL     1       4.604   4.358  16.176  0.00  0.00    +0.000 C 
ENDROOT
BRANCH   6   7
ATOM      7  C   UNL     1       3.610   3.737  17.181  0.00  0.00    +0.000 A 
ATOM      8  C   UNL     1       2.253   4.127  17.172  0.00  0.00    +0.000 A 
ATOM      9  C   UNL     1       1.380   3.777  18.205  0.00  0.00    +0.000 A 
ATOM     10  C   UNL     1       1.819   2.950  19.228  0.00  0.00    +0.000 A 
ATOM     11  C   UNL     1       3.106   2.422  19.174  0.00  0.00    +0.000 A 
ATOM     12  C   UNL     1       3.988   2.794  18.149  0.00  0.00    +0.000 A 
ENDBRANCH   6   7
BRANCH   4  13
ATOM     13  N   UNL     1       3.822   6.886  18.156  0.00  0.00    +0.000 N 
ATOM     14  C   UNL     1       2.846   7.829  18.278  0.00  0.00    +0.000 A 
ATOM     15  C   UNL     1       2.381   7.640  19.560  0.00  0.00    +0.000 A 
ATOM     16  N   UNL     1       3.024   6.573  20.126  0.00  0.00    +0.000 NA
ATOM     17  N   UNL     1       3.914   6.127  19.258  0.00  0.00    +0.000 NA
BRANCH  15  18
ATOM     18  C   UNL     1       1.397   8.434  20.255  0.00  0.00    +0.000 A 
ATOM     19  C   UNL     1       0.880   9.578  19.627  0.00  0.00    +0.000 A 
ATOM     20  C   UNL     1      -0.098  10.344  20.258  0.00  0.00    +0.000 A 
ATOM     21  C   UNL     1      -0.556   9.967  21.513  0.00  0.00    +0.000 A 
ATOM     22  F   UNL     1      -1.501  10.698  22.116  0.00  0.00    +0.000 F 
ATOM     23  C   UNL     1      -0.059   8.836  22.150  0.00  0.00    +0.000 A 
ATOM     24  C   UNL     1       0.920   8.067  21.522  0.00  0.00    +0.000 A 
ENDBRANCH  15  18
ENDBRANCH   4  13
BRANCH   3  25
ATOM     25  O   UNL     1       7.246   7.103  16.880  0.00  0.00    +0.000 OA
ATOM     26  H   UNL     1       7.394   6.640  16.038  0.00  0.00    +0.000 HD
ENDBRANCH   3  25
BRANCH   1  27
ATOM     27  C   UNL     1       6.895   4.564  15.305  0.00  0.00    +0.000 C 
BRANCH  27  28
ATOM     28  C   UNL     1       6.874   3.654  14.066  0.00  0.00    +0.000 C 
BRANCH  28  29
ATOM     29  C   UNL     1       5.571   3.754  13.288  0.00  0.00    +0.000 C 
BRANCH  29  30
ATOM     30  C   UNL     1       5.759   3.467  11.797  0.00  0.00    +0.000 C 
BRANCH  30  32
ATOM     31  C   UNL     1       6.987   1.417  11.028  0.00  0.00    +0.000 C 
ATOM     32  C   UNL     1       5.638   1.986  11.439  0.00  0.00    +0.000 C 
ENDBRANCH  30  32
ENDBRANCH  29  30
ENDBRANCH  28  29
ENDBRANCH  27  28
ENDBRANCH   1  27
TORSDOF 9
ENDMDL
MODEL 6
REMARK VINA RESULT:      -7.2      0.944      1.788
REMARK  Name = 
REMARK  10 active torsions:
REMARK  status: ('A' for Active; 'I' for Inactive)
REMARK    1  A    between atoms: C_1  and  C_2
REMARK    2  A    between atoms: C_2  and  C_3
REMARK    3  A    between atoms: C_3  and  C_4
REMARK    4  A    between atoms: C_4  and  C_5
REMARK    5  A    between atoms: C_5  and  C_6
REMARK    6  A    between atoms: C_6  and  N_7
REMARK    7  A    between atoms: C_9  and  O_10
REMARK    8  A    between atoms: C_11  and  N_12
REMARK    9  A    between atoms: C_14  and  C_15
REMARK   10  A    between atoms: C_25  and  C_26
REMARK                            x       y       z     vdW  Elec       q    Type
REMARK                         _______ _______ _______ _____ _____    ______ ____
ROOT
ATOM      1  N   UNL     1       5.717   4.208  17.455  0.00  0.00    +0.000 NA
ATOM      2  C   UNL     1       6.020   5.272  18.440  0.00  0.00    +0.000 C 
ATOM      3  C   UNL     1       5.634   6.693  18.000  0.00  0.00    +0.000 C 
ATOM      4  C   UNL     1       4.203   6.741  17.424  0.00  0.00    +0.000 C 
ATOM      5  C   UNL     1       3.814   5.525  16.556  0.00  0.00    +0.000 C 
ATOM      6  C   UNL     1       4.248   4.158  17.155  0.00  0.00    +0.000 C 
ENDROOT
BRANCH   6   7
ATOM      7  C   UNL     1       3.318   3.717  18.306  0.00  0.00    +0.000 A 
ATOM      8  C   UNL     1       3.863   3.246  19.520  0.00  0.00    +0.000 A 
ATOM      9  C   UNL     1       3.074   2.618  20.486  0.00  0.00    +0.000 A 
ATOM     10  C   UNL     1       1.703   2.526  20.303  0.00  0.00    +0.000 A 
ATOM     11  C   UNL     1       1.121   3.126  19.189  0.00  0.00    +0.000 A 
ATOM     12  C   UNL     1       1.919   3.735  18.209  0.00  0.00    +0.000 A 
ENDBRANCH   6   7
BRANCH   4  13
ATOM     13  N   UNL     1       3.221   7.015  18.459  0.00  0.00    +0.000 N 
ATOM     14  C   UNL     1       2.359   8.069  18.502  0.00  0.00    +0.000 A 
ATOM     15  C   UNL     1       1.845   8.008  19.777  0.00  0.00    +0.000 A 
ATOM     16  N   UNL     1       2.347   6.909  20.419  0.00  0.00    +0.000 NA
ATOM     17  N   UNL     1       3.198   6.314  19.603  0.00  0.00    +0.000 NA
BRANCH  15  18
ATOM     18  C   UNL     1       0.945   8.949  20.399  0.00  0.00    +0.000 A 
ATOM     19  C   UNL     1       0.738   8.878  21.785  0.00  0.00    +0.000 A 
ATOM     20  C   UNL     1      -0.096   9.795  22.419  0.00  0.00    +0.000 A 
ATOM     21  C   UNL     1      -0.722  10.782  21.668  0.00  0.00    +0.000 A 
ATOM     22  F   UNL     1      -1.518  11.668  22.278  0.00  0.00    +0.000 F 
ATOM     23  C   UNL     1      -0.527  10.872  20.295  0.00  0.00    +0.000 A 
ATOM     24  C   UNL     1       0.307   9.954  19.657  0.00  0.00    +0.000 A 
ENDBRANCH  15  18
ENDBRANCH   4  13
BRANCH   3  25
ATOM     25  O   UNL     1       6.608   7.229  17.088  0.00  0.00    +0.000 OA
ATOM     26  H   UNL     1       6.189   7.865  16.485  0.00  0.00    +0.000 HD
ENDBRANCH   3  25
BRANCH   1  27
ATOM     27  C   UNL     1       6.509   4.355  16.206  0.00  0.00    +0.000 C 
BRANCH  27  28
ATOM     28  C   UNL     1       6.207   3.414  15.028  0.00  0.00    +0.000 C 
BRANCH  28  29
ATOM     29  C   UNL     1       5.818   4.164  13.763  0.00  0.00    +0.000 C 
BRANCH  29  30
ATOM     30  C   UNL     1       6.606   3.692  12.540  0.00  0.00    +0.000 C 
BRANCH  30  32
ATOM     31  C   UNL     1       8.268   5.558  12.786  0.00  0.00    +0.000 C 
ATOM     32  C   UNL     1       7.354   4.817  11.824  0.00  0.00    +0.000 C 
ENDBRANCH  30  32
ENDBRANCH  29  30
ENDBRANCH  28  29
ENDBRANCH  27  28
ENDBRANCH   1  27
TORSDOF 9
ENDMDL
MODEL 7
REMARK VINA RESULT:      -7.2      1.163      1.507
REMARK  Name = 
REMARK  10 active torsions:
REMARK  status: ('A' for Active; 'I' for Inactive)
REMARK    1  A    between atoms: C_1  and  C_2
REMARK    2  A    between atoms: C_2  and  C_3
REMARK    3  A    between atoms: C_3  and  C_4
REMARK    4  A    between atoms: C_4  and  C_5
REMARK    5  A    between atoms: C_5  and  C_6
REMARK    6  A    between atoms: C_6  and  N_7
REMARK    7  A    between atoms: C_9  and  O_10
REMARK    8  A    between atoms: C_11  and  N_12
REMARK    9  A    between atoms: C_14  and  C_15
REMARK   10  A    between atoms: C_25  and  C_26
REMARK                            x       y       z     vdW  Elec       q    Type
REMARK                         _______ _______ _______ _____ _____    ______ ____
ROOT
ATOM      1  N   UNL     1       5.436   3.907  17.918  0.00  0.00    +0.000 NA
ATOM      2  C   UNL     1       5.786   4.963  18.896  0.00  0.00    +0.000 C 
ATOM      3  C   UNL     1       5.464   6.397  18.446  0.00  0.00    +0.000 C 
ATOM      4  C   UNL     1       4.038   6.506  17.868  0.00  0.00    +0.000 C 
ATOM      5  C   UNL     1       3.595   5.303  17.008  0.00  0.00    +0.000 C 
ATOM      6  C   UNL     1       3.966   3.922  17.616  0.00  0.00    +0.000 C 
ENDROOT
BRANCH   6   7
ATOM      7  C   UNL     1       3.016   3.531  18.768  0.00  0.00    +0.000 A 
ATOM      8  C   UNL     1       1.628   3.763  18.656  0.00  0.00    +0.000 A 
ATOM      9  C   UNL     1       0.771   3.650  19.753  0.00  0.00    +0.000 A 
ATOM     10  C   UNL     1       1.267   3.213  20.972  0.00  0.00    +0.000 A 
ATOM     11  C   UNL     1       2.601   2.824  21.067  0.00  0.00    +0.000 A 
ATOM     12  C   UNL     1       3.464   2.960  19.969  0.00  0.00    +0.000 A 
ENDBRANCH   6   7
BRANCH   4  13
ATOM     13  N   UNL     1       3.068   6.831  18.901  0.00  0.00    +0.000 N 
ATOM     14  C   UNL     1       2.222   7.899  18.912  0.00  0.00    +0.000 A 
ATOM     15  C   UNL     1       1.718   7.890  20.193  0.00  0.00    +0.000 A 
ATOM     16  N   UNL     1       2.209   6.807  20.869  0.00  0.00    +0.000 NA
ATOM     17  N   UNL     1       3.045   6.171  20.069  0.00  0.00    +0.000 NA
BRANCH  15  18
ATOM     18  C   UNL     1       0.837   8.865  20.788  0.00  0.00    +0.000 A 
ATOM     19  C   UNL     1       0.245   9.838  19.967  0.00  0.00    +0.000 A 
ATOM     20  C   UNL     1      -0.639  10.769  20.506  0.00  0.00    +0.000 A 
ATOM     21  C   UNL     1      -0.931  10.728  21.863  0.00  0.00    +0.000 A 
ATOM     22  F   UNL     1      -1.786  11.618  22.380  0.00  0.00    +0.000 F 
ATOM     23  C   UNL     1      -0.358   9.771  22.693  0.00  0.00    +0.000 A 
ATOM     24  C   UNL     1       0.528   8.837  22.156  0.00  0.00    +0.000 A 
ENDBRANCH  15  18
ENDBRANCH   4  13
BRANCH   3  25
ATOM     25  O   UNL     1       6.463   6.882  17.533  0.00  0.00    +0.000 OA
ATOM     26  H   UNL     1       6.930   6.137  17.118  0.00  0.00    +0.000 HD
ENDBRANCH   3  25
BRANCH   1  27
ATOM     27  C   UNL     1       6.234   4.010  16.668  0.00  0.00    +0.000 C 
BRANCH  27  28
ATOM     28  C   UNL     1       5.714   3.311  15.402  0.00  0.00    +0.000 C 
BRANCH  28  29
ATOM     29  C   UNL     1       5.739   4.216  14.180  0.00  0.00    +0.000 C 
BRANCH  29  30
ATOM     30  C   UNL     1       6.999   5.082  14.122  0.00  0.00    +0.000 C 
BRANCH  30  32
ATOM     31  C   UNL     1       7.045   4.028  11.844  0.00  0.00    +0.000 C 
ATOM     32  C   UNL     1       7.751   4.981  12.795  0.00  0.00    +0.000 C 
ENDBRANCH  30  32
ENDBRANCH  29  30
ENDBRANCH  28  29
ENDBRANCH  27  28
ENDBRANCH   1  27
TORSDOF 9
ENDMDL
MODEL 8
REMARK VINA RESULT:      -7.1      1.301      2.164
REMARK  Name = 
REMARK  10 active torsions:
REMARK  status: ('A' for Active; 'I' for Inactive)
REMARK    1  A    between atoms: C_1  and  C_2
REMARK    2  A    between atoms: C_2  and  C_3
REMARK    3  A    between atoms: C_3  and  C_4
REMARK    4  A    between atoms: C_4  and  C_5
REMARK    5  A    between atoms: C_5  and  C_6
REMARK    6  A    between atoms: C_6  and  N_7
REMARK    7  A    between atoms: C_9  and  O_10
REMARK    8  A    between atoms: C_11  and  N_12
REMARK    9  A    between atoms: C_14  and  C_15
REMARK   10  A    between atoms: C_25  and  C_26
REMARK                            x       y       z     vdW  Elec       q    Type
REMARK                         _______ _______ _______ _____ _____    ______ ____
ROOT
ATOM      1  N   UNL     1       4.719   4.096  17.727  0.00  0.00    +0.000 NA
ATOM      2  C   UNL     1       5.220   5.257  18.498  0.00  0.00    +0.000 C 
ATOM      3  C   UNL     1       4.711   6.625  18.015  0.00  0.00    +0.000 C 
ATOM      4  C   UNL     1       3.186   6.617  17.787  0.00  0.00    +0.000 C 
ATOM      5  C   UNL     1       2.631   5.317  17.166  0.00  0.00    +0.000 C 
ATOM      6  C   UNL     1       3.221   4.020  17.785  0.00  0.00    +0.000 C 
ENDROOT
BRANCH   6   7
ATOM      7  C   UNL     1       2.594   3.706  19.161  0.00  0.00    +0.000 A 
ATOM      8  C   UNL     1       3.401   3.241  20.221  0.00  0.00    +0.000 A 
ATOM      9  C   UNL     1       2.848   2.722  21.395  0.00  0.00    +0.000 A 
ATOM     10  C   UNL     1       1.474   2.740  21.575  0.00  0.00    +0.000 A 
ATOM     11  C   UNL     1       0.666   3.340  20.612  0.00  0.00    +0.000 A 
ATOM     12  C   UNL     1       1.222   3.839  19.425  0.00  0.00    +0.000 A 
ENDBRANCH   6   7
BRANCH   4  13
ATOM     13  N   UNL     1       2.465   7.003  18.990  0.00  0.00    +0.000 N 
ATOM     14  C   UNL     1       1.602   8.049  19.118  0.00  0.00    +0.000 A 
ATOM     15  C   UNL     1       1.406   8.133  20.478  0.00  0.00    +0.000 A 
ATOM     16  N   UNL     1       2.081   7.119  21.100  0.00  0.00    +0.000 NA
ATOM     17  N   UNL     1       2.736   6.440  20.177  0.00  0.00    +0.000 NA
BRANCH  15  18
ATOM     18  C   UNL     1       0.645   9.134  21.187  0.00  0.00    +0.000 A 
ATOM     19  C   UNL     1       0.267   8.885  22.515  0.00  0.00    +0.000 A 
ATOM     20  C   UNL     1      -0.436   9.847  23.237  0.00  0.00    +0.000 A 
ATOM     21  C   UNL     1      -0.758  11.054  22.632  0.00  0.00    +0.000 A 
ATOM     22  F   UNL     1      -1.427  11.982  23.328  0.00  0.00    +0.000 F 
ATOM     23  C   UNL     1      -0.390  11.322  21.319  0.00  0.00    +0.000 A 
ATOM     24  C   UNL     1       0.313  10.360  20.593  0.00  0.00    +0.000 A 
ENDBRANCH  15  18
ENDBRANCH   4  13
BRANCH   3  25
ATOM     25  O   UNL     1       5.436   7.058  16.851  0.00  0.00    +0.000 OA
ATOM     26  H   UNL     1       5.911   6.309  16.453  0.00  0.00    +0.000 HD
ENDBRANCH   3  25
BRANCH   1  27
ATOM     27  C   UNL     1       5.194   4.107  16.319  0.00  0.00    +0.000 C 
BRANCH  27  28
ATOM     28  C   UNL     1       6.677   4.405  16.045  0.00  0.00    +0.000 C 
BRANCH  28  29
ATOM     29  C   UNL     1       7.006   4.424  14.560  0.00  0.00    +0.000 C 
BRANCH  29  30
ATOM     30  C   UNL     1       6.140   3.451  13.759  0.00  0.00    +0.000 C 
BRANCH  30  32
ATOM     31  C   UNL     1       4.877   3.289  11.596  0.00  0.00    +0.000 C 
ATOM     32  C   UNL     1       6.190   3.687  12.250  0.00  0.00    +0.000 C 
ENDBRANCH  30  32
ENDBRANCH  29  30
ENDBRANCH  28  29
ENDBRANCH  27  28
ENDBRANCH   1  27
TORSDOF 9
ENDMDL
MODEL 9
REMARK VINA RESULT:      -6.8      4.089     10.238
REMARK  Name = 
REMARK  10 active torsions:
REMARK  status: ('A' for Active; 'I' for Inactive)
REMARK    1  A    between atoms: C_1  and  C_2
REMARK    2  A    between atoms: C_2  and  C_3
REMARK    3  A    between atoms: C_3  and  C_4
REMARK    4  A    between atoms: C_4  and  C_5
REMARK    5  A    between atoms: C_5  and  C_6
REMARK    6  A    between atoms: C_6  and  N_7
REMARK    7  A    between atoms: C_9  and  O_10
REMARK    8  A    between atoms: C_11  and  N_12
REMARK    9  A    between atoms: C_14  and  C_15
REMARK   10  A    between atoms: C_25  and  C_26
REMARK                            x       y       z     vdW  Elec       q    Type
REMARK                         _______ _______ _______ _____ _____    ______ ____
ROOT
ATOM      1  N   UNL     1      -1.081  13.361  20.023  0.00  0.00    +0.000 NA
ATOM      2  C   UNL     1       0.291  13.422  19.467  0.00  0.00    +0.000 C 
ATOM      3  C   UNL     1       1.345  12.622  20.251  0.00  0.00    +0.000 C 
ATOM      4  C   UNL     1       0.849  11.199  20.581  0.00  0.00    +0.000 C 
ATOM      5  C   UNL     1      -0.642  11.107  20.967  0.00  0.00    +0.000 C 
ATOM      6  C   UNL     1      -1.583  11.947  20.059  0.00  0.00    +0.000 C 
ENDROOT
BRANCH   6   7
ATOM      7  C   UNL     1      -1.825  11.261  18.696  0.00  0.00    +0.000 A 
ATOM      8  C   UNL     1      -1.875  12.028  17.513  0.00  0.00    +0.000 A 
ATOM      9  C   UNL     1      -2.325  11.490  16.305  0.00  0.00    +0.000 A 
ATOM     10  C   UNL     1      -2.651  10.145  16.230  0.00  0.00    +0.000 A 
ATOM     11  C   UNL     1      -2.457   9.331  17.343  0.00  0.00    +0.000 A 
ATOM     12  C   UNL     1      -2.027   9.880  18.560  0.00  0.00    +0.000 A 
ENDBRANCH   6   7
BRANCH   4  13
ATOM     13  N   UNL     1       1.207  10.255  19.536  0.00  0.00    +0.000 N 
ATOM     14  C   UNL     1       1.497   8.933  19.700  0.00  0.00    +0.000 A 
ATOM     15  C   UNL     1       2.011   8.566  18.478  0.00  0.00    +0.000 A 
ATOM     16  N   UNL     1       1.950   9.630  17.619  0.00  0.00    +0.000 NA
ATOM     17  N   UNL     1       1.465  10.663  18.284  0.00  0.00    +0.000 NA
BRANCH  15  18
ATOM     18  C   UNL     1       2.571   7.286  18.117  0.00  0.00    +0.000 A 
ATOM     19  C   UNL     1       1.810   6.127  18.332  0.00  0.00    +0.000 A 
ATOM     20  C   UNL     1       2.309   4.880  17.960  0.00  0.00    +0.000 A 
ATOM     21  C   UNL     1       3.565   4.795  17.375  0.00  0.00    +0.000 A 
ATOM     22  F   UNL     1       4.041   3.598  17.011  0.00  0.00    +0.000 F 
ATOM     23  C   UNL     1       4.333   5.931  17.151  0.00  0.00    +0.000 A 
ATOM     24  C   UNL     1       3.837   7.180  17.522  0.00  0.00    +0.000 A 
ENDBRANCH  15  18
ENDBRANCH   4  13
BRANCH   3  25
ATOM     25  O   UNL     1       1.764  13.341  21.423  0.00  0.00    +0.000 OA
ATOM     26  H   UNL     1       1.403  14.243  21.412  0.00  0.00    +0.000 HD
ENDBRANCH   3  25
BRANCH   1  27
ATOM     27  C   UNL     1      -1.173  13.989  21.367  0.00  0.00    +0.000 C 
BRANCH  27  28
ATOM     28  C   UNL     1      -2.535  14.524  21.838  0.00  0.00    +0.000 C 
BRANCH  28  29
ATOM     29  C   UNL     1      -3.168  13.650  22.910  0.00  0.00    +0.000 C 
BRANCH  29  30
ATOM     30  C   UNL     1      -4.578  13.193  22.532  0.00  0.00    +0.000 C 
BRANCH  30  32
ATOM     31  C   UNL     1      -4.672  12.326  24.886  0.00  0.00    +0.000 C 
ATOM     32  C   UNL     1      -5.475  12.915  23.738  0.00  0.00    +0.000 C 
ENDBRANCH  30  32
ENDBRANCH  29  30
ENDBRANCH  28  29
ENDBRANCH  27  28
ENDBRANCH   1  27
TORSDOF 9
ENDMDL
