MODEL 1
REMARK VINA RESULT:      -7.5      0.000      0.000
REMARK  Name = 
REMARK  2 active torsions:
REMARK  status: ('A' for Active; 'I' for Inactive)
REMARK    1  A    between atoms: C_12  and  C_13
REMARK    2  A    between atoms: N_20  and  C_21
REMARK                            x       y       z     vdW  Elec       q    Type
REMARK                         _______ _______ _______ _____ _____    ______ ____
ROOT
ATOM      1  O   UNL     1      -4.183  13.678  20.522  0.00  0.00    +0.000 OA
ATOM      2  C   UNL     1      -3.665  12.799  19.841  0.00  0.00    +0.000 A 
ATOM      3  O   UNL     1      -4.206  12.505  18.585  0.00  0.00    +0.000 OA
ATOM      4  C   UNL     1      -3.648  11.538  17.721  0.00  0.00    +0.000 A 
ATOM      5  C   UNL     1      -4.343  11.374  16.522  0.00  0.00    +0.000 A 
ATOM      6  C   UNL     1      -3.878  10.456  15.594  0.00  0.00    +0.000 A 
ATOM      7  C   UNL     1      -2.764   9.683  15.906  0.00  0.00    +0.000 A 
ATOM      8  C   UNL     1      -2.110   9.824  17.143  0.00  0.00    +0.000 A 
ATOM      9  C   UNL     1      -2.499  10.803  18.060  0.00  0.00    +0.000 A 
ATOM     10  C   UNL     1      -1.876  11.111  19.360  0.00  0.00    +0.000 A 
ATOM     11  C   UNL     1      -2.493  12.018  20.234  0.00  0.00    +0.000 A 
ATOM     12  C   UNL     1      -1.787  12.015  21.474  0.00  0.00    +0.000 A 
ATOM     13  C   UNL     1      -0.739  11.139  21.304  0.00  0.00    +0.000 A 
ATOM     14  N   UNL     1      -0.725  10.639  20.004  0.00  0.00    +0.000 N 
ENDROOT
BRANCH  12  15
ATOM     15  C   UNL     1      -2.010  12.780  22.700  0.00  0.00    +0.000 A 
ATOM     16  C   UNL     1      -3.153  12.565  23.476  0.00  0.00    +0.000 A 
ATOM     17  C   UNL     1      -3.477  13.418  24.533  0.00  0.00    +0.000 A 
ATOM     18  C   UNL     1      -2.623  14.462  24.872  0.00  0.00    +0.000 A 
ATOM     19  C   UNL     1      -1.433  14.635  24.170  0.00  0.00    +0.000 A 
ATOM     20  C   UNL     1      -1.129  13.803  23.084  0.00  0.00    +0.000 A 
ENDBRANCH  12  15
BRANCH  14  21
ATOM     21  C   UNL     1       0.362   9.843  19.520  0.00  0.00    +0.000 A 
ATOM     22  C   UNL     1       0.852   8.788  20.311  0.00  0.00    +0.000 A 
ATOM     23  C   UNL     1       1.909   7.991  19.860  0.00  0.00    +0.000 A 
ATOM     24  C   UNL     1       2.483   8.235  18.618  0.00  0.00    +0.000 A 
ATOM     25  C   UNL     1       2.030   9.303  17.843  0.00  0.00    +0.000 A 
ATOM     26  C   UNL     1       0.994  10.124  18.305  0.00  0.00    +0.000 A 
ENDBRANCH  14  21
TORSDOF 2
ENDMDL
MODEL 2
REMARK VINA RESULT:      -7.4      4.729      8.246
REMARK  Name = 
REMARK  2 active torsions:
REMARK  status: ('A' for Active; 'I' for Inactive)
REMARK    1  A    between atoms: C_12  and  C_13
REMARK    2  A    between atoms: N_20  and  C_21
REMARK                            x       y       z     vdW  Elec       q    Type
REMARK                         _______ _______ _______ _____ _____    ______ ____
ROOT
ATOM      1  O   UNL     1       0.413   6.718  20.889  0.00  0.00    +0.000 OA
ATOM      2  C   UNL     1       1.368   6.044  20.517  0.00  0.00    +0.000 A 
ATOM      3  O   UNL     1       1.594   4.799  21.113  0.00  0.00    +0.000 OA
ATOM      4  C   UNL     1       2.644   3.942  20.718  0.00  0.00    +0.000 A 
ATOM      5  C   UNL     1       2.717   2.753  21.445  0.00  0.00    +0.000 A 
ATOM      6  C   UNL     1       3.706   1.833  21.135  0.00  0.00    +0.000 A 
ATOM      7  C   UNL     1       4.633   2.143  20.145  0.00  0.00    +0.000 A 
ATOM      8  C   UNL     1       4.577   3.371  19.461  0.00  0.00    +0.000 A 
ATOM      9  C   UNL     1       3.539   4.278  19.687  0.00  0.00    +0.000 A 
ATOM     10  C   UNL     1       3.312   5.566  19.008  0.00  0.00    +0.000 A 
ATOM     11  C   UNL     1       2.311   6.435  19.470  0.00  0.00    +0.000 A 
ATOM     12  C   UNL     1       2.405   7.666  18.756  0.00  0.00    +0.000 A 
ATOM     13  C   UNL     1       3.430   7.496  17.853  0.00  0.00    +0.000 A 
ATOM     14  N   UNL     1       3.943   6.204  17.932  0.00  0.00    +0.000 N 
ENDROOT
BRANCH  12  15
ATOM     15  C   UNL     1       1.600   8.884  18.845  0.00  0.00    +0.000 A 
ATOM     16  C   UNL     1       1.607   9.659  20.009  0.00  0.00    +0.000 A 
ATOM     17  C   UNL     1       0.700  10.706  20.183  0.00  0.00    +0.000 A 
ATOM     18  C   UNL     1      -0.185  11.037  19.163  0.00  0.00    +0.000 A 
ATOM     19  C   UNL     1      -0.144  10.336  17.960  0.00  0.00    +0.000 A 
ATOM     20  C   UNL     1       0.739   9.260  17.802  0.00  0.00    +0.000 A 
ENDBRANCH  12  15
BRANCH  14  21
ATOM     21  C   UNL     1       4.898   5.719  16.982  0.00  0.00    +0.000 A 
ATOM     22  C   UNL     1       6.186   6.283  16.948  0.00  0.00    +0.000 A 
ATOM     23  C   UNL     1       7.141   5.825  16.035  0.00  0.00    +0.000 A 
ATOM     24  C   UNL     1       6.823   4.798  15.153  0.00  0.00    +0.000 A 
ATOM     25  C   UNL     1       5.537   4.259  15.153  0.00  0.00    +0.000 A 
ATOM     26  C   UNL     1       4.567   4.738  16.043  0.00  0.00    +0.000 A 
ENDBRANCH  14  21
TORSDOF 2
ENDMDL
MODEL 3
REMARK VINA RESULT:      -7.2      5.503     10.218
REMARK  Name = 
REMARK  2 active torsions:
REMARK  status: ('A' for Active; 'I' for Inactive)
REMARK    1  A    between atoms: C_12  and  C_13
REMARK    2  A    between atoms: N_20  and  C_21
REMARK                            x       y       z     vdW  Elec       q    Type
REMARK                         _______ _______ _______ _____ _____    ______ ____
ROOT
ATOM      1  O   UNL     1       4.443   7.632  15.387  0.00  0.00    +0.000 OA
ATOM      2  C   UNL     1       3.908   7.429  16.472  0.00  0.00    +0.000 A 
ATOM      3  O   UNL     1       3.180   8.459  17.076  0.00  0.00    +0.000 OA
ATOM      4  C   UNL     1       2.501   8.297  18.303  0.00  0.00    +0.000 A 
ATOM      5  C   UNL     1       1.850   9.446  18.752  0.00  0.00    +0.000 A 
ATOM      6  C   UNL     1       1.143   9.398  19.943  0.00  0.00    +0.000 A 
ATOM      7  C   UNL     1       1.148   8.222  20.687  0.00  0.00    +0.000 A 
ATOM      8  C   UNL     1       1.857   7.090  20.244  0.00  0.00    +0.000 A 
ATOM      9  C   UNL     1       2.502   7.079  19.005  0.00  0.00    +0.000 A 
ATOM     10  C   UNL     1       3.227   5.957  18.383  0.00  0.00    +0.000 A 
ATOM     11  C   UNL     1       3.959   6.164  17.204  0.00  0.00    +0.000 A 
ATOM     12  C   UNL     1       4.691   4.977  16.903  0.00  0.00    +0.000 A 
ATOM     13  C   UNL     1       4.351   4.071  17.882  0.00  0.00    +0.000 A 
ATOM     14  N   UNL     1       3.403   4.615  18.745  0.00  0.00    +0.000 N 
ENDROOT
BRANCH  12  15
ATOM     15  C   UNL     1       5.589   4.666  15.791  0.00  0.00    +0.000 A 
ATOM     16  C   UNL     1       6.892   5.171  15.766  0.00  0.00    +0.000 A 
ATOM     17  C   UNL     1       7.690   5.049  14.626  0.00  0.00    +0.000 A 
ATOM     18  C   UNL     1       7.216   4.360  13.515  0.00  0.00    +0.000 A 
ATOM     19  C   UNL     1       5.955   3.770  13.556  0.00  0.00    +0.000 A 
ATOM     20  C   UNL     1       5.141   3.927  14.685  0.00  0.00    +0.000 A 
ENDBRANCH  12  15
BRANCH  14  21
ATOM     21  C   UNL     1       2.757   3.820  19.745  0.00  0.00    +0.000 A 
ATOM     22  C   UNL     1       3.537   3.055  20.631  0.00  0.00    +0.000 A 
ATOM     23  C   UNL     1       2.933   2.274  21.621  0.00  0.00    +0.000 A 
ATOM     24  C   UNL     1       1.547   2.250  21.738  0.00  0.00    +0.000 A 
ATOM     25  C   UNL     1       0.764   2.974  20.840  0.00  0.00    +0.000 A 
ATOM     26  C   UNL     1       1.364   3.732  19.827  0.00  0.00    +0.000 A 
ENDBRANCH  14  21
TORSDOF 2
ENDMDL
MODEL 4
REMARK VINA RESULT:      -7.0      4.723      8.221
REMARK  Name = 
REMARK  2 active torsions:
REMARK  status: ('A' for Active; 'I' for Inactive)
REMARK    1  A    between atoms: C_12  and  C_13
REMARK    2  A    between atoms: N_20  and  C_21
REMARK                            x       y       z     vdW  Elec       q    Type
REMARK                         _______ _______ _______ _____ _____    ______ ____
ROOT
ATOM      1  O   UNL     1       0.388   6.636  20.952  0.00  0.00    +0.000 OA
ATOM      2  C   UNL     1       1.354   5.987  20.566  0.00  0.00    +0.000 A 
ATOM      3  O   UNL     1       1.601   4.732  21.131  0.00  0.00    +0.000 OA
ATOM      4  C   UNL     1       2.665   3.903  20.716  0.00  0.00    +0.000 A 
ATOM      5  C   UNL     1       2.759   2.699  21.416  0.00  0.00    +0.000 A 
ATOM      6  C   UNL     1       3.763   1.803  21.084  0.00  0.00    +0.000 A 
ATOM      7  C   UNL     1       4.685   2.152  20.102  0.00  0.00    +0.000 A 
ATOM      8  C   UNL     1       4.607   3.395  19.446  0.00  0.00    +0.000 A 
ATOM      9  C   UNL     1       3.554   4.278  19.694  0.00  0.00    +0.000 A 
ATOM     10  C   UNL     1       3.305   5.578  19.045  0.00  0.00    +0.000 A 
ATOM     11  C   UNL     1       2.290   6.418  19.528  0.00  0.00    +0.000 A 
ATOM     12  C   UNL     1       2.362   7.668  18.843  0.00  0.00    +0.000 A 
ATOM     13  C   UNL     1       3.390   7.537  17.936  0.00  0.00    +0.000 A 
ATOM     14  N   UNL     1       3.925   6.251  17.984  0.00  0.00    +0.000 N 
ENDROOT
BRANCH  12  15
ATOM     15  C   UNL     1       1.537   8.869  18.961  0.00  0.00    +0.000 A 
ATOM     16  C   UNL     1       0.826   9.357  17.861  0.00  0.00    +0.000 A 
ATOM     17  C   UNL     1       0.198  10.603  17.903  0.00  0.00    +0.000 A 
ATOM     18  C   UNL     1       0.215  11.351  19.075  0.00  0.00    +0.000 A 
ATOM     19  C   UNL     1       0.839  10.840  20.211  0.00  0.00    +0.000 A 
ATOM     20  C   UNL     1       1.503   9.608  20.155  0.00  0.00    +0.000 A 
ENDBRANCH  12  15
BRANCH  14  21
ATOM     21  C   UNL     1       4.888   5.805  17.024  0.00  0.00    +0.000 A 
ATOM     22  C   UNL     1       4.532   4.805  16.102  0.00  0.00    +0.000 A 
ATOM     23  C   UNL     1       5.451   4.354  15.149  0.00  0.00    +0.000 A 
ATOM     24  C   UNL     1       6.730   4.898  15.105  0.00  0.00    +0.000 A 
ATOM     25  C   UNL     1       7.104   5.863  16.040  0.00  0.00    +0.000 A 
ATOM     26  C   UNL     1       6.198   6.293  17.016  0.00  0.00    +0.000 A 
ENDBRANCH  14  21
TORSDOF 2
ENDMDL
MODEL 5
REMARK VINA RESULT:      -7.0      9.736     10.664
REMARK  Name = 
REMARK  2 active torsions:
REMARK  status: ('A' for Active; 'I' for Inactive)
REMARK    1  A    between atoms: C_12  and  C_13
REMARK    2  A    between atoms: N_20  and  C_21
REMARK                            x       y       z     vdW  Elec       q    Type
REMARK                         _______ _______ _______ _____ _____    ______ ____
ROOT
ATOM      1  O   UNL     1       6.256  15.168  24.014  0.00  0.00    +0.000 OA
ATOM      2  C   UNL     1       6.752  15.072  22.896  0.00  0.00    +0.000 A 
ATOM      3  O   UNL     1       6.624  16.139  22.001  0.00  0.00    +0.000 OA
ATOM      4  C   UNL     1       7.199  16.127  20.712  0.00  0.00    +0.000 A 
ATOM      5  C   UNL     1       6.942  17.275  19.961  0.00  0.00    +0.000 A 
ATOM      6  C   UNL     1       7.466  17.375  18.682  0.00  0.00    +0.000 A 
ATOM      7  C   UNL     1       8.188  16.306  18.160  0.00  0.00    +0.000 A 
ATOM      8  C   UNL     1       8.389  15.134  18.913  0.00  0.00    +0.000 A 
ATOM      9  C   UNL     1       7.952  15.040  20.236  0.00  0.00    +0.000 A 
ATOM     10  C   UNL     1       8.142  13.911  21.163  0.00  0.00    +0.000 A 
ATOM     11  C   UNL     1       7.496  13.911  22.409  0.00  0.00    +0.000 A 
ATOM     12  C   UNL     1       7.710  12.648  23.038  0.00  0.00    +0.000 A 
ATOM     13  C   UNL     1       8.513  11.934  22.178  0.00  0.00    +0.000 A 
ATOM     14  N   UNL     1       8.854  12.708  21.071  0.00  0.00    +0.000 N 
ENDROOT
BRANCH  12  15
ATOM     15  C   UNL     1       7.266  12.143  24.337  0.00  0.00    +0.000 A 
ATOM     16  C   UNL     1       6.110  11.364  24.442  0.00  0.00    +0.000 A 
ATOM     17  C   UNL     1       5.568  11.043  25.687  0.00  0.00    +0.000 A 
ATOM     18  C   UNL     1       6.214  11.442  26.852  0.00  0.00    +0.000 A 
ATOM     19  C   UNL     1       7.417  12.140  26.768  0.00  0.00    +0.000 A 
ATOM     20  C   UNL     1       7.939  12.495  25.518  0.00  0.00    +0.000 A 
ENDBRANCH  12  15
BRANCH  14  21
ATOM     21  C   UNL     1       9.820  12.259  20.114  0.00  0.00    +0.000 A 
ATOM     22  C   UNL     1       9.385  11.796  18.859  0.00  0.00    +0.000 A 
ATOM     23  C   UNL     1      10.307  11.358  17.903  0.00  0.00    +0.000 A 
ATOM     24  C   UNL     1      11.668  11.381  18.187  0.00  0.00    +0.000 A 
ATOM     25  C   UNL     1      12.106  11.802  19.442  0.00  0.00    +0.000 A 
ATOM     26  C   UNL     1      11.184  12.211  20.414  0.00  0.00    +0.000 A 
ENDBRANCH  14  21
TORSDOF 2
ENDMDL
MODEL 6
REMARK VINA RESULT:      -6.9      1.437      5.969
REMARK  Name = 
REMARK  2 active torsions:
REMARK  status: ('A' for Active; 'I' for Inactive)
REMARK    1  A    between atoms: C_12  and  C_13
REMARK    2  A    between atoms: N_20  and  C_21
REMARK                            x       y       z     vdW  Elec       q    Type
REMARK                         _______ _______ _______ _____ _____    ______ ____
ROOT
ATOM      1  O   UNL     1      -1.895   9.557  17.270  0.00  0.00    +0.000 OA
ATOM      2  C   UNL     1      -2.473  10.419  17.923  0.00  0.00    +0.000 A 
ATOM      3  O   UNL     1      -3.715  10.887  17.482  0.00  0.00    +0.000 OA
ATOM      4  C   UNL     1      -4.466  11.847  18.194  0.00  0.00    +0.000 A 
ATOM      5  C   UNL     1      -5.669  12.201  17.582  0.00  0.00    +0.000 A 
ATOM      6  C   UNL     1      -6.492  13.130  18.199  0.00  0.00    +0.000 A 
ATOM      7  C   UNL     1      -6.070  13.726  19.384  0.00  0.00    +0.000 A 
ATOM      8  C   UNL     1      -4.828  13.398  19.957  0.00  0.00    +0.000 A 
ATOM      9  C   UNL     1      -4.020  12.399  19.407  0.00  0.00    +0.000 A 
ATOM     10  C   UNL     1      -2.732  11.904  19.926  0.00  0.00    +0.000 A 
ATOM     11  C   UNL     1      -1.968  11.009  19.162  0.00  0.00    +0.000 A 
ATOM     12  C   UNL     1      -0.708  10.816  19.804  0.00  0.00    +0.000 A 
ATOM     13  C   UNL     1      -0.759  11.564  20.957  0.00  0.00    +0.000 A 
ATOM     14  N   UNL     1      -2.006  12.170  21.094  0.00  0.00    +0.000 N 
ENDROOT
BRANCH  12  15
ATOM     15  C   UNL     1       0.434   9.982  19.431  0.00  0.00    +0.000 A 
ATOM     16  C   UNL     1       1.096  10.181  18.216  0.00  0.00    +0.000 A 
ATOM     17  C   UNL     1       2.053   9.274  17.759  0.00  0.00    +0.000 A 
ATOM     18  C   UNL     1       2.412   8.185  18.547  0.00  0.00    +0.000 A 
ATOM     19  C   UNL     1       1.831   8.021  19.802  0.00  0.00    +0.000 A 
ATOM     20  C   UNL     1       0.842   8.910  20.241  0.00  0.00    +0.000 A 
ENDBRANCH  12  15
BRANCH  14  21
ATOM     21  C   UNL     1      -2.376  12.861  22.292  0.00  0.00    +0.000 A 
ATOM     22  C   UNL     1      -1.710  14.052  22.636  0.00  0.00    +0.000 A 
ATOM     23  C   UNL     1      -2.055  14.751  23.797  0.00  0.00    +0.000 A 
ATOM     24  C   UNL     1      -3.066  14.272  24.622  0.00  0.00    +0.000 A 
ATOM     25  C   UNL     1      -3.705  13.072  24.310  0.00  0.00    +0.000 A 
ATOM     26  C   UNL     1      -3.341  12.352  23.166  0.00  0.00    +0.000 A 
ENDBRANCH  14  21
TORSDOF 2
ENDMDL
MODEL 7
REMARK VINA RESULT:      -6.8      2.784      4.305
REMARK  Name = 
REMARK  2 active torsions:
REMARK  status: ('A' for Active; 'I' for Inactive)
REMARK    1  A    between atoms: C_12  and  C_13
REMARK    2  A    between atoms: N_20  and  C_21
REMARK                            x       y       z     vdW  Elec       q    Type
REMARK                         _______ _______ _______ _____ _____    ______ ____
ROOT
ATOM      1  O   UNL     1      -1.884  15.408  20.450  0.00  0.00    +0.000 OA
ATOM      2  C   UNL     1      -0.962  14.753  19.975  0.00  0.00    +0.000 A 
ATOM      3  O   UNL     1       0.213  15.409  19.594  0.00  0.00    +0.000 OA
ATOM      4  C   UNL     1       1.336  14.727  19.078  0.00  0.00    +0.000 A 
ATOM      5  C   UNL     1       2.403  15.559  18.736  0.00  0.00    +0.000 A 
ATOM      6  C   UNL     1       3.562  14.994  18.227  0.00  0.00    +0.000 A 
ATOM      7  C   UNL     1       3.610  13.619  18.019  0.00  0.00    +0.000 A 
ATOM      8  C   UNL     1       2.503  12.804  18.318  0.00  0.00    +0.000 A 
ATOM      9  C   UNL     1       1.356  13.331  18.916  0.00  0.00    +0.000 A 
ATOM     10  C   UNL     1       0.151  12.598  19.342  0.00  0.00    +0.000 A 
ATOM     11  C   UNL     1      -0.980  13.304  19.778  0.00  0.00    +0.000 A 
ATOM     12  C   UNL     1      -2.051  12.381  19.972  0.00  0.00    +0.000 A 
ATOM     13  C   UNL     1      -1.530  11.140  19.690  0.00  0.00    +0.000 A 
ATOM     14  N   UNL     1      -0.174  11.236  19.383  0.00  0.00    +0.000 N 
ENDROOT
BRANCH  12  15
ATOM     15  C   UNL     1      -3.425  12.597  20.425  0.00  0.00    +0.000 A 
ATOM     16  C   UNL     1      -3.699  12.863  21.770  0.00  0.00    +0.000 A 
ATOM     17  C   UNL     1      -5.010  12.874  22.251  0.00  0.00    +0.000 A 
ATOM     18  C   UNL     1      -6.073  12.686  21.375  0.00  0.00    +0.000 A 
ATOM     19  C   UNL     1      -5.825  12.513  20.015  0.00  0.00    +0.000 A 
ATOM     20  C   UNL     1      -4.508  12.462  19.541  0.00  0.00    +0.000 A 
ENDBRANCH  12  15
BRANCH  14  21
ATOM     21  C   UNL     1       0.641  10.070  19.221  0.00  0.00    +0.000 A 
ATOM     22  C   UNL     1       0.998   9.314  20.352  0.00  0.00    +0.000 A 
ATOM     23  C   UNL     1       1.788   8.167  20.223  0.00  0.00    +0.000 A 
ATOM     24  C   UNL     1       2.227   7.764  18.967  0.00  0.00    +0.000 A 
ATOM     25  C   UNL     1       1.911   8.529  17.844  0.00  0.00    +0.000 A 
ATOM     26  C   UNL     1       1.147   9.695  17.973  0.00  0.00    +0.000 A 
ENDBRANCH  14  21
TORSDOF 2
ENDMDL
MODEL 8
REMARK VINA RESULT:      -6.8      3.159      6.803
REMARK  Name = 
REMARK  2 active torsions:
REMARK  status: ('A' for Active; 'I' for Inactive)
REMARK    1  A    between atoms: C_12  and  C_13
REMARK    2  A    between atoms: N_20  and  C_21
REMARK                            x       y       z     vdW  Elec       q    Type
REMARK                         _______ _______ _______ _____ _____    ______ ____
ROOT
ATOM      1  O   UNL     1       2.826  12.108  18.017  0.00  0.00    +0.000 OA
ATOM      2  C   UNL     1       1.885  12.761  18.458  0.00  0.00    +0.000 A 
ATOM      3  O   UNL     1       1.930  14.156  18.381  0.00  0.00    +0.000 OA
ATOM      4  C   UNL     1       0.874  14.980  18.826  0.00  0.00    +0.000 A 
ATOM      5  C   UNL     1       1.117  16.347  18.684  0.00  0.00    +0.000 A 
ATOM      6  C   UNL     1       0.143  17.249  19.082  0.00  0.00    +0.000 A 
ATOM      7  C   UNL     1      -1.028  16.770  19.663  0.00  0.00    +0.000 A 
ATOM      8  C   UNL     1      -1.230  15.390  19.848  0.00  0.00    +0.000 A 
ATOM      9  C   UNL     1      -0.308  14.454  19.375  0.00  0.00    +0.000 A 
ATOM     10  C   UNL     1      -0.411  12.985  19.439  0.00  0.00    +0.000 A 
ATOM     11  C   UNL     1       0.683  12.190  19.063  0.00  0.00    +0.000 A 
ATOM     12  C   UNL     1       0.388  10.828  19.369  0.00  0.00    +0.000 A 
ATOM     13  C   UNL     1      -0.889  10.829  19.882  0.00  0.00    +0.000 A 
ATOM     14  N   UNL     1      -1.425  12.115  19.859  0.00  0.00    +0.000 N 
ENDROOT
BRANCH  12  15
ATOM     15  C   UNL     1       1.177   9.613  19.169  0.00  0.00    +0.000 A 
ATOM     16  C   UNL     1       1.616   9.251  17.892  0.00  0.00    +0.000 A 
ATOM     17  C   UNL     1       2.195   8.002  17.656  0.00  0.00    +0.000 A 
ATOM     18  C   UNL     1       2.405   7.122  18.712  0.00  0.00    +0.000 A 
ATOM     19  C   UNL     1       2.059   7.502  20.007  0.00  0.00    +0.000 A 
ATOM     20  C   UNL     1       1.442   8.739  20.235  0.00  0.00    +0.000 A 
ENDBRANCH  12  15
BRANCH  14  21
ATOM     21  C   UNL     1      -2.799  12.359  20.177  0.00  0.00    +0.000 A 
ATOM     22  C   UNL     1      -3.149  12.746  21.483  0.00  0.00    +0.000 A 
ATOM     23  C   UNL     1      -4.482  12.997  21.820  0.00  0.00    +0.000 A 
ATOM     24  C   UNL     1      -5.478  12.868  20.857  0.00  0.00    +0.000 A 
ATOM     25  C   UNL     1      -5.146  12.448  19.570  0.00  0.00    +0.000 A 
ATOM     26  C   UNL     1      -3.816  12.164  19.238  0.00  0.00    +0.000 A 
ENDBRANCH  14  21
TORSDOF 2
ENDMDL
MODEL 9
REMARK VINA RESULT:      -6.8      2.440      3.515
REMARK  Name = 
REMARK  2 active torsions:
REMARK  status: ('A' for Active; 'I' for Inactive)
REMARK    1  A    between atoms: C_12  and  C_13
REMARK    2  A    between atoms: N_20  and  C_21
REMARK                            x       y       z     vdW  Elec       q    Type
REMARK                         _______ _______ _______ _____ _____    ______ ____
ROOT
ATOM      1  O   UNL     1      -7.210  12.851  19.304  0.00  0.00    +0.000 OA
ATOM      2  C   UNL     1      -6.080  12.464  19.024  0.00  0.00    +0.000 A 
ATOM      3  O   UNL     1      -5.839  11.928  17.755  0.00  0.00    +0.000 OA
ATOM      4  C   UNL     1      -4.561  11.498  17.338  0.00  0.00    +0.000 A 
ATOM      5  C   UNL     1      -4.529  10.973  16.045  0.00  0.00    +0.000 A 
ATOM      6  C   UNL     1      -3.322  10.528  15.529  0.00  0.00    +0.000 A 
ATOM      7  C   UNL     1      -2.186  10.565  16.333  0.00  0.00    +0.000 A 
ATOM      8  C   UNL     1      -2.251  11.046  17.653  0.00  0.00    +0.000 A 
ATOM      9  C   UNL     1      -3.432  11.585  18.170  0.00  0.00    +0.000 A 
ATOM     10  C   UNL     1      -3.636  12.180  19.503  0.00  0.00    +0.000 A 
ATOM     11  C   UNL     1      -4.929  12.528  19.923  0.00  0.00    +0.000 A 
ATOM     12  C   UNL     1      -4.875  12.924  21.293  0.00  0.00    +0.000 A 
ATOM     13  C   UNL     1      -3.549  12.847  21.652  0.00  0.00    +0.000 A 
ATOM     14  N   UNL     1      -2.767  12.475  20.561  0.00  0.00    +0.000 N 
ENDROOT
BRANCH  12  15
ATOM     15  C   UNL     1      -5.932  13.384  22.194  0.00  0.00    +0.000 A 
ATOM     16  C   UNL     1      -5.985  14.719  22.607  0.00  0.00    +0.000 A 
ATOM     17  C   UNL     1      -6.861  15.127  23.614  0.00  0.00    +0.000 A 
ATOM     18  C   UNL     1      -7.746  14.216  24.178  0.00  0.00    +0.000 A 
ATOM     19  C   UNL     1      -7.773  12.902  23.715  0.00  0.00    +0.000 A 
ATOM     20  C   UNL     1      -6.866  12.485  22.732  0.00  0.00    +0.000 A 
ENDBRANCH  12  15
BRANCH  14  21
ATOM     21  C   UNL     1      -1.337  12.491  20.625  0.00  0.00    +0.000 A 
ATOM     22  C   UNL     1      -0.646  11.306  20.936  0.00  0.00    +0.000 A 
ATOM     23  C   UNL     1       0.751  11.291  20.999  0.00  0.00    +0.000 A 
ATOM     24  C   UNL     1       1.470  12.455  20.751  0.00  0.00    +0.000 A 
ATOM     25  C   UNL     1       0.793  13.643  20.480  0.00  0.00    +0.000 A 
ATOM     26  C   UNL     1      -0.607  13.670  20.448  0.00  0.00    +0.000 A 
ENDBRANCH  14  21
TORSDOF 2
ENDMDL
