MODEL 1
REMARK VINA RESULT:      -7.5      0.000      0.000
REMARK  Name = 
REMARK  4 active torsions:
REMARK  status: ('A' for Active; 'I' for Inactive)
REMARK    1  A    between atoms: C_2  and  O_3
REMARK    2  A    between atoms: C_2  and  C_4
REMARK    3  A    between atoms: C_8  and  C_10
REMARK    4  A    between atoms: C_16  and  C_17
REMARK                            x       y       z     vdW  Elec       q    Type
REMARK                         _______ _______ _______ _____ _____    ______ ____
ROOT
ATOM      1  C   UNL     1       6.269   5.068  17.545  0.00  0.00    +0.000 C 
ATOM      2  C   UNL     1       6.381   4.115  16.343  0.00  0.00    +0.000 C 
ATOM      3  C   UNL     1       4.941   3.823  15.963  0.00  0.00    +0.000 C 
ATOM      4  N   UNL     1       4.267   3.801  17.246  0.00  0.00    +0.000 N 
ATOM      5  C   UNL     1       3.124   3.035  17.470  0.00  0.00    +0.000 C 
ATOM      6  O   UNL     1       2.587   2.389  16.568  0.00  0.00    +0.000 OA
ATOM      7  C   UNL     1       4.895   4.755  18.168  0.00  0.00    +0.000 C 
ENDROOT
BRANCH   7   8
ATOM      8  C   UNL     1       3.977   5.925  18.496  0.00  0.00    +0.000 A 
ATOM      9  C   UNL     1       3.481   6.072  19.804  0.00  0.00    +0.000 A 
ATOM     10  C   UNL     1       2.537   7.056  20.101  0.00  0.00    +0.000 A 
ATOM     11  C   UNL     1       2.088   7.907  19.098  0.00  0.00    +0.000 A 
ATOM     12  F   UNL     1       1.154   8.824  19.379  0.00  0.00    +0.000 F 
ATOM     13  C   UNL     1       2.583   7.805  17.806  0.00  0.00    +0.000 A 
ATOM     14  C   UNL     1       3.532   6.826  17.509  0.00  0.00    +0.000 A 
ENDBRANCH   7   8
BRANCH   5  15
ATOM     15  C   UNL     1       2.502   3.024  18.842  0.00  0.00    +0.000 A 
ATOM     16  C   UNL     1       1.233   3.560  19.021  0.00  0.00    +0.000 A 
ATOM     17  C   UNL     1       0.728   3.644  20.318  0.00  0.00    +0.000 A 
ATOM     18  C   UNL     1       1.495   3.189  21.384  0.00  0.00    +0.000 A 
ATOM     19  C   UNL     1       2.726   2.627  21.111  0.00  0.00    +0.000 A 
ATOM     20  N   UNL     1       3.236   2.514  19.867  0.00  0.00    +0.000 NA
ENDBRANCH   5  15
BRANCH   1  22
ATOM     21  O   UNL     1       6.125   6.995  16.091  0.00  0.00    +0.000 OA
ATOM     22  C   UNL     1       6.470   6.511  17.154  0.00  0.00    +0.000 C 
BRANCH  22  23
ATOM     23  O   UNL     1       7.111   7.231  18.104  0.00  0.00    +0.000 OA
ATOM     24  H   UNL     1       7.382   6.733  18.899  0.00  0.00    +0.000 HD
ENDBRANCH  22  23
ENDBRANCH   1  22
TORSDOF 4
ENDMDL
MODEL 2
REMARK VINA RESULT:      -7.2      0.332      1.243
REMARK  Name = 
REMARK  4 active torsions:
REMARK  status: ('A' for Active; 'I' for Inactive)
REMARK    1  A    between atoms: C_2  and  O_3
REMARK    2  A    between atoms: C_2  and  C_4
REMARK    3  A    between atoms: C_8  and  C_10
REMARK    4  A    between atoms: C_16  and  C_17
REMARK                            x       y       z     vdW  Elec       q    Type
REMARK                         _______ _______ _______ _____ _____    ______ ____
ROOT
ATOM      1  C   UNL     1       6.034   5.252  17.518  0.00  0.00    +0.000 C 
ATOM      2  C   UNL     1       6.219   4.255  16.362  0.00  0.00    +0.000 C 
ATOM      3  C   UNL     1       4.809   3.798  16.035  0.00  0.00    +0.000 C 
ATOM      4  N   UNL     1       4.168   3.773  17.334  0.00  0.00    +0.000 N 
ATOM      5  C   UNL     1       3.116   2.906  17.626  0.00  0.00    +0.000 C 
ATOM      6  O   UNL     1       2.630   2.163  16.771  0.00  0.00    +0.000 OA
ATOM      7  C   UNL     1       4.714   4.833  18.192  0.00  0.00    +0.000 C 
ENDROOT
BRANCH   7   8
ATOM      8  C   UNL     1       3.687   5.917  18.486  0.00  0.00    +0.000 A 
ATOM      9  C   UNL     1       3.229   6.743  17.443  0.00  0.00    +0.000 A 
ATOM     10  C   UNL     1       2.389   7.825  17.708  0.00  0.00    +0.000 A 
ATOM     11  C   UNL     1       1.992   8.087  19.013  0.00  0.00    +0.000 A 
ATOM     12  F   UNL     1       1.217   9.149  19.268  0.00  0.00    +0.000 F 
ATOM     13  C   UNL     1       2.402   7.271  20.058  0.00  0.00    +0.000 A 
ATOM     14  C   UNL     1       3.236   6.185  19.795  0.00  0.00    +0.000 A 
ENDBRANCH   7   8
BRANCH   5  15
ATOM     15  C   UNL     1       2.528   2.902  19.012  0.00  0.00    +0.000 A 
ATOM     16  C   UNL     1       1.224   3.344  19.202  0.00  0.00    +0.000 A 
ATOM     17  C   UNL     1       0.743   3.440  20.508  0.00  0.00    +0.000 A 
ATOM     18  C   UNL     1       1.568   3.091  21.571  0.00  0.00    +0.000 A 
ATOM     19  C   UNL     1       2.833   2.617  21.288  0.00  0.00    +0.000 A 
ATOM     20  N   UNL     1       3.323   2.494  20.037  0.00  0.00    +0.000 NA
ENDBRANCH   5  15
BRANCH   1  22
ATOM     21  O   UNL     1       6.405   7.631  17.747  0.00  0.00    +0.000 OA
ATOM     22  C   UNL     1       6.077   6.686  17.052  0.00  0.00    +0.000 C 
BRANCH  22  23
ATOM     23  O   UNL     1       5.680   6.836  15.767  0.00  0.00    +0.000 OA
ATOM     24  H   UNL     1       6.190   7.481  15.240  0.00  0.00    +0.000 HD
ENDBRANCH  22  23
ENDBRANCH   1  22
TORSDOF 4
ENDMDL
MODEL 3
REMARK VINA RESULT:      -7.1      0.590      1.011
REMARK  Name = 
REMARK  4 active torsions:
REMARK  status: ('A' for Active; 'I' for Inactive)
REMARK    1  A    between atoms: C_2  and  O_3
REMARK    2  A    between atoms: C_2  and  C_4
REMARK    3  A    between atoms: C_8  and  C_10
REMARK    4  A    between atoms: C_16  and  C_17
REMARK                            x       y       z     vdW  Elec       q    Type
REMARK                         _______ _______ _______ _____ _____    ______ ____
ROOT
ATOM      1  C   UNL     1       6.204   5.128  17.504  0.00  0.00    +0.000 C 
ATOM      2  C   UNL     1       6.291   4.120  16.346  0.00  0.00    +0.000 C 
ATOM      3  C   UNL     1       4.843   3.798  16.023  0.00  0.00    +0.000 C 
ATOM      4  N   UNL     1       4.208   3.830  17.324  0.00  0.00    +0.000 N 
ATOM      5  C   UNL     1       3.080   3.065  17.618  0.00  0.00    +0.000 C 
ATOM      6  O   UNL     1       2.524   2.373  16.764  0.00  0.00    +0.000 OA
ATOM      7  C   UNL     1       4.853   4.832  18.182  0.00  0.00    +0.000 C 
ENDROOT
BRANCH   7   8
ATOM      8  C   UNL     1       3.932   6.008  18.483  0.00  0.00    +0.000 A 
ATOM      9  C   UNL     1       3.390   6.153  19.772  0.00  0.00    +0.000 A 
ATOM     10  C   UNL     1       2.443   7.143  20.039  0.00  0.00    +0.000 A 
ATOM     11  C   UNL     1       2.039   8.002  19.025  0.00  0.00    +0.000 A 
ATOM     12  F   UNL     1       1.102   8.926  19.276  0.00  0.00    +0.000 F 
ATOM     13  C   UNL     1       2.580   7.902  17.752  0.00  0.00    +0.000 A 
ATOM     14  C   UNL     1       3.531   6.917  17.484  0.00  0.00    +0.000 A 
ENDBRANCH   7   8
BRANCH   5  15
ATOM     15  C   UNL     1       2.498   3.113  19.007  0.00  0.00    +0.000 A 
ATOM     16  C   UNL     1       3.228   2.601  20.072  0.00  0.00    +0.000 A 
ATOM     17  C   UNL     1       2.620   2.551  21.326  0.00  0.00    +0.000 A 
ATOM     18  C   UNL     1       1.319   3.017  21.478  0.00  0.00    +0.000 A 
ATOM     19  C   UNL     1       0.685   3.554  20.375  0.00  0.00    +0.000 A 
ATOM     20  N   UNL     1       1.250   3.633  19.153  0.00  0.00    +0.000 NA
ENDBRANCH   5  15
BRANCH   1  22
ATOM     21  O   UNL     1       5.967   6.992  15.982  0.00  0.00    +0.000 OA
ATOM     22  C   UNL     1       6.379   6.553  17.041  0.00  0.00    +0.000 C 
BRANCH  22  23
ATOM     23  O   UNL     1       7.077   7.311  17.917  0.00  0.00    +0.000 OA
ATOM     24  H   UNL     1       7.137   6.959  18.826  0.00  0.00    +0.000 HD
ENDBRANCH  22  23
ENDBRANCH   1  22
TORSDOF 4
ENDMDL
MODEL 4
REMARK VINA RESULT:      -6.8      0.652      1.455
REMARK  Name = 
REMARK  4 active torsions:
REMARK  status: ('A' for Active; 'I' for Inactive)
REMARK    1  A    between atoms: C_2  and  O_3
REMARK    2  A    between atoms: C_2  and  C_4
REMARK    3  A    between atoms: C_8  and  C_10
REMARK    4  A    between atoms: C_16  and  C_17
REMARK                            x       y       z     vdW  Elec       q    Type
REMARK                         _______ _______ _______ _____ _____    ______ ____
ROOT
ATOM      1  C   UNL     1       6.061   5.261  17.483  0.00  0.00    +0.000 C 
ATOM      2  C   UNL     1       6.241   4.209  16.377  0.00  0.00    +0.000 C 
ATOM      3  C   UNL     1       4.827   3.752  16.065  0.00  0.00    +0.000 C 
ATOM      4  N   UNL     1       4.180   3.796  17.360  0.00  0.00    +0.000 N 
ATOM      5  C   UNL     1       3.117   2.955  17.688  0.00  0.00    +0.000 C 
ATOM      6  O   UNL     1       2.627   2.178  16.867  0.00  0.00    +0.000 OA
ATOM      7  C   UNL     1       4.733   4.889  18.169  0.00  0.00    +0.000 C 
ENDROOT
BRANCH   7   8
ATOM      8  C   UNL     1       3.716   5.997  18.407  0.00  0.00    +0.000 A 
ATOM      9  C   UNL     1       3.362   6.853  17.349  0.00  0.00    +0.000 A 
ATOM     10  C   UNL     1       2.534   7.955  17.571  0.00  0.00    +0.000 A 
ATOM     11  C   UNL     1       2.046   8.205  18.847  0.00  0.00    +0.000 A 
ATOM     12  F   UNL     1       1.284   9.285  19.063  0.00  0.00    +0.000 F 
ATOM     13  C   UNL     1       2.353   7.360  19.903  0.00  0.00    +0.000 A 
ATOM     14  C   UNL     1       3.176   6.255  19.683  0.00  0.00    +0.000 A 
ENDBRANCH   7   8
BRANCH   5  15
ATOM     15  C   UNL     1       2.522   3.023  19.070  0.00  0.00    +0.000 A 
ATOM     16  C   UNL     1       3.277   2.612  20.160  0.00  0.00    +0.000 A 
ATOM     17  C   UNL     1       2.664   2.575  21.413  0.00  0.00    +0.000 A 
ATOM     18  C   UNL     1       1.332   2.953  21.536  0.00  0.00    +0.000 A 
ATOM     19  C   UNL     1       0.670   3.394  20.408  0.00  0.00    +0.000 A 
ATOM     20  N   UNL     1       1.238   3.459  19.186  0.00  0.00    +0.000 NA
ENDBRANCH   5  15
BRANCH   1  22
ATOM     21  O   UNL     1       5.730   7.012  15.848  0.00  0.00    +0.000 OA
ATOM     22  C   UNL     1       6.121   6.671  16.950  0.00  0.00    +0.000 C 
BRANCH  22  23
ATOM     23  O   UNL     1       6.690   7.540  17.817  0.00  0.00    +0.000 OA
ATOM     24  H   UNL     1       6.075   8.154  18.264  0.00  0.00    +0.000 HD
ENDBRANCH  22  23
ENDBRANCH   1  22
TORSDOF 4
ENDMDL
MODEL 5
REMARK VINA RESULT:      -6.4      1.953      4.934
REMARK  Name = 
REMARK  4 active torsions:
REMARK  status: ('A' for Active; 'I' for Inactive)
REMARK    1  A    between atoms: C_2  and  O_3
REMARK    2  A    between atoms: C_2  and  C_4
REMARK    3  A    between atoms: C_8  and  C_10
REMARK    4  A    between atoms: C_16  and  C_17
REMARK                            x       y       z     vdW  Elec       q    Type
REMARK                         _______ _______ _______ _____ _____    ______ ____
ROOT
ATOM      1  C   UNL     1       2.208   2.500  19.101  0.00  0.00    +0.000 C 
ATOM      2  C   UNL     1       3.237   1.587  19.788  0.00  0.00    +0.000 C 
ATOM      3  C   UNL     1       4.370   2.523  20.166  0.00  0.00    +0.000 C 
ATOM      4  N   UNL     1       4.391   3.466  19.067  0.00  0.00    +0.000 N 
ATOM      5  C   UNL     1       5.557   4.120  18.672  0.00  0.00    +0.000 C 
ATOM      6  O   UNL     1       6.619   3.981  19.282  0.00  0.00    +0.000 OA
ATOM      7  C   UNL     1       3.032   3.681  18.554  0.00  0.00    +0.000 C 
ENDROOT
BRANCH   7   8
ATOM      8  C   UNL     1       2.530   5.091  18.833  0.00  0.00    +0.000 A 
ATOM      9  C   UNL     1       2.085   5.893  17.767  0.00  0.00    +0.000 A 
ATOM     10  C   UNL     1       1.744   7.230  17.975  0.00  0.00    +0.000 A 
ATOM     11  C   UNL     1       1.835   7.775  19.250  0.00  0.00    +0.000 A 
ATOM     12  F   UNL     1       1.544   9.068  19.439  0.00  0.00    +0.000 F 
ATOM     13  C   UNL     1       2.241   6.999  20.326  0.00  0.00    +0.000 A 
ATOM     14  C   UNL     1       2.577   5.661  20.121  0.00  0.00    +0.000 A 
ENDBRANCH   7   8
BRANCH   5  15
ATOM     15  C   UNL     1       5.515   5.053  17.491  0.00  0.00    +0.000 A 
ATOM     16  C   UNL     1       5.504   6.426  17.704  0.00  0.00    +0.000 A 
ATOM     17  C   UNL     1       5.347   7.266  16.602  0.00  0.00    +0.000 A 
ATOM     18  C   UNL     1       5.213   6.714  15.333  0.00  0.00    +0.000 A 
ATOM     19  C   UNL     1       5.282   5.341  15.206  0.00  0.00    +0.000 A 
ATOM     20  N   UNL     1       5.451   4.502  16.249  0.00  0.00    +0.000 NA
ENDBRANCH   5  15
BRANCH   1  22
ATOM     21  O   UNL     1       1.190   3.038  21.228  0.00  0.00    +0.000 OA
ATOM     22  C   UNL     1       1.080   2.891  20.024  0.00  0.00    +0.000 C 
BRANCH  22  23
ATOM     23  O   UNL     1      -0.101   3.040  19.381  0.00  0.00    +0.000 OA
ATOM     24  H   UNL     1      -0.262   3.922  18.992  0.00  0.00    +0.000 HD
ENDBRANCH  22  23
ENDBRANCH   1  22
TORSDOF 4
ENDMDL
MODEL 6
REMARK VINA RESULT:      -6.4      2.040      4.977
REMARK  Name = 
REMARK  4 active torsions:
REMARK  status: ('A' for Active; 'I' for Inactive)
REMARK    1  A    between atoms: C_2  and  O_3
REMARK    2  A    between atoms: C_2  and  C_4
REMARK    3  A    between atoms: C_8  and  C_10
REMARK    4  A    between atoms: C_16  and  C_17
REMARK                            x       y       z     vdW  Elec       q    Type
REMARK                         _______ _______ _______ _____ _____    ______ ____
ROOT
ATOM      1  C   UNL     1       2.152   2.501  19.277  0.00  0.00    +0.000 C 
ATOM      2  C   UNL     1       3.221   1.602  19.920  0.00  0.00    +0.000 C 
ATOM      3  C   UNL     1       4.374   2.546  20.212  0.00  0.00    +0.000 C 
ATOM      4  N   UNL     1       4.328   3.467  19.095  0.00  0.00    +0.000 N 
ATOM      5  C   UNL     1       5.468   4.113  18.618  0.00  0.00    +0.000 C 
ATOM      6  O   UNL     1       6.563   3.986  19.167  0.00  0.00    +0.000 OA
ATOM      7  C   UNL     1       2.940   3.670  18.659  0.00  0.00    +0.000 C 
ENDROOT
BRANCH   7   8
ATOM      8  C   UNL     1       2.454   5.086  18.938  0.00  0.00    +0.000 A 
ATOM      9  C   UNL     1       2.069   5.912  17.866  0.00  0.00    +0.000 A 
ATOM     10  C   UNL     1       1.745   7.253  18.081  0.00  0.00    +0.000 A 
ATOM     11  C   UNL     1       1.792   7.776  19.366  0.00  0.00    +0.000 A 
ATOM     12  F   UNL     1       1.517   9.072  19.563  0.00  0.00    +0.000 F 
ATOM     13  C   UNL     1       2.137   6.977  20.447  0.00  0.00    +0.000 A 
ATOM     14  C   UNL     1       2.456   5.635  20.235  0.00  0.00    +0.000 A 
ENDBRANCH   7   8
BRANCH   5  15
ATOM     15  C   UNL     1       5.354   5.022  17.422  0.00  0.00    +0.000 A 
ATOM     16  C   UNL     1       5.259   4.471  16.151  0.00  0.00    +0.000 A 
ATOM     17  C   UNL     1       5.273   5.333  15.054  0.00  0.00    +0.000 A 
ATOM     18  C   UNL     1       5.372   6.704  15.260  0.00  0.00    +0.000 A 
ATOM     19  C   UNL     1       5.414   7.169  16.560  0.00  0.00    +0.000 A 
ATOM     20  N   UNL     1       5.384   6.364  17.642  0.00  0.00    +0.000 NA
ENDBRANCH   5  15
BRANCH   1  22
ATOM     21  O   UNL     1       1.245   3.017  21.459  0.00  0.00    +0.000 OA
ATOM     22  C   UNL     1       1.080   2.910  20.257  0.00  0.00    +0.000 C 
BRANCH  22  23
ATOM     23  O   UNL     1      -0.118   3.127  19.668  0.00  0.00    +0.000 OA
ATOM     24  H   UNL     1      -0.734   2.369  19.672  0.00  0.00    +0.000 HD
ENDBRANCH  22  23
ENDBRANCH   1  22
TORSDOF 4
ENDMDL
MODEL 7
REMARK VINA RESULT:      -6.1      1.230      1.445
REMARK  Name = 
REMARK  4 active torsions:
REMARK  status: ('A' for Active; 'I' for Inactive)
REMARK    1  A    between atoms: C_2  and  O_3
REMARK    2  A    between atoms: C_2  and  C_4
REMARK    3  A    between atoms: C_8  and  C_10
REMARK    4  A    between atoms: C_16  and  C_17
REMARK                            x       y       z     vdW  Elec       q    Type
REMARK                         _______ _______ _______ _____ _____    ______ ____
ROOT
ATOM      1  C   UNL     1       7.128   5.153  17.899  0.00  0.00    +0.000 C 
ATOM      2  C   UNL     1       7.650   4.594  16.565  0.00  0.00    +0.000 C 
ATOM      3  C   UNL     1       6.416   4.523  15.683  0.00  0.00    +0.000 C 
ATOM      4  N   UNL     1       5.370   4.166  16.620  0.00  0.00    +0.000 N 
ATOM      5  C   UNL     1       4.242   3.444  16.233  0.00  0.00    +0.000 C 
ATOM      6  O   UNL     1       4.042   3.132  15.058  0.00  0.00    +0.000 OA
ATOM      7  C   UNL     1       5.639   4.761  17.935  0.00  0.00    +0.000 C 
ENDROOT
BRANCH   7   8
ATOM      8  C   UNL     1       4.625   5.838  18.296  0.00  0.00    +0.000 A 
ATOM      9  C   UNL     1       3.974   5.790  19.542  0.00  0.00    +0.000 A 
ATOM     10  C   UNL     1       2.949   6.687  19.844  0.00  0.00    +0.000 A 
ATOM     11  C   UNL     1       2.572   7.644  18.911  0.00  0.00    +0.000 A 
ATOM     12  F   UNL     1       1.562   8.478  19.190  0.00  0.00    +0.000 F 
ATOM     13  C   UNL     1       3.217   7.735  17.686  0.00  0.00    +0.000 A 
ATOM     14  C   UNL     1       4.247   6.844  17.384  0.00  0.00    +0.000 A 
ENDBRANCH   7   8
BRANCH   5  15
ATOM     15  C   UNL     1       3.216   3.069  17.269  0.00  0.00    +0.000 A 
ATOM     16  C   UNL     1       2.037   3.798  17.360  0.00  0.00    +0.000 A 
ATOM     17  C   UNL     1       1.157   3.505  18.402  0.00  0.00    +0.000 A 
ATOM     18  C   UNL     1       1.475   2.499  19.307  0.00  0.00    +0.000 A 
ATOM     19  C   UNL     1       2.645   1.793  19.114  0.00  0.00    +0.000 A 
ATOM     20  N   UNL     1       3.509   2.038  18.107  0.00  0.00    +0.000 NA
ENDBRANCH   5  15
BRANCH   1  22
ATOM     21  O   UNL     1       7.110   7.472  17.212  0.00  0.00    +0.000 OA
ATOM     22  C   UNL     1       7.395   6.631  18.046  0.00  0.00    +0.000 C 
BRANCH  22  23
ATOM     23  O   UNL     1       8.021   6.942  19.204  0.00  0.00    +0.000 OA
ATOM     24  H   UNL     1       7.738   6.432  19.987  0.00  0.00    +0.000 HD
ENDBRANCH  22  23
ENDBRANCH   1  22
TORSDOF 4
ENDMDL
MODEL 8
REMARK VINA RESULT:      -6.1     10.041     11.684
REMARK  Name = 
REMARK  4 active torsions:
REMARK  status: ('A' for Active; 'I' for Inactive)
REMARK    1  A    between atoms: C_2  and  O_3
REMARK    2  A    between atoms: C_2  and  C_4
REMARK    3  A    between atoms: C_8  and  C_10
REMARK    4  A    between atoms: C_16  and  C_17
REMARK                            x       y       z     vdW  Elec       q    Type
REMARK                         _______ _______ _______ _____ _____    ______ ____
ROOT
ATOM      1  C   UNL     1       9.709  11.981  19.025  0.00  0.00    +0.000 C 
ATOM      2  C   UNL     1      10.575  12.118  17.762  0.00  0.00    +0.000 C 
ATOM      3  C   UNL     1      10.908  13.598  17.698  0.00  0.00    +0.000 C 
ATOM      4  N   UNL     1       9.701  14.222  18.201  0.00  0.00    +0.000 N 
ATOM      5  C   UNL     1       9.306  15.499  17.806  0.00  0.00    +0.000 C 
ATOM      6  O   UNL     1      10.000  16.192  17.060  0.00  0.00    +0.000 OA
ATOM      7  C   UNL     1       9.073  13.370  19.220  0.00  0.00    +0.000 C 
ENDROOT
BRANCH   7   8
ATOM      8  C   UNL     1       9.134  13.996  20.607  0.00  0.00    +0.000 A 
ATOM      9  C   UNL     1       8.001  13.953  21.439  0.00  0.00    +0.000 A 
ATOM     10  C   UNL     1       7.987  14.631  22.659  0.00  0.00    +0.000 A 
ATOM     11  C   UNL     1       9.107  15.346  23.063  0.00  0.00    +0.000 A 
ATOM     12  F   UNL     1       9.076  16.026  24.216  0.00  0.00    +0.000 F 
ATOM     13  C   UNL     1      10.250  15.380  22.278  0.00  0.00    +0.000 A 
ATOM     14  C   UNL     1      10.268  14.699  21.060  0.00  0.00    +0.000 A 
ENDBRANCH   7   8
BRANCH   5  15
ATOM     15  C   UNL     1       8.015  16.067  18.334  0.00  0.00    +0.000 A 
ATOM     16  C   UNL     1       8.050  17.159  19.192  0.00  0.00    +0.000 A 
ATOM     17  C   UNL     1       6.851  17.593  19.759  0.00  0.00    +0.000 A 
ATOM     18  C   UNL     1       5.667  16.934  19.449  0.00  0.00    +0.000 A 
ATOM     19  C   UNL     1       5.718  15.887  18.550  0.00  0.00    +0.000 A 
ATOM     20  N   UNL     1       6.856  15.454  17.970  0.00  0.00    +0.000 NA
ENDBRANCH   5  15
BRANCH   1  22
ATOM     21  O   UNL     1      11.700  11.591  20.341  0.00  0.00    +0.000 OA
ATOM     22  C   UNL     1      10.495  11.475  20.210  0.00  0.00    +0.000 C 
BRANCH  22  23
ATOM     23  O   UNL     1       9.725  10.841  21.123  0.00  0.00    +0.000 OA
ATOM     24  H   UNL     1       8.797  10.687  20.859  0.00  0.00    +0.000 HD
ENDBRANCH  22  23
ENDBRANCH   1  22
TORSDOF 4
ENDMDL
MODEL 9
REMARK VINA RESULT:      -6.0     10.086     11.647
REMARK  Name = 
REMARK  4 active torsions:
REMARK  status: ('A' for Active; 'I' for Inactive)
REMARK    1  A    between atoms: C_2  and  O_3
REMARK    2  A    between atoms: C_2  and  C_4
REMARK    3  A    between atoms: C_8  and  C_10
REMARK    4  A    between atoms: C_16  and  C_17
REMARK                            x       y       z     vdW  Elec       q    Type
REMARK                         _______ _______ _______ _____ _____    ______ ____
ROOT
ATOM      1  C   UNL     1       9.712  12.052  19.073  0.00  0.00    +0.000 C 
ATOM      2  C   UNL     1      10.611  12.222  17.837  0.00  0.00    +0.000 C 
ATOM      3  C   UNL     1      10.873  13.715  17.771  0.00  0.00    +0.000 C 
ATOM      4  N   UNL     1       9.622  14.284  18.230  0.00  0.00    +0.000 N 
ATOM      5  C   UNL     1       9.179  15.538  17.812  0.00  0.00    +0.000 C 
ATOM      6  O   UNL     1       9.863  16.258  17.083  0.00  0.00    +0.000 OA
ATOM      7  C   UNL     1       9.004  13.410  19.236  0.00  0.00    +0.000 C 
ENDROOT
BRANCH   7   8
ATOM      8  C   UNL     1       8.991  14.048  20.619  0.00  0.00    +0.000 A 
ATOM      9  C   UNL     1      10.118  14.759  21.066  0.00  0.00    +0.000 A 
ATOM     10  C   UNL     1      10.183  15.241  22.375  0.00  0.00    +0.000 A 
ATOM     11  C   UNL     1       9.121  15.025  23.243  0.00  0.00    +0.000 A 
ATOM     12  F   UNL     1       9.203  15.455  24.508  0.00  0.00    +0.000 F 
ATOM     13  C   UNL     1       7.983  14.354  22.820  0.00  0.00    +0.000 A 
ATOM     14  C   UNL     1       7.913  13.877  21.510  0.00  0.00    +0.000 A 
ENDBRANCH   7   8
BRANCH   5  15
ATOM     15  C   UNL     1       7.846  16.047  18.294  0.00  0.00    +0.000 A 
ATOM     16  C   UNL     1       7.801  17.142  19.147  0.00  0.00    +0.000 A 
ATOM     17  C   UNL     1       6.565  17.521  19.672  0.00  0.00    +0.000 A 
ATOM     18  C   UNL     1       5.424  16.806  19.326  0.00  0.00    +0.000 A 
ATOM     19  C   UNL     1       5.554  15.760  18.434  0.00  0.00    +0.000 A 
ATOM     20  N   UNL     1       6.730  15.379  17.895  0.00  0.00    +0.000 NA
ENDBRANCH   5  15
BRANCH   1  22
ATOM     21  O   UNL     1      11.681  11.744  20.442  0.00  0.00    +0.000 OA
ATOM     22  C   UNL     1      10.483  11.593  20.286  0.00  0.00    +0.000 C 
BRANCH  22  23
ATOM     23  O   UNL     1       9.709  10.958  21.195  0.00  0.00    +0.000 OA
ATOM     24  H   UNL     1       8.952  10.459  20.831  0.00  0.00    +0.000 HD
ENDBRANCH  22  23
ENDBRANCH   1  22
TORSDOF 4
ENDMDL
