MODEL 1
REMARK VINA RESULT:      -7.7      0.000      0.000
REMARK  Name = 
REMARK  8 active torsions:
REMARK  status: ('A' for Active; 'I' for Inactive)
REMARK    1  A    between atoms: C_1  and  C_2
REMARK    2  A    between atoms: C_2  and  C_3
REMARK    3  A    between atoms: C_3  and  S_4
REMARK    4  A    between atoms: S_4  and  N_7
REMARK    5  A    between atoms: C_9  and  N_10
REMARK    6  A    between atoms: C_12  and  C_13
REMARK    7  A    between atoms: N_15  and  C_16
REMARK    8  A    between atoms: C_16  and  C_17
REMARK                            x       y       z     vdW  Elec       q    Type
REMARK                         _______ _______ _______ _____ _____    ______ ____
ROOT
ATOM      1  N   UNL     1       2.889   6.180  18.725  0.00  0.00    +0.000 N 
ATOM      2  C   UNL     1       2.441   7.439  18.433  0.00  0.00    +0.000 A 
ATOM      3  C   UNL     1       1.810   7.856  19.588  0.00  0.00    +0.000 A 
ATOM      4  N   UNL     1       1.890   6.851  20.522  0.00  0.00    +0.000 NA
ATOM      5  N   UNL     1       2.560   5.838  19.986  0.00  0.00    +0.000 NA
ENDROOT
BRANCH   1   8
ATOM      6  N   UNL     1       5.710   5.732  17.918  0.00  0.00    +0.000 NA
ATOM      7  C   UNL     1       4.607   6.001  16.951  0.00  0.00    +0.000 C 
ATOM      8  C   UNL     1       3.607   5.266  17.878  0.00  0.00    +0.000 C 
ATOM      9  C   UNL     1       4.874   4.651  18.516  0.00  0.00    +0.000 C 
BRANCH   6  10
ATOM     10  S   UNL     1       7.347   5.603  17.516  0.00  0.00    +0.000 S 
ATOM     11  O   UNL     1       7.469   5.836  16.094  0.00  0.00    +0.000 OA
ATOM     12  O   UNL     1       7.858   4.397  18.138  0.00  0.00    +0.000 OA
BRANCH  10  13
ATOM     13  C   UNL     1       7.983   7.020  18.398  0.00  0.00    +0.000 C 
BRANCH  13  15
ATOM     14  C   UNL     1       8.517   9.469  18.293  0.00  0.00    +0.000 C 
ATOM     15  C   UNL     1       7.820   8.308  17.600  0.00  0.00    +0.000 C 
ENDBRANCH  13  15
ENDBRANCH  10  13
ENDBRANCH   6  10
ENDBRANCH   1   8
BRANCH   3  16
ATOM     16  C   UNL     1       1.145   9.133  19.818  0.00  0.00    +0.000 C 
ATOM     17  O   UNL     1       0.976   9.588  20.945  0.00  0.00    +0.000 OA
ATOM     18  N   UNL     1       0.747   9.771  18.668  0.00  0.00    +0.000 N 
ATOM     19  H   UNL     1       0.913   9.307  17.783  0.00  0.00    +0.000 HD
BRANCH  18  20
ATOM     20  C   UNL     1       0.095  11.059  18.674  0.00  0.00    +0.000 C 
BRANCH  20  21
ATOM     21  C   UNL     1      -1.355  10.943  18.282  0.00  0.00    +0.000 A 
ATOM     22  C   UNL     1      -1.753  10.002  17.323  0.00  0.00    +0.000 A 
ATOM     23  C   UNL     1      -3.096   9.887  16.956  0.00  0.00    +0.000 A 
ATOM     24  C   UNL     1      -4.052  10.719  17.536  0.00  0.00    +0.000 A 
ATOM     25  C   UNL     1      -3.666  11.666  18.483  0.00  0.00    +0.000 A 
ATOM     26  C   UNL     1      -2.324  11.781  18.853  0.00  0.00    +0.000 A 
ENDBRANCH  20  21
ENDBRANCH  18  20
ENDBRANCH   3  16
TORSDOF 7
ENDMDL
MODEL 2
REMARK VINA RESULT:      -7.2      1.956      2.521
REMARK  Name = 
REMARK  8 active torsions:
REMARK  status: ('A' for Active; 'I' for Inactive)
REMARK    1  A    between atoms: C_1  and  C_2
REMARK    2  A    between atoms: C_2  and  C_3
REMARK    3  A    between atoms: C_3  and  S_4
REMARK    4  A    between atoms: S_4  and  N_7
REMARK    5  A    between atoms: C_9  and  N_10
REMARK    6  A    between atoms: C_12  and  C_13
REMARK    7  A    between atoms: N_15  and  C_16
REMARK    8  A    between atoms: C_16  and  C_17
REMARK                            x       y       z     vdW  Elec       q    Type
REMARK                         _______ _______ _______ _____ _____    ______ ____
ROOT
ATOM      1  N   UNL     1       2.941   5.317  19.087  0.00  0.00    +0.000 N 
ATOM      2  C   UNL     1       2.608   6.627  18.878  0.00  0.00    +0.000 A 
ATOM      3  C   UNL     1       2.013   7.024  20.060  0.00  0.00    +0.000 A 
ATOM      4  N   UNL     1       2.002   5.958  20.927  0.00  0.00    +0.000 NA
ATOM      5  N   UNL     1       2.580   4.925  20.325  0.00  0.00    +0.000 NA
ENDROOT
BRANCH   1   8
ATOM      6  N   UNL     1       5.593   5.044  17.781  0.00  0.00    +0.000 NA
ATOM      7  C   UNL     1       4.307   5.135  17.030  0.00  0.00    +0.000 C 
ATOM      8  C   UNL     1       3.577   4.399  18.181  0.00  0.00    +0.000 C 
ATOM      9  C   UNL     1       4.995   3.951  18.601  0.00  0.00    +0.000 C 
BRANCH   6  10
ATOM     10  S   UNL     1       7.131   5.022  17.080  0.00  0.00    +0.000 S 
ATOM     11  O   UNL     1       8.021   4.348  17.999  0.00  0.00    +0.000 OA
ATOM     12  O   UNL     1       7.409   6.357  16.589  0.00  0.00    +0.000 OA
BRANCH  10  13
ATOM     13  C   UNL     1       6.807   3.951  15.687  0.00  0.00    +0.000 C 
BRANCH  13  15
ATOM     14  C   UNL     1       6.246   3.859  13.245  0.00  0.00    +0.000 C 
ATOM     15  C   UNL     1       6.813   4.712  14.369  0.00  0.00    +0.000 C 
ENDBRANCH  13  15
ENDBRANCH  10  13
ENDBRANCH   6  10
ENDBRANCH   1   8
BRANCH   3  16
ATOM     16  C   UNL     1       1.465   8.337  20.373  0.00  0.00    +0.000 C 
ATOM     17  O   UNL     1       1.152   8.660  21.514  0.00  0.00    +0.000 OA
ATOM     18  N   UNL     1       1.348   9.169  19.285  0.00  0.00    +0.000 N 
ATOM     19  H   UNL     1       1.614   8.807  18.376  0.00  0.00    +0.000 HD
BRANCH  18  20
ATOM     20  C   UNL     1       0.852  10.520  19.383  0.00  0.00    +0.000 C 
BRANCH  20  21
ATOM     21  C   UNL     1      -0.527  10.646  18.789  0.00  0.00    +0.000 A 
ATOM     22  C   UNL     1      -1.460  11.528  19.352  0.00  0.00    +0.000 A 
ATOM     23  C   UNL     1      -2.739  11.651  18.805  0.00  0.00    +0.000 A 
ATOM     24  C   UNL     1      -3.101  10.888  17.697  0.00  0.00    +0.000 A 
ATOM     25  C   UNL     1      -2.186  10.001  17.135  0.00  0.00    +0.000 A 
ATOM     26  C   UNL     1      -0.906   9.876  17.679  0.00  0.00    +0.000 A 
ENDBRANCH  20  21
ENDBRANCH  18  20
ENDBRANCH   3  16
TORSDOF 7
ENDMDL
MODEL 3
REMARK VINA RESULT:      -7.1      1.560      2.205
REMARK  Name = 
REMARK  8 active torsions:
REMARK  status: ('A' for Active; 'I' for Inactive)
REMARK    1  A    between atoms: C_1  and  C_2
REMARK    2  A    between atoms: C_2  and  C_3
REMARK    3  A    between atoms: C_3  and  S_4
REMARK    4  A    between atoms: S_4  and  N_7
REMARK    5  A    between atoms: C_9  and  N_10
REMARK    6  A    between atoms: C_12  and  C_13
REMARK    7  A    between atoms: N_15  and  C_16
REMARK    8  A    between atoms: C_16  and  C_17
REMARK                            x       y       z     vdW  Elec       q    Type
REMARK                         _______ _______ _______ _____ _____    ______ ____
ROOT
ATOM      1  N   UNL     1       2.782   6.186  19.205  0.00  0.00    +0.000 N 
ATOM      2  C   UNL     1       2.430   7.461  18.856  0.00  0.00    +0.000 A 
ATOM      3  C   UNL     1       1.651   7.903  19.907  0.00  0.00    +0.000 A 
ATOM      4  N   UNL     1       1.553   6.896  20.837  0.00  0.00    +0.000 NA
ATOM      5  N   UNL     1       2.256   5.857  20.401  0.00  0.00    +0.000 NA
ENDROOT
BRANCH   1   8
ATOM      6  N   UNL     1       5.577   6.019  18.220  0.00  0.00    +0.000 NA
ATOM      7  C   UNL     1       4.381   5.929  17.332  0.00  0.00    +0.000 C 
ATOM      8  C   UNL     1       3.582   5.245  18.468  0.00  0.00    +0.000 C 
ATOM      9  C   UNL     1       4.973   4.960  19.079  0.00  0.00    +0.000 C 
BRANCH   6  10
ATOM     10  S   UNL     1       7.182   6.062  17.690  0.00  0.00    +0.000 S 
ATOM     11  O   UNL     1       8.030   5.912  18.852  0.00  0.00    +0.000 OA
ATOM     12  O   UNL     1       7.316   7.187  16.788  0.00  0.00    +0.000 OA
BRANCH  10  13
ATOM     13  C   UNL     1       7.222   4.551  16.739  0.00  0.00    +0.000 C 
BRANCH  13  15
ATOM     14  C   UNL     1       6.038   3.967  14.606  0.00  0.00    +0.000 C 
ATOM     15  C   UNL     1       7.127   4.817  15.242  0.00  0.00    +0.000 C 
ENDBRANCH  13  15
ENDBRANCH  10  13
ENDBRANCH   6  10
ENDBRANCH   1   8
BRANCH   3  16
ATOM     16  C   UNL     1       1.009   9.205  20.043  0.00  0.00    +0.000 C 
ATOM     17  O   UNL     1       0.836   9.738  21.133  0.00  0.00    +0.000 OA
ATOM     18  N   UNL     1       0.636   9.771  18.847  0.00  0.00    +0.000 N 
ATOM     19  H   UNL     1       0.803   9.246  17.997  0.00  0.00    +0.000 HD
BRANCH  18  20
ATOM     20  C   UNL     1       0.009  11.068  18.759  0.00  0.00    +0.000 C 
BRANCH  20  21
ATOM     21  C   UNL     1      -1.422  10.958  18.300  0.00  0.00    +0.000 A 
ATOM     22  C   UNL     1      -2.409  11.775  18.869  0.00  0.00    +0.000 A 
ATOM     23  C   UNL     1      -3.737  11.681  18.447  0.00  0.00    +0.000 A 
ATOM     24  C   UNL     1      -4.093  10.763  17.460  0.00  0.00    +0.000 A 
ATOM     25  C   UNL     1      -3.122   9.939  16.895  0.00  0.00    +0.000 A 
ATOM     26  C   UNL     1      -1.793  10.032  17.315  0.00  0.00    +0.000 A 
ENDBRANCH  20  21
ENDBRANCH  18  20
ENDBRANCH   3  16
TORSDOF 7
ENDMDL
MODEL 4
REMARK VINA RESULT:      -7.1      2.750      3.820
REMARK  Name = 
REMARK  8 active torsions:
REMARK  status: ('A' for Active; 'I' for Inactive)
REMARK    1  A    between atoms: C_1  and  C_2
REMARK    2  A    between atoms: C_2  and  C_3
REMARK    3  A    between atoms: C_3  and  S_4
REMARK    4  A    between atoms: S_4  and  N_7
REMARK    5  A    between atoms: C_9  and  N_10
REMARK    6  A    between atoms: C_12  and  C_13
REMARK    7  A    between atoms: N_15  and  C_16
REMARK    8  A    between atoms: C_16  and  C_17
REMARK                            x       y       z     vdW  Elec       q    Type
REMARK                         _______ _______ _______ _____ _____    ______ ____
ROOT
ATOM      1  N   UNL     1       3.321   6.622  18.130  0.00  0.00    +0.000 N 
ATOM      2  C   UNL     1       3.016   7.797  17.501  0.00  0.00    +0.000 A 
ATOM      3  C   UNL     1       2.265   8.497  18.424  0.00  0.00    +0.000 A 
ATOM      4  N   UNL     1       2.138   7.732  19.559  0.00  0.00    +0.000 NA
ATOM      5  N   UNL     1       2.796   6.595  19.370  0.00  0.00    +0.000 NA
ENDROOT
BRANCH   1   8
ATOM      6  N   UNL     1       3.673   3.755  18.812  0.00  0.00    +0.000 NA
ATOM      7  C   UNL     1       4.796   4.736  18.761  0.00  0.00    +0.000 C 
ATOM      8  C   UNL     1       4.077   5.507  17.626  0.00  0.00    +0.000 C 
ATOM      9  C   UNL     1       3.267   4.203  17.449  0.00  0.00    +0.000 C 
BRANCH   6  10
ATOM     10  S   UNL     1       3.806   2.149  19.324  0.00  0.00    +0.000 S 
ATOM     11  O   UNL     1       4.875   2.086  20.296  0.00  0.00    +0.000 OA
ATOM     12  O   UNL     1       3.799   1.310  18.142  0.00  0.00    +0.000 OA
BRANCH  10  13
ATOM     13  C   UNL     1       2.240   1.974  20.164  0.00  0.00    +0.000 C 
BRANCH  13  15
ATOM     14  C   UNL     1       0.765   3.987  20.414  0.00  0.00    +0.000 C 
ATOM     15  C   UNL     1       1.911   3.192  21.018  0.00  0.00    +0.000 C 
ENDBRANCH  13  15
ENDBRANCH  10  13
ENDBRANCH   6  10
ENDBRANCH   1   8
BRANCH   3  16
ATOM     16  C   UNL     1       1.675   9.820  18.261  0.00  0.00    +0.000 C 
ATOM     17  O   UNL     1       2.211  10.696  17.590  0.00  0.00    +0.000 OA
ATOM     18  N   UNL     1       0.475   9.982  18.909  0.00  0.00    +0.000 N 
ATOM     19  H   UNL     1       0.120   9.206  19.457  0.00  0.00    +0.000 HD
BRANCH  18  20
ATOM     20  C   UNL     1      -0.286  11.207  18.853  0.00  0.00    +0.000 C 
BRANCH  20  21
ATOM     21  C   UNL     1      -1.625  10.994  18.197  0.00  0.00    +0.000 A 
ATOM     22  C   UNL     1      -1.766  10.048  17.173  0.00  0.00    +0.000 A 
ATOM     23  C   UNL     1      -3.005   9.843  16.561  0.00  0.00    +0.000 A 
ATOM     24  C   UNL     1      -4.112  10.589  16.960  0.00  0.00    +0.000 A 
ATOM     25  C   UNL     1      -3.982  11.540  17.970  0.00  0.00    +0.000 A 
ATOM     26  C   UNL     1      -2.744  11.745  18.584  0.00  0.00    +0.000 A 
ENDBRANCH  20  21
ENDBRANCH  18  20
ENDBRANCH   3  16
TORSDOF 7
ENDMDL
MODEL 5
REMARK VINA RESULT:      -7.1      0.619      1.171
REMARK  Name = 
REMARK  8 active torsions:
REMARK  status: ('A' for Active; 'I' for Inactive)
REMARK    1  A    between atoms: C_1  and  C_2
REMARK    2  A    between atoms: C_2  and  C_3
REMARK    3  A    between atoms: C_3  and  S_4
REMARK    4  A    between atoms: S_4  and  N_7
REMARK    5  A    between atoms: C_9  and  N_10
REMARK    6  A    between atoms: C_12  and  C_13
REMARK    7  A    between atoms: N_15  and  C_16
REMARK    8  A    between atoms: C_16  and  C_17
REMARK                            x       y       z     vdW  Elec       q    Type
REMARK                         _______ _______ _______ _____ _____    ______ ____
ROOT
ATOM      1  N   UNL     1       2.733   6.134  19.600  0.00  0.00    +0.000 N 
ATOM      2  C   UNL     1       2.485   7.378  19.091  0.00  0.00    +0.000 A 
ATOM      3  C   UNL     1       1.698   7.990  20.047  0.00  0.00    +0.000 A 
ATOM      4  N   UNL     1       1.495   7.108  21.081  0.00  0.00    +0.000 NA
ATOM      5  N   UNL     1       2.140   5.983  20.800  0.00  0.00    +0.000 NA
ENDROOT
BRANCH   1   8
ATOM      6  N   UNL     1       5.261   5.854  18.068  0.00  0.00    +0.000 NA
ATOM      7  C   UNL     1       3.934   5.391  17.566  0.00  0.00    +0.000 C 
ATOM      8  C   UNL     1       3.494   5.063  19.014  0.00  0.00    +0.000 C 
ATOM      9  C   UNL     1       5.007   5.096  19.329  0.00  0.00    +0.000 C 
BRANCH   6  10
ATOM     10  S   UNL     1       6.699   5.835  17.180  0.00  0.00    +0.000 S 
ATOM     11  O   UNL     1       6.432   6.458  15.903  0.00  0.00    +0.000 OA
ATOM     12  O   UNL     1       7.258   4.502  17.277  0.00  0.00    +0.000 OA
BRANCH  10  13
ATOM     13  C   UNL     1       7.679   6.946  18.179  0.00  0.00    +0.000 C 
BRANCH  13  15
ATOM     14  C   UNL     1       8.570   9.275  18.441  0.00  0.00    +0.000 C 
ATOM     15  C   UNL     1       7.859   8.303  17.513  0.00  0.00    +0.000 C 
ENDBRANCH  13  15
ENDBRANCH  10  13
ENDBRANCH   6  10
ENDBRANCH   1   8
BRANCH   3  16
ATOM     16  C   UNL     1       1.143   9.338  20.002  0.00  0.00    +0.000 C 
ATOM     17  O   UNL     1       1.220  10.108  20.953  0.00  0.00    +0.000 OA
ATOM     18  N   UNL     1       0.547   9.658  18.806  0.00  0.00    +0.000 N 
ATOM     19  H   UNL     1       0.514   8.947  18.084  0.00  0.00    +0.000 HD
BRANCH  18  20
ATOM     20  C   UNL     1      -0.040  10.950  18.546  0.00  0.00    +0.000 C 
BRANCH  20  21
ATOM     21  C   UNL     1      -1.467  10.822  18.077  0.00  0.00    +0.000 A 
ATOM     22  C   UNL     1      -2.483  11.553  18.708  0.00  0.00    +0.000 A 
ATOM     23  C   UNL     1      -3.808  11.442  18.278  0.00  0.00    +0.000 A 
ATOM     24  C   UNL     1      -4.130  10.593  17.221  0.00  0.00    +0.000 A 
ATOM     25  C   UNL     1      -3.129   9.854  16.593  0.00  0.00    +0.000 A 
ATOM     26  C   UNL     1      -1.804   9.964  17.021  0.00  0.00    +0.000 A 
ENDBRANCH  20  21
ENDBRANCH  18  20
ENDBRANCH   3  16
TORSDOF 7
ENDMDL
MODEL 6
REMARK VINA RESULT:      -7.0      1.779      2.448
REMARK  Name = 
REMARK  8 active torsions:
REMARK  status: ('A' for Active; 'I' for Inactive)
REMARK    1  A    between atoms: C_1  and  C_2
REMARK    2  A    between atoms: C_2  and  C_3
REMARK    3  A    between atoms: C_3  and  S_4
REMARK    4  A    between atoms: S_4  and  N_7
REMARK    5  A    between atoms: C_9  and  N_10
REMARK    6  A    between atoms: C_12  and  C_13
REMARK    7  A    between atoms: N_15  and  C_16
REMARK    8  A    between atoms: C_16  and  C_17
REMARK                            x       y       z     vdW  Elec       q    Type
REMARK                         _______ _______ _______ _____ _____    ______ ____
ROOT
ATOM      1  N   UNL     1       2.987   6.458  19.053  0.00  0.00    +0.000 N 
ATOM      2  C   UNL     1       2.808   7.561  18.265  0.00  0.00    +0.000 A 
ATOM      3  C   UNL     1       1.988   8.387  19.010  0.00  0.00    +0.000 A 
ATOM      4  N   UNL     1       1.700   7.763  20.200  0.00  0.00    +0.000 NA
ATOM      5  N   UNL     1       2.323   6.591  20.217  0.00  0.00    +0.000 NA
ENDROOT
BRANCH   1   8
ATOM      6  N   UNL     1       5.401   5.749  17.477  0.00  0.00    +0.000 NA
ATOM      7  C   UNL     1       4.061   5.131  17.260  0.00  0.00    +0.000 C 
ATOM      8  C   UNL     1       3.746   5.270  18.769  0.00  0.00    +0.000 C 
ATOM      9  C   UNL     1       5.276   5.424  18.928  0.00  0.00    +0.000 C 
BRANCH   6  10
ATOM     10  S   UNL     1       6.768   5.474  16.520  0.00  0.00    +0.000 S 
ATOM     11  O   UNL     1       7.366   4.233  16.958  0.00  0.00    +0.000 OA
ATOM     12  O   UNL     1       7.523   6.710  16.470  0.00  0.00    +0.000 OA
BRANCH  10  13
ATOM     13  C   UNL     1       5.977   5.217  14.939  0.00  0.00    +0.000 C 
BRANCH  13  15
ATOM     14  C   UNL     1       6.194   3.622  13.016  0.00  0.00    +0.000 C 
ATOM     15  C   UNL     1       6.926   4.601  13.920  0.00  0.00    +0.000 C 
ENDBRANCH  13  15
ENDBRANCH  10  13
ENDBRANCH   6  10
ENDBRANCH   1   8
BRANCH   3  16
ATOM     16  C   UNL     1       1.480   9.700  18.631  0.00  0.00    +0.000 C 
ATOM     17  O   UNL     1       2.100  10.451  17.886  0.00  0.00    +0.000 OA
ATOM     18  N   UNL     1       0.253  10.001  19.171  0.00  0.00    +0.000 N 
ATOM     19  H   UNL     1      -0.175   9.324  19.793  0.00  0.00    +0.000 HD
BRANCH  18  20
ATOM     20  C   UNL     1      -0.437  11.239  18.901  0.00  0.00    +0.000 C 
BRANCH  20  21
ATOM     21  C   UNL     1      -1.734  10.999  18.172  0.00  0.00    +0.000 A 
ATOM     22  C   UNL     1      -1.790  10.073  17.121  0.00  0.00    +0.000 A 
ATOM     23  C   UNL     1      -2.989   9.844  16.441  0.00  0.00    +0.000 A 
ATOM     24  C   UNL     1      -4.139  10.544  16.799  0.00  0.00    +0.000 A 
ATOM     25  C   UNL     1      -4.093  11.475  17.835  0.00  0.00    +0.000 A 
ATOM     26  C   UNL     1      -2.896  11.705  18.516  0.00  0.00    +0.000 A 
ENDBRANCH  20  21
ENDBRANCH  18  20
ENDBRANCH   3  16
TORSDOF 7
ENDMDL
MODEL 7
REMARK VINA RESULT:      -7.0      1.943      2.361
REMARK  Name = 
REMARK  8 active torsions:
REMARK  status: ('A' for Active; 'I' for Inactive)
REMARK    1  A    between atoms: C_1  and  C_2
REMARK    2  A    between atoms: C_2  and  C_3
REMARK    3  A    between atoms: C_3  and  S_4
REMARK    4  A    between atoms: S_4  and  N_7
REMARK    5  A    between atoms: C_9  and  N_10
REMARK    6  A    between atoms: C_12  and  C_13
REMARK    7  A    between atoms: N_15  and  C_16
REMARK    8  A    between atoms: C_16  and  C_17
REMARK                            x       y       z     vdW  Elec       q    Type
REMARK                         _______ _______ _______ _____ _____    ______ ____
ROOT
ATOM      1  N   UNL     1       2.838   6.222  18.783  0.00  0.00    +0.000 N 
ATOM      2  C   UNL     1       2.378   7.496  18.968  0.00  0.00    +0.000 A 
ATOM      3  C   UNL     1       1.799   7.475  20.221  0.00  0.00    +0.000 A 
ATOM      4  N   UNL     1       1.920   6.209  20.741  0.00  0.00    +0.000 NA
ATOM      5  N   UNL     1       2.565   5.457  19.858  0.00  0.00    +0.000 NA
ENDROOT
BRANCH   1   8
ATOM      6  N   UNL     1       5.648   5.798  17.927  0.00  0.00    +0.000 NA
ATOM      7  C   UNL     1       4.658   6.595  17.146  0.00  0.00    +0.000 C 
ATOM      8  C   UNL     1       3.517   5.672  17.641  0.00  0.00    +0.000 C 
ATOM      9  C   UNL     1       4.657   4.684  17.979  0.00  0.00    +0.000 C 
BRANCH   6  10
ATOM     10  S   UNL     1       7.288   5.641  17.547  0.00  0.00    +0.000 S 
ATOM     11  O   UNL     1       7.431   5.861  16.124  0.00  0.00    +0.000 OA
ATOM     12  O   UNL     1       7.773   4.434  18.185  0.00  0.00    +0.000 OA
BRANCH  10  13
ATOM     13  C   UNL     1       7.934   7.057  18.424  0.00  0.00    +0.000 C 
BRANCH  13  15
ATOM     14  C   UNL     1       8.564   9.481  18.293  0.00  0.00    +0.000 C 
ATOM     15  C   UNL     1       7.885   8.323  17.579  0.00  0.00    +0.000 C 
ENDBRANCH  13  15
ENDBRANCH  10  13
ENDBRANCH   6  10
ENDBRANCH   1   8
BRANCH   3  16
ATOM     16  C   UNL     1       1.146   8.582  20.910  0.00  0.00    +0.000 C 
ATOM     17  O   UNL     1       1.205   8.721  22.127  0.00  0.00    +0.000 OA
ATOM     18  N   UNL     1       0.482   9.447  20.074  0.00  0.00    +0.000 N 
ATOM     19  H   UNL     1       0.473   9.240  19.082  0.00  0.00    +0.000 HD
BRANCH  18  20
ATOM     20  C   UNL     1      -0.207  10.622  20.551  0.00  0.00    +0.000 C 
BRANCH  20  21
ATOM     21  C   UNL     1       0.268  11.865  19.845  0.00  0.00    +0.000 A 
ATOM     22  C   UNL     1       1.502  11.870  19.181  0.00  0.00    +0.000 A 
ATOM     23  C   UNL     1       1.949  13.018  18.522  0.00  0.00    +0.000 A 
ATOM     24  C   UNL     1       1.171  14.174  18.530  0.00  0.00    +0.000 A 
ATOM     25  C   UNL     1      -0.052  14.184  19.196  0.00  0.00    +0.000 A 
ATOM     26  C   UNL     1      -0.502  13.037  19.854  0.00  0.00    +0.000 A 
ENDBRANCH  20  21
ENDBRANCH  18  20
ENDBRANCH   3  16
TORSDOF 7
ENDMDL
MODEL 8
REMARK VINA RESULT:      -7.0      2.138      3.492
REMARK  Name = 
REMARK  8 active torsions:
REMARK  status: ('A' for Active; 'I' for Inactive)
REMARK    1  A    between atoms: C_1  and  C_2
REMARK    2  A    between atoms: C_2  and  C_3
REMARK    3  A    between atoms: C_3  and  S_4
REMARK    4  A    between atoms: S_4  and  N_7
REMARK    5  A    between atoms: C_9  and  N_10
REMARK    6  A    between atoms: C_12  and  C_13
REMARK    7  A    between atoms: N_15  and  C_16
REMARK    8  A    between atoms: C_16  and  C_17
REMARK                            x       y       z     vdW  Elec       q    Type
REMARK                         _______ _______ _______ _____ _____    ______ ____
ROOT
ATOM      1  N   UNL     1       2.851   6.565  18.480  0.00  0.00    +0.000 N 
ATOM      2  C   UNL     1       2.333   7.804  18.220  0.00  0.00    +0.000 A 
ATOM      3  C   UNL     1       1.767   8.198  19.416  0.00  0.00    +0.000 A 
ATOM      4  N   UNL     1       1.954   7.200  20.342  0.00  0.00    +0.000 NA
ATOM      5  N   UNL     1       2.625   6.213  19.760  0.00  0.00    +0.000 NA
ENDROOT
BRANCH   1   8
ATOM      6  N   UNL     1       5.672   5.934  17.806  0.00  0.00    +0.000 NA
ATOM      7  C   UNL     1       4.670   6.406  16.807  0.00  0.00    +0.000 C 
ATOM      8  C   UNL     1       3.545   5.679  17.584  0.00  0.00    +0.000 C 
ATOM      9  C   UNL     1       4.702   4.882  18.228  0.00  0.00    +0.000 C 
BRANCH   6  10
ATOM     10  S   UNL     1       7.316   5.690  17.496  0.00  0.00    +0.000 S 
ATOM     11  O   UNL     1       7.528   5.890  16.079  0.00  0.00    +0.000 OA
ATOM     12  O   UNL     1       7.711   4.465  18.161  0.00  0.00    +0.000 OA
BRANCH  10  13
ATOM     13  C   UNL     1       7.997   7.078  18.391  0.00  0.00    +0.000 C 
BRANCH  13  15
ATOM     14  C   UNL     1       8.550   9.523  18.325  0.00  0.00    +0.000 C 
ATOM     15  C   UNL     1       7.795   8.391  17.646  0.00  0.00    +0.000 C 
ENDBRANCH  13  15
ENDBRANCH  10  13
ENDBRANCH   6  10
ENDBRANCH   1   8
BRANCH   3  16
ATOM     16  C   UNL     1       1.069   9.448  19.692  0.00  0.00    +0.000 C 
ATOM     17  O   UNL     1       0.243   9.550  20.594  0.00  0.00    +0.000 OA
ATOM     18  N   UNL     1       1.431  10.485  18.867  0.00  0.00    +0.000 N 
ATOM     19  H   UNL     1       2.109  10.299  18.136  0.00  0.00    +0.000 HD
BRANCH  18  20
ATOM     20  C   UNL     1       0.877  11.812  18.989  0.00  0.00    +0.000 C 
BRANCH  20  21
ATOM     21  C   UNL     1       1.955  12.840  19.216  0.00  0.00    +0.000 A 
ATOM     22  C   UNL     1       2.178  13.355  20.501  0.00  0.00    +0.000 A 
ATOM     23  C   UNL     1       3.177  14.307  20.720  0.00  0.00    +0.000 A 
ATOM     24  C   UNL     1       3.955  14.759  19.657  0.00  0.00    +0.000 A 
ATOM     25  C   UNL     1       3.737  14.261  18.374  0.00  0.00    +0.000 A 
ATOM     26  C   UNL     1       2.739  13.309  18.152  0.00  0.00    +0.000 A 
ENDBRANCH  20  21
ENDBRANCH  18  20
ENDBRANCH   3  16
TORSDOF 7
ENDMDL
MODEL 9
REMARK VINA RESULT:      -7.0      2.543      3.477
REMARK  Name = 
REMARK  8 active torsions:
REMARK  status: ('A' for Active; 'I' for Inactive)
REMARK    1  A    between atoms: C_1  and  C_2
REMARK    2  A    between atoms: C_2  and  C_3
REMARK    3  A    between atoms: C_3  and  S_4
REMARK    4  A    between atoms: S_4  and  N_7
REMARK    5  A    between atoms: C_9  and  N_10
REMARK    6  A    between atoms: C_12  and  C_13
REMARK    7  A    between atoms: N_15  and  C_16
REMARK    8  A    between atoms: C_16  and  C_17
REMARK                            x       y       z     vdW  Elec       q    Type
REMARK                         _______ _______ _______ _____ _____    ______ ____
ROOT
ATOM      1  N   UNL     1       3.523   5.586  19.393  0.00  0.00    +0.000 N 
ATOM      2  C   UNL     1       3.340   6.703  18.627  0.00  0.00    +0.000 A 
ATOM      3  C   UNL     1       2.238   7.324  19.182  0.00  0.00    +0.000 A 
ATOM      4  N   UNL     1       1.797   6.571  20.244  0.00  0.00    +0.000 NA
ATOM      5  N   UNL     1       2.595   5.518  20.368  0.00  0.00    +0.000 NA
ENDROOT
BRANCH   1   8
ATOM      6  N   UNL     1       5.818   5.019  17.598  0.00  0.00    +0.000 NA
ATOM      7  C   UNL     1       4.670   4.087  17.790  0.00  0.00    +0.000 C 
ATOM      8  C   UNL     1       4.523   4.561  19.257  0.00  0.00    +0.000 C 
ATOM      9  C   UNL     1       5.967   5.084  19.081  0.00  0.00    +0.000 C 
BRANCH   6  10
ATOM     10  S   UNL     1       7.076   4.799  16.490  0.00  0.00    +0.000 S 
ATOM     11  O   UNL     1       8.149   4.114  17.177  0.00  0.00    +0.000 OA
ATOM     12  O   UNL     1       7.288   6.061  15.811  0.00  0.00    +0.000 OA
BRANCH  10  13
ATOM     13  C   UNL     1       6.284   3.663  15.362  0.00  0.00    +0.000 C 
BRANCH  13  15
ATOM     14  C   UNL     1       6.103   3.634  12.861  0.00  0.00    +0.000 C 
ATOM     15  C   UNL     1       5.726   4.372  14.136  0.00  0.00    +0.000 C 
ENDBRANCH  13  15
ENDBRANCH  10  13
ENDBRANCH   6  10
ENDBRANCH   1   8
BRANCH   3  16
ATOM     16  C   UNL     1       1.609   8.563  18.741  0.00  0.00    +0.000 C 
ATOM     17  O   UNL     1       1.440   8.824  17.555  0.00  0.00    +0.000 OA
ATOM     18  N   UNL     1       1.218   9.388  19.768  0.00  0.00    +0.000 N 
ATOM     19  H   UNL     1       1.417   9.095  20.718  0.00  0.00    +0.000 HD
BRANCH  18  20
ATOM     20  C   UNL     1       0.553  10.649  19.548  0.00  0.00    +0.000 C 
BRANCH  20  21
ATOM     21  C   UNL     1      -0.223  11.083  20.765  0.00  0.00    +0.000 A 
ATOM     22  C   UNL     1      -0.336  10.228  21.870  0.00  0.00    +0.000 A 
ATOM     23  C   UNL     1      -1.051  10.624  23.003  0.00  0.00    +0.000 A 
ATOM     24  C   UNL     1      -1.669  11.873  23.037  0.00  0.00    +0.000 A 
ATOM     25  C   UNL     1      -1.572  12.726  21.940  0.00  0.00    +0.000 A 
ATOM     26  C   UNL     1      -0.857  12.333  20.807  0.00  0.00    +0.000 A 
ENDBRANCH  20  21
ENDBRANCH  18  20
ENDBRANCH   3  16
TORSDOF 7
ENDMDL
