MODEL 1
REMARK VINA RESULT:      -8.0      0.000      0.000
REMARK  Name = 
REMARK  4 active torsions:
REMARK  status: ('A' for Active; 'I' for Inactive)
REMARK    1  A    between atoms: C_2  and  C_23
REMARK    2  A    between atoms: N_3  and  C_4
REMARK    3  A    between atoms: C_5  and  C_6
REMARK    4  A    between atoms: N_8  and  C_9
REMARK                            x       y       z     vdW  Elec       q    Type
REMARK                         _______ _______ _______ _____ _____    ______ ____
ROOT
ATOM      1  C   UNL     1       0.543  12.163  19.171  0.00  0.00    +0.000 A 
ATOM      2  C   UNL     1      -0.722  12.681  18.953  0.00  0.00    +0.000 A 
ATOM      3  O   UNL     1      -0.659  14.038  18.788  0.00  0.00    +0.000 OA
ATOM      4  C   UNL     1       0.669  14.375  18.873  0.00  0.00    +0.000 A 
ATOM      5  C   UNL     1       1.191  15.665  18.745  0.00  0.00    +0.000 A 
ATOM      6  C   UNL     1       2.587  15.787  18.804  0.00  0.00    +0.000 A 
ATOM      7  C   UNL     1       3.405  14.671  18.988  0.00  0.00    +0.000 A 
ATOM      8  C   UNL     1       2.852  13.394  19.141  0.00  0.00    +0.000 A 
ATOM      9  C   UNL     1       1.451  13.247  19.093  0.00  0.00    +0.000 A 
ENDROOT
BRANCH   1  12
ATOM     10  O   UNL     1       1.938  10.468  17.406  0.00  0.00    +0.000 OA
ATOM     11  C   UNL     1       1.487  10.061  18.470  0.00  0.00    +0.000 C 
ATOM     12  N   UNL     1       0.785  10.810  19.396  0.00  0.00    +0.000 N 
ATOM     13  H   UNL     1       0.968  10.561  20.368  0.00  0.00    +0.000 HD
BRANCH  11  14
ATOM     14  C   UNL     1       1.771   8.663  18.886  0.00  0.00    +0.000 A 
ATOM     15  C   UNL     1       1.457   8.270  20.205  0.00  0.00    +0.000 A 
ATOM     16  C   UNL     1       1.799   6.995  20.666  0.00  0.00    +0.000 A 
ATOM     17  C   UNL     1       2.463   6.159  19.794  0.00  0.00    +0.000 A 
ATOM     18  C   UNL     1       2.760   6.540  18.504  0.00  0.00    +0.000 A 
ATOM     19  C   UNL     1       2.417   7.781  18.010  0.00  0.00    +0.000 A 
ATOM     20  O   UNL     1       3.439   5.578  17.825  0.00  0.00    +0.000 OA
ATOM     21  C   UNL     1       3.590   4.574  18.852  0.00  0.00    +0.000 C 
ATOM     22  O   UNL     1       2.918   4.911  20.082  0.00  0.00    +0.000 OA
ENDBRANCH  11  14
ENDBRANCH   1  12
BRANCH   2  23
ATOM     23  C   UNL     1      -1.977  11.956  18.962  0.00  0.00    +0.000 C 
ATOM     24  O   UNL     1      -1.972  10.738  18.793  0.00  0.00    +0.000 OA
ATOM     25  N   UNL     1      -3.129  12.711  19.125  0.00  0.00    +0.000 N 
ATOM     26  H   UNL     1      -3.023  13.713  19.050  0.00  0.00    +0.000 HD
BRANCH  25  27
ATOM     27  C   UNL     1      -4.433  12.164  19.177  0.00  0.00    +0.000 A 
ATOM     28  C   UNL     1      -5.060  11.592  18.058  0.00  0.00    +0.000 A 
ATOM     29  C   UNL     1      -6.383  11.148  18.112  0.00  0.00    +0.000 A 
ATOM     30  C   UNL     1      -7.092  11.253  19.302  0.00  0.00    +0.000 A 
ATOM     31  C   UNL     1      -6.458  11.768  20.426  0.00  0.00    +0.000 A 
ATOM     32  F   UNL     1      -7.142  11.863  21.575  0.00  0.00    +0.000 F 
ATOM     33  C   UNL     1      -5.134  12.207  20.383  0.00  0.00    +0.000 A 
ENDBRANCH  25  27
ENDBRANCH   2  23
TORSDOF 4
ENDMDL
MODEL 2
REMARK VINA RESULT:      -7.9      7.650     10.399
REMARK  Name = 
REMARK  4 active torsions:
REMARK  status: ('A' for Active; 'I' for Inactive)
REMARK    1  A    between atoms: C_2  and  C_23
REMARK    2  A    between atoms: N_3  and  C_4
REMARK    3  A    between atoms: C_5  and  C_6
REMARK    4  A    between atoms: N_8  and  C_9
REMARK                            x       y       z     vdW  Elec       q    Type
REMARK                         _______ _______ _______ _____ _____    ______ ____
ROOT
ATOM      1  C   UNL     1       6.838   5.111  15.597  0.00  0.00    +0.000 A 
ATOM      2  C   UNL     1       5.912   4.256  16.170  0.00  0.00    +0.000 A 
ATOM      3  O   UNL     1       5.374   3.431  15.220  0.00  0.00    +0.000 OA
ATOM      4  C   UNL     1       5.992   3.750  14.037  0.00  0.00    +0.000 A 
ATOM      5  C   UNL     1       5.755   3.140  12.803  0.00  0.00    +0.000 A 
ATOM      6  C   UNL     1       6.538   3.573  11.725  0.00  0.00    +0.000 A 
ATOM      7  C   UNL     1       7.501   4.572  11.884  0.00  0.00    +0.000 A 
ATOM      8  C   UNL     1       7.698   5.186  13.126  0.00  0.00    +0.000 A 
ATOM      9  C   UNL     1       6.917   4.772  14.223  0.00  0.00    +0.000 A 
ENDROOT
BRANCH   1  12
ATOM     10  O   UNL     1       5.757   7.581  16.412  0.00  0.00    +0.000 OA
ATOM     11  C   UNL     1       6.910   7.262  16.678  0.00  0.00    +0.000 C 
ATOM     12  N   UNL     1       7.531   6.080  16.318  0.00  0.00    +0.000 N 
ATOM     13  H   UNL     1       8.183   5.717  17.013  0.00  0.00    +0.000 HD
BRANCH  11  14
ATOM     14  C   UNL     1       7.724   8.157  17.540  0.00  0.00    +0.000 A 
ATOM     15  C   UNL     1       8.310   7.625  18.709  0.00  0.00    +0.000 A 
ATOM     16  C   UNL     1       9.000   8.455  19.597  0.00  0.00    +0.000 A 
ATOM     17  C   UNL     1       9.065   9.799  19.295  0.00  0.00    +0.000 A 
ATOM     18  C   UNL     1       8.503  10.315  18.148  0.00  0.00    +0.000 A 
ATOM     19  C   UNL     1       7.835   9.521  17.240  0.00  0.00    +0.000 A 
ATOM     20  O   UNL     1       8.659  11.662  18.057  0.00  0.00    +0.000 OA
ATOM     21  C   UNL     1       9.330  11.943  19.305  0.00  0.00    +0.000 C 
ATOM     22  O   UNL     1       9.646  10.758  20.063  0.00  0.00    +0.000 OA
ENDBRANCH  11  14
ENDBRANCH   1  12
BRANCH   2  23
ATOM     23  C   UNL     1       5.477   4.239  17.552  0.00  0.00    +0.000 C 
ATOM     24  O   UNL     1       6.301   4.421  18.447  0.00  0.00    +0.000 OA
ATOM     25  N   UNL     1       4.135   3.972  17.777  0.00  0.00    +0.000 N 
ATOM     26  H   UNL     1       3.604   3.641  16.983  0.00  0.00    +0.000 HD
BRANCH  25  27
ATOM     27  C   UNL     1       3.539   3.937  19.061  0.00  0.00    +0.000 A 
ATOM     28  C   UNL     1       3.559   2.792  19.873  0.00  0.00    +0.000 A 
ATOM     29  C   UNL     1       2.880   2.754  21.093  0.00  0.00    +0.000 A 
ATOM     30  C   UNL     1       2.185   3.876  21.526  0.00  0.00    +0.000 A 
ATOM     31  C   UNL     1       2.209   5.029  20.750  0.00  0.00    +0.000 A 
ATOM     32  F   UNL     1       1.543   6.113  21.172  0.00  0.00    +0.000 F 
ATOM     33  C   UNL     1       2.891   5.079  19.534  0.00  0.00    +0.000 A 
ENDBRANCH  25  27
ENDBRANCH   2  23
TORSDOF 4
ENDMDL
MODEL 3
REMARK VINA RESULT:      -7.9      9.077     10.046
REMARK  Name = 
REMARK  4 active torsions:
REMARK  status: ('A' for Active; 'I' for Inactive)
REMARK    1  A    between atoms: C_2  and  C_23
REMARK    2  A    between atoms: N_3  and  C_4
REMARK    3  A    between atoms: C_5  and  C_6
REMARK    4  A    between atoms: N_8  and  C_9
REMARK                            x       y       z     vdW  Elec       q    Type
REMARK                         _______ _______ _______ _____ _____    ______ ____
ROOT
ATOM      1  C   UNL     1       9.936  11.218  19.669  0.00  0.00    +0.000 A 
ATOM      2  C   UNL     1       9.740  11.948  20.829  0.00  0.00    +0.000 A 
ATOM      3  O   UNL     1      10.405  13.141  20.758  0.00  0.00    +0.000 OA
ATOM      4  C   UNL     1      11.005  13.176  19.524  0.00  0.00    +0.000 A 
ATOM      5  C   UNL     1      11.779  14.226  19.024  0.00  0.00    +0.000 A 
ATOM      6  C   UNL     1      12.252  14.090  17.711  0.00  0.00    +0.000 A 
ATOM      7  C   UNL     1      11.964  12.954  16.951  0.00  0.00    +0.000 A 
ATOM      8  C   UNL     1      11.210  11.905  17.489  0.00  0.00    +0.000 A 
ATOM      9  C   UNL     1      10.730  12.016  18.809  0.00  0.00    +0.000 A 
ENDROOT
BRANCH   1  12
ATOM     10  O   UNL     1       8.115  10.557  17.624  0.00  0.00    +0.000 OA
ATOM     11  C   UNL     1       8.514   9.722  18.427  0.00  0.00    +0.000 C 
ATOM     12  N   UNL     1       9.398   9.949  19.466  0.00  0.00    +0.000 N 
ATOM     13  H   UNL     1      10.034   9.175  19.656  0.00  0.00    +0.000 HD
BRANCH  11  14
ATOM     14  C   UNL     1       8.105   8.305  18.255  0.00  0.00    +0.000 A 
ATOM     15  C   UNL     1       8.462   7.369  19.250  0.00  0.00    +0.000 A 
ATOM     16  C   UNL     1       8.184   6.010  19.080  0.00  0.00    +0.000 A 
ATOM     17  C   UNL     1       7.570   5.628  17.906  0.00  0.00    +0.000 A 
ATOM     18  C   UNL     1       7.211   6.542  16.940  0.00  0.00    +0.000 A 
ATOM     19  C   UNL     1       7.451   7.892  17.087  0.00  0.00    +0.000 A 
ATOM     20  O   UNL     1       6.645   5.952  15.855  0.00  0.00    +0.000 OA
ATOM     21  C   UNL     1       6.743   4.558  16.220  0.00  0.00    +0.000 C 
ATOM     22  O   UNL     1       7.271   4.351  17.546  0.00  0.00    +0.000 OA
ENDBRANCH  11  14
ENDBRANCH   1  12
BRANCH   2  23
ATOM     23  C   UNL     1       9.010  11.532  22.010  0.00  0.00    +0.000 C 
ATOM     24  O   UNL     1       8.819  10.335  22.211  0.00  0.00    +0.000 OA
ATOM     25  N   UNL     1       8.531  12.542  22.831  0.00  0.00    +0.000 N 
ATOM     26  H   UNL     1       8.574  13.481  22.459  0.00  0.00    +0.000 HD
BRANCH  25  27
ATOM     27  C   UNL     1       7.817  12.315  24.032  0.00  0.00    +0.000 A 
ATOM     28  C   UNL     1       8.248  12.807  25.274  0.00  0.00    +0.000 A 
ATOM     29  C   UNL     1       7.577  12.487  26.456  0.00  0.00    +0.000 A 
ATOM     30  C   UNL     1       6.447  11.680  26.405  0.00  0.00    +0.000 A 
ATOM     31  C   UNL     1       5.986  11.235  25.172  0.00  0.00    +0.000 A 
ATOM     32  F   UNL     1       4.893  10.462  25.125  0.00  0.00    +0.000 F 
ATOM     33  C   UNL     1       6.646  11.557  23.985  0.00  0.00    +0.000 A 
ENDBRANCH  25  27
ENDBRANCH   2  23
TORSDOF 4
ENDMDL
MODEL 4
REMARK VINA RESULT:      -7.8      3.123      6.419
REMARK  Name = 
REMARK  4 active torsions:
REMARK  status: ('A' for Active; 'I' for Inactive)
REMARK    1  A    between atoms: C_2  and  C_23
REMARK    2  A    between atoms: N_3  and  C_4
REMARK    3  A    between atoms: C_5  and  C_6
REMARK    4  A    between atoms: N_8  and  C_9
REMARK                            x       y       z     vdW  Elec       q    Type
REMARK                         _______ _______ _______ _____ _____    ______ ____
ROOT
ATOM      1  C   UNL     1      -0.262  10.792  18.542  0.00  0.00    +0.000 A 
ATOM      2  C   UNL     1      -0.080  12.052  19.085  0.00  0.00    +0.000 A 
ATOM      3  O   UNL     1      -1.264  12.736  19.111  0.00  0.00    +0.000 OA
ATOM      4  C   UNL     1      -2.213  11.884  18.603  0.00  0.00    +0.000 A 
ATOM      5  C   UNL     1      -3.573  12.171  18.460  0.00  0.00    +0.000 A 
ATOM      6  C   UNL     1      -4.386  11.137  17.975  0.00  0.00    +0.000 A 
ATOM      7  C   UNL     1      -3.854   9.888  17.648  0.00  0.00    +0.000 A 
ATOM      8  C   UNL     1      -2.483   9.639  17.775  0.00  0.00    +0.000 A 
ATOM      9  C   UNL     1      -1.643  10.664  18.253  0.00  0.00    +0.000 A 
ENDROOT
BRANCH   1  12
ATOM     10  O   UNL     1       0.576   8.929  20.481  0.00  0.00    +0.000 OA
ATOM     11  C   UNL     1       1.109   8.997  19.379  0.00  0.00    +0.000 C 
ATOM     12  N   UNL     1       0.774   9.878  18.367  0.00  0.00    +0.000 N 
ATOM     13  H   UNL     1       0.855   9.492  17.427  0.00  0.00    +0.000 HD
BRANCH  11  14
ATOM     14  C   UNL     1       2.154   8.005  19.022  0.00  0.00    +0.000 A 
ATOM     15  C   UNL     1       2.881   8.185  17.824  0.00  0.00    +0.000 A 
ATOM     16  C   UNL     1       3.802   7.223  17.402  0.00  0.00    +0.000 A 
ATOM     17  C   UNL     1       3.954   6.098  18.185  0.00  0.00    +0.000 A 
ATOM     18  C   UNL     1       3.254   5.929  19.359  0.00  0.00    +0.000 A 
ATOM     19  C   UNL     1       2.354   6.868  19.816  0.00  0.00    +0.000 A 
ATOM     20  O   UNL     1       3.533   4.742  19.960  0.00  0.00    +0.000 OA
ATOM     21  C   UNL     1       4.442   4.158  19.002  0.00  0.00    +0.000 C 
ATOM     22  O   UNL     1       4.762   5.040  17.907  0.00  0.00    +0.000 OA
ENDBRANCH  11  14
ENDBRANCH   1  12
BRANCH   2  23
ATOM     23  C   UNL     1       1.171  12.646  19.514  0.00  0.00    +0.000 C 
ATOM     24  O   UNL     1       1.736  12.209  20.515  0.00  0.00    +0.000 OA
ATOM     25  N   UNL     1       1.636  13.719  18.769  0.00  0.00    +0.000 N 
ATOM     26  H   UNL     1       0.989  14.114  18.099  0.00  0.00    +0.000 HD
BRANCH  25  27
ATOM     27  C   UNL     1       2.846  14.403  19.034  0.00  0.00    +0.000 A 
ATOM     28  C   UNL     1       3.020  15.227  20.157  0.00  0.00    +0.000 A 
ATOM     29  C   UNL     1       4.191  15.966  20.344  0.00  0.00    +0.000 A 
ATOM     30  C   UNL     1       5.216  15.871  19.412  0.00  0.00    +0.000 A 
ATOM     31  C   UNL     1       5.070  15.015  18.327  0.00  0.00    +0.000 A 
ATOM     32  F   UNL     1       6.063  14.920  17.433  0.00  0.00    +0.000 F 
ATOM     33  C   UNL     1       3.907  14.267  18.137  0.00  0.00    +0.000 A 
ENDBRANCH  25  27
ENDBRANCH   2  23
TORSDOF 4
ENDMDL
MODEL 5
REMARK VINA RESULT:      -7.7      3.628      6.423
REMARK  Name = 
REMARK  4 active torsions:
REMARK  status: ('A' for Active; 'I' for Inactive)
REMARK    1  A    between atoms: C_2  and  C_23
REMARK    2  A    between atoms: N_3  and  C_4
REMARK    3  A    between atoms: C_5  and  C_6
REMARK    4  A    between atoms: N_8  and  C_9
REMARK                            x       y       z     vdW  Elec       q    Type
REMARK                         _______ _______ _______ _____ _____    ______ ____
ROOT
ATOM      1  C   UNL     1      -0.676  12.706  22.365  0.00  0.00    +0.000 A 
ATOM      2  C   UNL     1      -0.137  13.973  22.224  0.00  0.00    +0.000 A 
ATOM      3  O   UNL     1      -0.958  14.906  22.793  0.00  0.00    +0.000 OA
ATOM      4  C   UNL     1      -2.017  14.215  23.327  0.00  0.00    +0.000 A 
ATOM      5  C   UNL     1      -3.092  14.778  24.020  0.00  0.00    +0.000 A 
ATOM      6  C   UNL     1      -4.042  13.887  24.539  0.00  0.00    +0.000 A 
ATOM      7  C   UNL     1      -3.915  12.508  24.363  0.00  0.00    +0.000 A 
ATOM      8  C   UNL     1      -2.842  11.974  23.640  0.00  0.00    +0.000 A 
ATOM      9  C   UNL     1      -1.878  12.849  23.102  0.00  0.00    +0.000 A 
ENDROOT
BRANCH   1  12
ATOM     10  O   UNL     1      -1.261  11.550  19.864  0.00  0.00    +0.000 OA
ATOM     11  C   UNL     1      -0.422  11.069  20.616  0.00  0.00    +0.000 C 
ATOM     12  N   UNL     1      -0.071  11.557  21.861  0.00  0.00    +0.000 N 
ATOM     13  H   UNL     1       0.917  11.454  22.092  0.00  0.00    +0.000 HD
BRANCH  11  14
ATOM     14  C   UNL     1       0.379   9.907  20.153  0.00  0.00    +0.000 A 
ATOM     15  C   UNL     1       0.642   8.858  21.062  0.00  0.00    +0.000 A 
ATOM     16  C   UNL     1       1.474   7.796  20.697  0.00  0.00    +0.000 A 
ATOM     17  C   UNL     1       2.031   7.826  19.437  0.00  0.00    +0.000 A 
ATOM     18  C   UNL     1       1.765   8.844  18.547  0.00  0.00    +0.000 A 
ATOM     19  C   UNL     1       0.932   9.895  18.867  0.00  0.00    +0.000 A 
ATOM     20  O   UNL     1       2.436   8.693  17.375  0.00  0.00    +0.000 OA
ATOM     21  C   UNL     1       3.201   7.499  17.649  0.00  0.00    +0.000 C 
ATOM     22  O   UNL     1       2.900   6.911  18.931  0.00  0.00    +0.000 OA
ENDBRANCH  11  14
ENDBRANCH   1  12
BRANCH   2  23
ATOM     23  C   UNL     1       1.079  14.331  21.521  0.00  0.00    +0.000 C 
ATOM     24  O   UNL     1       2.111  14.526  22.160  0.00  0.00    +0.000 OA
ATOM     25  N   UNL     1       0.982  14.471  20.145  0.00  0.00    +0.000 N 
ATOM     26  H   UNL     1       0.047  14.485  19.760  0.00  0.00    +0.000 HD
BRANCH  25  27
ATOM     27  C   UNL     1       2.072  14.797  19.303  0.00  0.00    +0.000 A 
ATOM     28  C   UNL     1       3.273  14.071  19.305  0.00  0.00    +0.000 A 
ATOM     29  C   UNL     1       4.368  14.472  18.535  0.00  0.00    +0.000 A 
ATOM     30  C   UNL     1       4.264  15.601  17.733  0.00  0.00    +0.000 A 
ATOM     31  C   UNL     1       3.058  16.292  17.687  0.00  0.00    +0.000 A 
ATOM     32  F   UNL     1       2.958  17.377  16.908  0.00  0.00    +0.000 F 
ATOM     33  C   UNL     1       1.957  15.893  18.447  0.00  0.00    +0.000 A 
ENDBRANCH  25  27
ENDBRANCH   2  23
TORSDOF 4
ENDMDL
MODEL 6
REMARK VINA RESULT:      -7.7      2.816      6.212
REMARK  Name = 
REMARK  4 active torsions:
REMARK  status: ('A' for Active; 'I' for Inactive)
REMARK    1  A    between atoms: C_2  and  C_23
REMARK    2  A    between atoms: N_3  and  C_4
REMARK    3  A    between atoms: C_5  and  C_6
REMARK    4  A    between atoms: N_8  and  C_9
REMARK                            x       y       z     vdW  Elec       q    Type
REMARK                         _______ _______ _______ _____ _____    ______ ____
ROOT
ATOM      1  C   UNL     1      -0.335  10.831  18.414  0.00  0.00    +0.000 A 
ATOM      2  C   UNL     1      -0.162  12.120  18.889  0.00  0.00    +0.000 A 
ATOM      3  O   UNL     1      -1.358  12.782  18.916  0.00  0.00    +0.000 OA
ATOM      4  C   UNL     1      -2.304  11.888  18.480  0.00  0.00    +0.000 A 
ATOM      5  C   UNL     1      -3.673  12.142  18.364  0.00  0.00    +0.000 A 
ATOM      6  C   UNL     1      -4.480  11.071  17.955  0.00  0.00    +0.000 A 
ATOM      7  C   UNL     1      -3.932   9.817  17.674  0.00  0.00    +0.000 A 
ATOM      8  C   UNL     1      -2.553   9.600  17.772  0.00  0.00    +0.000 A 
ATOM      9  C   UNL     1      -1.721  10.663  18.173  0.00  0.00    +0.000 A 
ENDROOT
BRANCH   1  12
ATOM     10  O   UNL     1       0.554   9.037  20.395  0.00  0.00    +0.000 OA
ATOM     11  C   UNL     1       1.074   9.083  19.286  0.00  0.00    +0.000 C 
ATOM     12  N   UNL     1       0.714   9.929  18.254  0.00  0.00    +0.000 N 
ATOM     13  H   UNL     1       0.791   9.518  17.324  0.00  0.00    +0.000 HD
BRANCH  11  14
ATOM     14  C   UNL     1       2.131   8.097  18.945  0.00  0.00    +0.000 A 
ATOM     15  C   UNL     1       2.862   8.271  17.749  0.00  0.00    +0.000 A 
ATOM     16  C   UNL     1       3.796   7.314  17.342  0.00  0.00    +0.000 A 
ATOM     17  C   UNL     1       3.955   6.200  18.139  0.00  0.00    +0.000 A 
ATOM     18  C   UNL     1       3.250   6.036  19.311  0.00  0.00    +0.000 A 
ATOM     19  C   UNL     1       2.338   6.971  19.752  0.00  0.00    +0.000 A 
ATOM     20  O   UNL     1       3.538   4.859  19.926  0.00  0.00    +0.000 OA
ATOM     21  C   UNL     1       4.458   4.274  18.979  0.00  0.00    +0.000 C 
ATOM     22  O   UNL     1       4.774   5.147  17.876  0.00  0.00    +0.000 OA
ENDBRANCH  11  14
ENDBRANCH   1  12
BRANCH   2  23
ATOM     23  C   UNL     1       1.089  12.758  19.250  0.00  0.00    +0.000 C 
ATOM     24  O   UNL     1       1.737  12.321  20.199  0.00  0.00    +0.000 OA
ATOM     25  N   UNL     1       1.456  13.868  18.506  0.00  0.00    +0.000 N 
ATOM     26  H   UNL     1       0.750  14.251  17.892  0.00  0.00    +0.000 HD
BRANCH  25  27
ATOM     27  C   UNL     1       2.652  14.598  18.710  0.00  0.00    +0.000 A 
ATOM     28  C   UNL     1       3.859  14.266  18.075  0.00  0.00    +0.000 A 
ATOM     29  C   UNL     1       5.046  14.941  18.368  0.00  0.00    +0.000 A 
ATOM     30  C   UNL     1       5.033  15.978  19.292  0.00  0.00    +0.000 A 
ATOM     31  C   UNL     1       3.830  16.346  19.882  0.00  0.00    +0.000 A 
ATOM     32  F   UNL     1       3.819  17.351  20.768  0.00  0.00    +0.000 F 
ATOM     33  C   UNL     1       2.638  15.682  19.589  0.00  0.00    +0.000 A 
ENDBRANCH  25  27
ENDBRANCH   2  23
TORSDOF 4
ENDMDL
MODEL 7
REMARK VINA RESULT:      -7.7      3.347      7.557
REMARK  Name = 
REMARK  4 active torsions:
REMARK  status: ('A' for Active; 'I' for Inactive)
REMARK    1  A    between atoms: C_2  and  C_23
REMARK    2  A    between atoms: N_3  and  C_4
REMARK    3  A    between atoms: C_5  and  C_6
REMARK    4  A    between atoms: N_8  and  C_9
REMARK                            x       y       z     vdW  Elec       q    Type
REMARK                         _______ _______ _______ _____ _____    ______ ____
ROOT
ATOM      1  C   UNL     1       0.644  12.690  19.094  0.00  0.00    +0.000 A 
ATOM      2  C   UNL     1       1.453  11.625  18.736  0.00  0.00    +0.000 A 
ATOM      3  O   UNL     1       2.604  12.077  18.152  0.00  0.00    +0.000 OA
ATOM      4  C   UNL     1       2.533  13.448  18.168  0.00  0.00    +0.000 A 
ATOM      5  C   UNL     1       3.509  14.321  17.682  0.00  0.00    +0.000 A 
ATOM      6  C   UNL     1       3.269  15.691  17.850  0.00  0.00    +0.000 A 
ATOM      7  C   UNL     1       2.104  16.153  18.468  0.00  0.00    +0.000 A 
ATOM      8  C   UNL     1       1.130  15.255  18.920  0.00  0.00    +0.000 A 
ATOM      9  C   UNL     1       1.346  13.873  18.756  0.00  0.00    +0.000 A 
ENDROOT
BRANCH   1  12
ATOM     10  O   UNL     1       0.163  12.804  21.867  0.00  0.00    +0.000 OA
ATOM     11  C   UNL     1      -0.742  12.612  21.063  0.00  0.00    +0.000 C 
ATOM     12  N   UNL     1      -0.605  12.533  19.689  0.00  0.00    +0.000 N 
ATOM     13  H   UNL     1      -1.386  12.926  19.163  0.00  0.00    +0.000 HD
BRANCH  11  14
ATOM     14  C   UNL     1      -2.141  12.539  21.556  0.00  0.00    +0.000 A 
ATOM     15  C   UNL     1      -3.193  12.828  20.659  0.00  0.00    +0.000 A 
ATOM     16  C   UNL     1      -4.516  12.867  21.107  0.00  0.00    +0.000 A 
ATOM     17  C   UNL     1      -4.743  12.633  22.447  0.00  0.00    +0.000 A 
ATOM     18  C   UNL     1      -3.717  12.340  23.318  0.00  0.00    +0.000 A 
ATOM     19  C   UNL     1      -2.404  12.271  22.905  0.00  0.00    +0.000 A 
ATOM     20  O   UNL     1      -4.156  12.171  24.594  0.00  0.00    +0.000 OA
ATOM     21  C   UNL     1      -5.564  12.450  24.437  0.00  0.00    +0.000 C 
ATOM     22  O   UNL     1      -5.952  12.682  23.068  0.00  0.00    +0.000 OA
ENDBRANCH  11  14
ENDBRANCH   1  12
BRANCH   2  23
ATOM     23  C   UNL     1       1.149  10.214  18.867  0.00  0.00    +0.000 C 
ATOM     24  O   UNL     1      -0.019   9.839  18.790  0.00  0.00    +0.000 OA
ATOM     25  N   UNL     1       2.220   9.368  19.115  0.00  0.00    +0.000 N 
ATOM     26  H   UNL     1       3.095   9.812  19.357  0.00  0.00    +0.000 HD
BRANCH  25  27
ATOM     27  C   UNL     1       2.105   7.964  19.250  0.00  0.00    +0.000 A 
ATOM     28  C   UNL     1       1.667   7.351  20.434  0.00  0.00    +0.000 A 
ATOM     29  C   UNL     1       1.656   5.961  20.573  0.00  0.00    +0.000 A 
ATOM     30  C   UNL     1       2.067   5.163  19.512  0.00  0.00    +0.000 A 
ATOM     31  C   UNL     1       2.450   5.766  18.320  0.00  0.00    +0.000 A 
ATOM     32  F   UNL     1       2.840   4.994  17.296  0.00  0.00    +0.000 F 
ATOM     33  C   UNL     1       2.456   7.153  18.170  0.00  0.00    +0.000 A 
ENDBRANCH  25  27
ENDBRANCH   2  23
TORSDOF 4
ENDMDL
MODEL 8
REMARK VINA RESULT:      -7.7      0.808      1.190
REMARK  Name = 
REMARK  4 active torsions:
REMARK  status: ('A' for Active; 'I' for Inactive)
REMARK    1  A    between atoms: C_2  and  C_23
REMARK    2  A    between atoms: N_3  and  C_4
REMARK    3  A    between atoms: C_5  and  C_6
REMARK    4  A    between atoms: N_8  and  C_9
REMARK                            x       y       z     vdW  Elec       q    Type
REMARK                         _______ _______ _______ _____ _____    ______ ____
ROOT
ATOM      1  C   UNL     1       0.664  12.311  19.215  0.00  0.00    +0.000 A 
ATOM      2  C   UNL     1      -0.593  12.887  19.156  0.00  0.00    +0.000 A 
ATOM      3  O   UNL     1      -0.491  14.232  18.931  0.00  0.00    +0.000 OA
ATOM      4  C   UNL     1       0.850  14.503  18.816  0.00  0.00    +0.000 A 
ATOM      5  C   UNL     1       1.409  15.759  18.567  0.00  0.00    +0.000 A 
ATOM      6  C   UNL     1       2.803  15.811  18.425  0.00  0.00    +0.000 A 
ATOM      7  C   UNL     1       3.586  14.660  18.536  0.00  0.00    +0.000 A 
ATOM      8  C   UNL     1       3.001  13.420  18.814  0.00  0.00    +0.000 A 
ATOM      9  C   UNL     1       1.602  13.343  18.968  0.00  0.00    +0.000 A 
ENDROOT
BRANCH   1  12
ATOM     10  O   UNL     1       1.848  10.520  17.392  0.00  0.00    +0.000 OA
ATOM     11  C   UNL     1       1.469  10.157  18.499  0.00  0.00    +0.000 C 
ATOM     12  N   UNL     1       0.872  10.955  19.457  0.00  0.00    +0.000 N 
ATOM     13  H   UNL     1       1.123  10.722  20.417  0.00  0.00    +0.000 HD
BRANCH  11  14
ATOM     14  C   UNL     1       1.733   8.759  18.928  0.00  0.00    +0.000 A 
ATOM     15  C   UNL     1       1.412   8.383  20.251  0.00  0.00    +0.000 A 
ATOM     16  C   UNL     1       1.735   7.108  20.724  0.00  0.00    +0.000 A 
ATOM     17  C   UNL     1       2.387   6.254  19.860  0.00  0.00    +0.000 A 
ATOM     18  C   UNL     1       2.690   6.618  18.567  0.00  0.00    +0.000 A 
ATOM     19  C   UNL     1       2.365   7.859  18.061  0.00  0.00    +0.000 A 
ATOM     20  O   UNL     1       3.355   5.640  17.898  0.00  0.00    +0.000 OA
ATOM     21  C   UNL     1       3.491   4.644  18.934  0.00  0.00    +0.000 C 
ATOM     22  O   UNL     1       2.824   5.002  20.161  0.00  0.00    +0.000 OA
ENDBRANCH  11  14
ENDBRANCH   1  12
BRANCH   2  23
ATOM     23  C   UNL     1      -1.867  12.229  19.369  0.00  0.00    +0.000 C 
ATOM     24  O   UNL     1      -1.918  11.000  19.370  0.00  0.00    +0.000 OA
ATOM     25  N   UNL     1      -2.973  13.051  19.521  0.00  0.00    +0.000 N 
ATOM     26  H   UNL     1      -2.839  14.028  19.300  0.00  0.00    +0.000 HD
BRANCH  25  27
ATOM     27  C   UNL     1      -4.286  12.577  19.756  0.00  0.00    +0.000 A 
ATOM     28  C   UNL     1      -4.918  12.684  21.005  0.00  0.00    +0.000 A 
ATOM     29  C   UNL     1      -6.175  12.121  21.235  0.00  0.00    +0.000 A 
ATOM     30  C   UNL     1      -6.828  11.458  20.205  0.00  0.00    +0.000 A 
ATOM     31  C   UNL     1      -6.229  11.396  18.952  0.00  0.00    +0.000 A 
ATOM     32  F   UNL     1      -6.863  10.761  17.957  0.00  0.00    +0.000 F 
ATOM     33  C   UNL     1      -4.977  11.963  18.710  0.00  0.00    +0.000 A 
ENDBRANCH  25  27
ENDBRANCH   2  23
TORSDOF 4
ENDMDL
MODEL 9
REMARK VINA RESULT:      -7.7      3.276      7.182
REMARK  Name = 
REMARK  4 active torsions:
REMARK  status: ('A' for Active; 'I' for Inactive)
REMARK    1  A    between atoms: C_2  and  C_23
REMARK    2  A    between atoms: N_3  and  C_4
REMARK    3  A    between atoms: C_5  and  C_6
REMARK    4  A    between atoms: N_8  and  C_9
REMARK                            x       y       z     vdW  Elec       q    Type
REMARK                         _______ _______ _______ _____ _____    ______ ____
ROOT
ATOM      1  C   UNL     1       0.669  10.875  20.027  0.00  0.00    +0.000 A 
ATOM      2  C   UNL     1       0.336  10.315  21.249  0.00  0.00    +0.000 A 
ATOM      3  O   UNL     1       0.707   8.999  21.286  0.00  0.00    +0.000 OA
ATOM      4  C   UNL     1       1.309   8.734  20.082  0.00  0.00    +0.000 A 
ATOM      5  C   UNL     1       1.855   7.506  19.697  0.00  0.00    +0.000 A 
ATOM      6  C   UNL     1       2.481   7.461  18.443  0.00  0.00    +0.000 A 
ATOM      7  C   UNL     1       2.546   8.590  17.624  0.00  0.00    +0.000 A 
ATOM      8  C   UNL     1       1.966   9.800  18.024  0.00  0.00    +0.000 A 
ATOM      9  C   UNL     1       1.324   9.868  19.277  0.00  0.00    +0.000 A 
ENDROOT
BRANCH   1  12
ATOM     10  O   UNL     1       2.396  13.048  20.508  0.00  0.00    +0.000 OA
ATOM     11  C   UNL     1       1.308  13.197  19.965  0.00  0.00    +0.000 C 
ATOM     12  N   UNL     1       0.391  12.198  19.693  0.00  0.00    +0.000 N 
ATOM     13  H   UNL     1      -0.124  12.324  18.822  0.00  0.00    +0.000 HD
BRANCH  11  14
ATOM     14  C   UNL     1       0.935  14.542  19.456  0.00  0.00    +0.000 A 
ATOM     15  C   UNL     1      -0.411  14.957  19.556  0.00  0.00    +0.000 A 
ATOM     16  C   UNL     1      -0.822  16.171  19.000  0.00  0.00    +0.000 A 
ATOM     17  C   UNL     1       0.126  16.926  18.344  0.00  0.00    +0.000 A 
ATOM     18  C   UNL     1       1.442  16.526  18.257  0.00  0.00    +0.000 A 
ATOM     19  C   UNL     1       1.885  15.345  18.813  0.00  0.00    +0.000 A 
ATOM     20  O   UNL     1       2.201  17.402  17.547  0.00  0.00    +0.000 OA
ATOM     21  C   UNL     1       1.204  18.366  17.146  0.00  0.00    +0.000 C 
ATOM     22  O   UNL     1      -0.101  18.103  17.702  0.00  0.00    +0.000 OA
ENDBRANCH  11  14
ENDBRANCH   1  12
BRANCH   2  23
ATOM     23  C   UNL     1      -0.371  10.957  22.340  0.00  0.00    +0.000 C 
ATOM     24  O   UNL     1      -0.187  10.564  23.491  0.00  0.00    +0.000 OA
ATOM     25  N   UNL     1      -1.257  11.966  21.997  0.00  0.00    +0.000 N 
ATOM     26  H   UNL     1      -1.472  12.060  21.013  0.00  0.00    +0.000 HD
BRANCH  25  27
ATOM     27  C   UNL     1      -2.013  12.709  22.935  0.00  0.00    +0.000 A 
ATOM     28  C   UNL     1      -1.626  13.983  23.380  0.00  0.00    +0.000 A 
ATOM     29  C   UNL     1      -2.338  14.652  24.378  0.00  0.00    +0.000 A 
ATOM     30  C   UNL     1      -3.465  14.058  24.932  0.00  0.00    +0.000 A 
ATOM     31  C   UNL     1      -3.881  12.820  24.456  0.00  0.00    +0.000 A 
ATOM     32  F   UNL     1      -4.972  12.251  24.987  0.00  0.00    +0.000 F 
ATOM     33  C   UNL     1      -3.181  12.148  23.453  0.00  0.00    +0.000 A 
ENDBRANCH  25  27
ENDBRANCH   2  23
TORSDOF 4
ENDMDL
