MODEL 1
REMARK VINA RESULT:      -7.7      0.000      0.000
REMARK  Name = 
REMARK  7 active torsions:
REMARK  status: ('A' for Active; 'I' for Inactive)
REMARK    1  A    between atoms: C_1  and  O_2
REMARK    2  A    between atoms: O_2  and  C_3
REMARK    3  A    between atoms: C_7  and  C_8
REMARK    4  A    between atoms: C_14  and  O_15
REMARK    5  A    between atoms: N_18  and  C_19
REMARK    6  A    between atoms: C_26  and  O_27
REMARK    7  A    between atoms: O_27  and  C_28
REMARK                            x       y       z     vdW  Elec       q    Type
REMARK                         _______ _______ _______ _____ _____    ______ ____
ROOT
ATOM      1  C   UNL     1       2.086   3.914  18.687  0.00  0.00    +0.000 A 
ATOM      2  C   UNL     1       2.609   3.776  17.392  0.00  0.00    +0.000 A 
ATOM      3  C   UNL     1       3.905   4.161  17.063  0.00  0.00    +0.000 A 
ATOM      4  N   UNL     1       4.345   3.940  15.825  0.00  0.00    +0.000 NA
ATOM      5  C   UNL     1       5.577   4.381  15.515  0.00  0.00    +0.000 A 
ATOM      6  N   UNL     1       6.413   4.987  16.382  0.00  0.00    +0.000 NA
ATOM      7  C   UNL     1       5.957   5.186  17.627  0.00  0.00    +0.000 A 
ATOM      8  N   UNL     1       6.768   5.843  18.567  0.00  0.00    +0.000 N 
ATOM      9  C   UNL     1       4.683   4.762  18.040  0.00  0.00    +0.000 A 
ATOM     10  C   UNL     1       4.149   4.965  19.329  0.00  0.00    +0.000 A 
ATOM     11  C   UNL     1       2.859   4.539  19.669  0.00  0.00    +0.000 A 
ATOM     12  H   UNL     1       7.119   5.154  19.228  0.00  0.00    +0.000 HD
ENDROOT
BRANCH   5  13
ATOM     13  C   UNL     1       6.051   4.170  14.137  0.00  0.00    +0.000 A 
ATOM     14  C   UNL     1       5.354   3.300  13.276  0.00  0.00    +0.000 A 
ATOM     15  C   UNL     1       5.790   3.085  11.972  0.00  0.00    +0.000 A 
ATOM     16  F   UNL     1       5.110   2.246  11.178  0.00  0.00    +0.000 F 
ATOM     17  C   UNL     1       6.919   3.722  11.477  0.00  0.00    +0.000 A 
ATOM     18  C   UNL     1       7.627   4.592  12.300  0.00  0.00    +0.000 A 
ATOM     19  C   UNL     1       7.197   4.806  13.615  0.00  0.00    +0.000 A 
BRANCH  19  20
ATOM     20  O   UNL     1       7.947   5.631  14.411  0.00  0.00    +0.000 OA
ATOM     21  H   UNL     1       8.891   5.496  14.232  0.00  0.00    +0.000 HD
ENDBRANCH  19  20
ENDBRANCH   5  13
BRANCH   8  22
ATOM     22  C   UNL     1       7.801   6.735  18.051  0.00  0.00    +0.000 C 
ATOM     23  C   UNL     1       7.195   7.989  17.423  0.00  0.00    +0.000 C 
ATOM     24  C   UNL     1       8.199   9.070  17.753  0.00  0.00    +0.000 C 
ATOM     25  N   UNL     1       8.596   8.780  19.136  0.00  0.00    +0.000 NA
ATOM     26  C   UNL     1       8.638   7.306  19.218  0.00  0.00    +0.000 C 
ATOM     27  H   UNL     1       7.841   9.100  19.748  0.00  0.00    +0.000 HD
ENDBRANCH   8  22
BRANCH   1  29
ATOM     28  C   UNL     1       0.628   2.059  18.930  0.00  0.00    +0.000 C 
ATOM     29  O   UNL     1       0.827   3.471  18.993  0.00  0.00    +0.000 OA
ENDBRANCH   1  29
BRANCH  11  30
ATOM     30  O   UNL     1       2.567   4.811  20.975  0.00  0.00    +0.000 OA
ATOM     31  C   UNL     1       2.308   3.749  21.873  0.00  0.00    +0.000 C 
ENDBRANCH  11  30
TORSDOF 5
ENDMDL
MODEL 2
REMARK VINA RESULT:      -7.1      8.680     11.117
REMARK  Name = 
REMARK  7 active torsions:
REMARK  status: ('A' for Active; 'I' for Inactive)
REMARK    1  A    between atoms: C_1  and  O_2
REMARK    2  A    between atoms: O_2  and  C_3
REMARK    3  A    between atoms: C_7  and  C_8
REMARK    4  A    between atoms: C_14  and  O_15
REMARK    5  A    between atoms: N_18  and  C_19
REMARK    6  A    between atoms: C_26  and  O_27
REMARK    7  A    between atoms: O_27  and  C_28
REMARK                            x       y       z     vdW  Elec       q    Type
REMARK                         _______ _______ _______ _____ _____    ______ ____
ROOT
ATOM      1  C   UNL     1       1.709  15.494  19.448  0.00  0.00    +0.000 A 
ATOM      2  C   UNL     1       2.096  14.153  19.593  0.00  0.00    +0.000 A 
ATOM      3  C   UNL     1       1.285  13.094  19.197  0.00  0.00    +0.000 A 
ATOM      4  N   UNL     1       1.752  11.851  19.313  0.00  0.00    +0.000 NA
ATOM      5  C   UNL     1       0.925  10.843  18.986  0.00  0.00    +0.000 A 
ATOM      6  N   UNL     1      -0.325  11.004  18.506  0.00  0.00    +0.000 NA
ATOM      7  C   UNL     1      -0.770  12.263  18.383  0.00  0.00    +0.000 A 
ATOM      8  N   UNL     1      -2.076  12.496  17.921  0.00  0.00    +0.000 N 
ATOM      9  C   UNL     1       0.023  13.378  18.703  0.00  0.00    +0.000 A 
ATOM     10  C   UNL     1      -0.405  14.719  18.611  0.00  0.00    +0.000 A 
ATOM     11  C   UNL     1       0.429  15.785  18.970  0.00  0.00    +0.000 A 
ATOM     12  H   UNL     1      -2.024  12.839  16.965  0.00  0.00    +0.000 HD
ENDROOT
BRANCH   5  13
ATOM     13  C   UNL     1       1.426   9.468  19.147  0.00  0.00    +0.000 A 
ATOM     14  C   UNL     1       2.187   8.870  18.124  0.00  0.00    +0.000 A 
ATOM     15  C   UNL     1       2.666   7.569  18.257  0.00  0.00    +0.000 A 
ATOM     16  F   UNL     1       3.382   7.025  17.264  0.00  0.00    +0.000 F 
ATOM     17  C   UNL     1       2.413   6.824  19.399  0.00  0.00    +0.000 A 
ATOM     18  C   UNL     1       1.668   7.387  20.431  0.00  0.00    +0.000 A 
ATOM     19  C   UNL     1       1.178   8.692  20.300  0.00  0.00    +0.000 A 
BRANCH  19  20
ATOM     20  O   UNL     1       0.407   9.195  21.314  0.00  0.00    +0.000 OA
ATOM     21  H   UNL     1       0.975   9.561  22.011  0.00  0.00    +0.000 HD
ENDBRANCH  19  20
ENDBRANCH   5  13
BRANCH   8  22
ATOM     22  C   UNL     1      -3.051  11.426  18.105  0.00  0.00    +0.000 C 
ATOM     23  C   UNL     1      -4.254  11.898  18.919  0.00  0.00    +0.000 C 
ATOM     24  C   UNL     1      -5.411  11.137  18.314  0.00  0.00    +0.000 C 
ATOM     25  N   UNL     1      -5.149  11.176  16.870  0.00  0.00    +0.000 NA
ATOM     26  C   UNL     1      -3.683  11.048  16.746  0.00  0.00    +0.000 C 
ATOM     27  H   UNL     1      -5.405  12.108  16.535  0.00  0.00    +0.000 HD
ENDBRANCH   8  22
BRANCH   1  29
ATOM     28  C   UNL     1       3.649  16.747  18.906  0.00  0.00    +0.000 C 
ATOM     29  O   UNL     1       2.554  16.516  19.792  0.00  0.00    +0.000 OA
ENDBRANCH   1  29
BRANCH  11  30
ATOM     30  O   UNL     1      -0.181  16.990  18.769  0.00  0.00    +0.000 OA
ATOM     31  C   UNL     1       0.006  17.677  17.547  0.00  0.00    +0.000 C 
ENDBRANCH  11  30
TORSDOF 5
ENDMDL
MODEL 3
REMARK VINA RESULT:      -6.9      3.901      5.762
REMARK  Name = 
REMARK  7 active torsions:
REMARK  status: ('A' for Active; 'I' for Inactive)
REMARK    1  A    between atoms: C_1  and  O_2
REMARK    2  A    between atoms: O_2  and  C_3
REMARK    3  A    between atoms: C_7  and  C_8
REMARK    4  A    between atoms: C_14  and  O_15
REMARK    5  A    between atoms: N_18  and  C_19
REMARK    6  A    between atoms: C_26  and  O_27
REMARK    7  A    between atoms: O_27  and  C_28
REMARK                            x       y       z     vdW  Elec       q    Type
REMARK                         _______ _______ _______ _____ _____    ______ ____
ROOT
ATOM      1  C   UNL     1       1.578  10.278  18.660  0.00  0.00    +0.000 A 
ATOM      2  C   UNL     1       2.576   9.651  17.897  0.00  0.00    +0.000 A 
ATOM      3  C   UNL     1       2.855   8.292  18.002  0.00  0.00    +0.000 A 
ATOM      4  N   UNL     1       3.777   7.763  17.198  0.00  0.00    +0.000 NA
ATOM      5  C   UNL     1       4.076   6.463  17.365  0.00  0.00    +0.000 A 
ATOM      6  N   UNL     1       3.475   5.648  18.256  0.00  0.00    +0.000 NA
ATOM      7  C   UNL     1       2.540   6.197  19.046  0.00  0.00    +0.000 A 
ATOM      8  N   UNL     1       1.903   5.409  20.018  0.00  0.00    +0.000 N 
ATOM      9  C   UNL     1       2.165   7.547  18.944  0.00  0.00    +0.000 A 
ATOM     10  C   UNL     1       1.204   8.176  19.763  0.00  0.00    +0.000 A 
ATOM     11  C   UNL     1       0.894   9.535  19.626  0.00  0.00    +0.000 A 
ATOM     12  H   UNL     1       0.956   5.210  19.702  0.00  0.00    +0.000 HD
ENDROOT
BRANCH   5  13
ATOM     13  C   UNL     1       5.119   5.886  16.502  0.00  0.00    +0.000 A 
ATOM     14  C   UNL     1       4.760   5.097  15.391  0.00  0.00    +0.000 A 
ATOM     15  C   UNL     1       5.732   4.539  14.566  0.00  0.00    +0.000 A 
ATOM     16  F   UNL     1       5.359   3.788  13.521  0.00  0.00    +0.000 F 
ATOM     17  C   UNL     1       7.083   4.744  14.808  0.00  0.00    +0.000 A 
ATOM     18  C   UNL     1       7.472   5.522  15.894  0.00  0.00    +0.000 A 
ATOM     19  C   UNL     1       6.498   6.079  16.731  0.00  0.00    +0.000 A 
BRANCH  19  20
ATOM     20  O   UNL     1       6.918   6.798  17.818  0.00  0.00    +0.000 OA
ATOM     21  H   UNL     1       6.662   7.729  17.720  0.00  0.00    +0.000 HD
ENDBRANCH  19  20
ENDBRANCH   5  13
BRANCH   8  22
ATOM     22  C   UNL     1       2.618   4.231  20.497  0.00  0.00    +0.000 C 
ATOM     23  C   UNL     1       1.991   3.677  21.776  0.00  0.00    +0.000 C 
ATOM     24  C   UNL     1       2.180   2.183  21.643  0.00  0.00    +0.000 C 
ATOM     25  N   UNL     1       1.890   1.910  20.230  0.00  0.00    +0.000 NA
ATOM     26  C   UNL     1       2.447   3.065  19.498  0.00  0.00    +0.000 C 
ATOM     27  H   UNL     1       0.875   1.932  20.113  0.00  0.00    +0.000 HD
ENDBRANCH   8  22
BRANCH   1  29
ATOM     28  C   UNL     1       2.398  12.464  18.246  0.00  0.00    +0.000 C 
ATOM     29  O   UNL     1       1.285  11.605  18.491  0.00  0.00    +0.000 OA
ENDBRANCH   1  29
BRANCH  11  30
ATOM     30  O   UNL     1      -0.084   9.918  20.499  0.00  0.00    +0.000 OA
ATOM     31  C   UNL     1       0.149   9.842  21.892  0.00  0.00    +0.000 C 
ENDBRANCH  11  30
TORSDOF 5
ENDMDL
MODEL 4
REMARK VINA RESULT:      -6.8      9.335     11.674
REMARK  Name = 
REMARK  7 active torsions:
REMARK  status: ('A' for Active; 'I' for Inactive)
REMARK    1  A    between atoms: C_1  and  O_2
REMARK    2  A    between atoms: O_2  and  C_3
REMARK    3  A    between atoms: C_7  and  C_8
REMARK    4  A    between atoms: C_14  and  O_15
REMARK    5  A    between atoms: N_18  and  C_19
REMARK    6  A    between atoms: C_26  and  O_27
REMARK    7  A    between atoms: O_27  and  C_28
REMARK                            x       y       z     vdW  Elec       q    Type
REMARK                         _______ _______ _______ _____ _____    ______ ____
ROOT
ATOM      1  C   UNL     1       1.945  16.082  18.401  0.00  0.00    +0.000 A 
ATOM      2  C   UNL     1       2.276  14.727  18.562  0.00  0.00    +0.000 A 
ATOM      3  C   UNL     1       1.320  13.750  18.823  0.00  0.00    +0.000 A 
ATOM      4  N   UNL     1       1.710  12.478  18.902  0.00  0.00    +0.000 NA
ATOM      5  C   UNL     1       0.780  11.561  19.221  0.00  0.00    +0.000 A 
ATOM      6  N   UNL     1      -0.526  11.834  19.419  0.00  0.00    +0.000 NA
ATOM      7  C   UNL     1      -0.900  13.118  19.321  0.00  0.00    +0.000 A 
ATOM      8  N   UNL     1      -2.240  13.470  19.550  0.00  0.00    +0.000 N 
ATOM      9  C   UNL     1       0.003  14.143  18.995  0.00  0.00    +0.000 A 
ATOM     10  C   UNL     1      -0.335  15.509  18.898  0.00  0.00    +0.000 A 
ATOM     11  C   UNL     1       0.621  16.486  18.594  0.00  0.00    +0.000 A 
ATOM     12  H   UNL     1      -2.675  13.684  18.656  0.00  0.00    +0.000 HD
ENDROOT
BRANCH   5  13
ATOM     13  C   UNL     1       1.215  10.161  19.345  0.00  0.00    +0.000 A 
ATOM     14  C   UNL     1       1.848   9.520  18.261  0.00  0.00    +0.000 A 
ATOM     15  C   UNL     1       2.263   8.195  18.357  0.00  0.00    +0.000 A 
ATOM     16  F   UNL     1       2.856   7.610  17.308  0.00  0.00    +0.000 F 
ATOM     17  C   UNL     1       2.071   7.464  19.522  0.00  0.00    +0.000 A 
ATOM     18  C   UNL     1       1.453   8.069  20.612  0.00  0.00    +0.000 A 
ATOM     19  C   UNL     1       1.027   9.399  20.518  0.00  0.00    +0.000 A 
BRANCH  19  20
ATOM     20  O   UNL     1       0.379   9.946  21.594  0.00  0.00    +0.000 OA
ATOM     21  H   UNL     1       0.891  10.692  21.945  0.00  0.00    +0.000 HD
ENDBRANCH  19  20
ENDBRANCH   5  13
BRANCH   8  22
ATOM     22  C   UNL     1      -3.033  12.575  20.385  0.00  0.00    +0.000 C 
ATOM     23  C   UNL     1      -3.046  13.032  21.843  0.00  0.00    +0.000 C 
ATOM     24  C   UNL     1      -4.430  12.658  22.319  0.00  0.00    +0.000 C 
ATOM     25  N   UNL     1      -5.303  13.008  21.191  0.00  0.00    +0.000 NA
ATOM     26  C   UNL     1      -4.524  12.660  19.986  0.00  0.00    +0.000 C 
ATOM     27  H   UNL     1      -5.424  14.023  21.197  0.00  0.00    +0.000 HD
ENDBRANCH   8  22
BRANCH   1  29
ATOM     28  C   UNL     1       4.243  16.666  18.417  0.00  0.00    +0.000 C 
ATOM     29  O   UNL     1       2.899  17.012  18.085  0.00  0.00    +0.000 OA
ENDBRANCH   1  29
BRANCH  11  30
ATOM     30  O   UNL     1       0.063  17.730  18.522  0.00  0.00    +0.000 OA
ATOM     31  C   UNL     1      -0.401  18.221  17.279  0.00  0.00    +0.000 C 
ENDBRANCH  11  30
TORSDOF 5
ENDMDL
MODEL 5
REMARK VINA RESULT:      -6.8      9.623     11.776
REMARK  Name = 
REMARK  7 active torsions:
REMARK  status: ('A' for Active; 'I' for Inactive)
REMARK    1  A    between atoms: C_1  and  O_2
REMARK    2  A    between atoms: O_2  and  C_3
REMARK    3  A    between atoms: C_7  and  C_8
REMARK    4  A    between atoms: C_14  and  O_15
REMARK    5  A    between atoms: N_18  and  C_19
REMARK    6  A    between atoms: C_26  and  O_27
REMARK    7  A    between atoms: O_27  and  C_28
REMARK                            x       y       z     vdW  Elec       q    Type
REMARK                         _______ _______ _______ _____ _____    ______ ____
ROOT
ATOM      1  C   UNL     1       1.887  16.135  18.446  0.00  0.00    +0.000 A 
ATOM      2  C   UNL     1       2.216  14.775  18.569  0.00  0.00    +0.000 A 
ATOM      3  C   UNL     1       1.277  13.807  18.909  0.00  0.00    +0.000 A 
ATOM      4  N   UNL     1       1.657  12.530  18.945  0.00  0.00    +0.000 NA
ATOM      5  C   UNL     1       0.749  11.622  19.341  0.00  0.00    +0.000 A 
ATOM      6  N   UNL     1      -0.530  11.907  19.658  0.00  0.00    +0.000 NA
ATOM      7  C   UNL     1      -0.896  13.196  19.601  0.00  0.00    +0.000 A 
ATOM      8  N   UNL     1      -2.207  13.561  19.953  0.00  0.00    +0.000 N 
ATOM      9  C   UNL     1      -0.015  14.213  19.201  0.00  0.00    +0.000 A 
ATOM     10  C   UNL     1      -0.344  15.583  19.144  0.00  0.00    +0.000 A 
ATOM     11  C   UNL     1       0.591  16.552  18.760  0.00  0.00    +0.000 A 
ATOM     12  H   UNL     1      -2.718  13.786  19.103  0.00  0.00    +0.000 HD
ENDROOT
BRANCH   5  13
ATOM     13  C   UNL     1       1.178  10.215  19.416  0.00  0.00    +0.000 A 
ATOM     14  C   UNL     1       0.976   9.478  20.600  0.00  0.00    +0.000 A 
ATOM     15  C   UNL     1       1.379   8.149  20.691  0.00  0.00    +0.000 A 
ATOM     16  F   UNL     1       1.180   7.475  21.832  0.00  0.00    +0.000 F 
ATOM     17  C   UNL     1       1.985   7.506  19.621  0.00  0.00    +0.000 A 
ATOM     18  C   UNL     1       2.194   8.204  18.435  0.00  0.00    +0.000 A 
ATOM     19  C   UNL     1       1.798   9.544  18.341  0.00  0.00    +0.000 A 
BRANCH  19  20
ATOM     20  O   UNL     1       2.064  10.213  17.176  0.00  0.00    +0.000 OA
ATOM     21  H   UNL     1       3.017  10.198  16.995  0.00  0.00    +0.000 HD
ENDBRANCH  19  20
ENDBRANCH   5  13
BRANCH   8  22
ATOM     22  C   UNL     1      -2.931  12.668  20.851  0.00  0.00    +0.000 C 
ATOM     23  C   UNL     1      -2.875  13.161  22.296  0.00  0.00    +0.000 C 
ATOM     24  C   UNL     1      -4.222  12.767  22.856  0.00  0.00    +0.000 C 
ATOM     25  N   UNL     1      -5.163  13.070  21.771  0.00  0.00    +0.000 NA
ATOM     26  C   UNL     1      -4.443  12.711  20.533  0.00  0.00    +0.000 C 
ATOM     27  H   UNL     1      -5.307  14.082  21.760  0.00  0.00    +0.000 HD
ENDBRANCH   8  22
BRANCH   1  29
ATOM     28  C   UNL     1       2.906  17.297  16.647  0.00  0.00    +0.000 C 
ATOM     29  O   UNL     1       2.820  17.056  18.051  0.00  0.00    +0.000 OA
ENDBRANCH   1  29
BRANCH  11  30
ATOM     30  O   UNL     1       0.044  17.803  18.746  0.00  0.00    +0.000 OA
ATOM     31  C   UNL     1      -0.884  18.152  17.737  0.00  0.00    +0.000 C 
ENDBRANCH  11  30
TORSDOF 5
ENDMDL
MODEL 6
REMARK VINA RESULT:      -6.6      9.063     11.206
REMARK  Name = 
REMARK  7 active torsions:
REMARK  status: ('A' for Active; 'I' for Inactive)
REMARK    1  A    between atoms: C_1  and  O_2
REMARK    2  A    between atoms: O_2  and  C_3
REMARK    3  A    between atoms: C_7  and  C_8
REMARK    4  A    between atoms: C_14  and  O_15
REMARK    5  A    between atoms: N_18  and  C_19
REMARK    6  A    between atoms: C_26  and  O_27
REMARK    7  A    between atoms: O_27  and  C_28
REMARK                            x       y       z     vdW  Elec       q    Type
REMARK                         _______ _______ _______ _____ _____    ______ ____
ROOT
ATOM      1  C   UNL     1       1.197  15.396  20.779  0.00  0.00    +0.000 A 
ATOM      2  C   UNL     1       1.644  14.067  20.711  0.00  0.00    +0.000 A 
ATOM      3  C   UNL     1       0.932  13.071  20.049  0.00  0.00    +0.000 A 
ATOM      4  N   UNL     1       1.455  11.848  19.979  0.00  0.00    +0.000 NA
ATOM      5  C   UNL     1       0.718  10.889  19.394  0.00  0.00    +0.000 A 
ATOM      6  N   UNL     1      -0.492  11.090  18.831  0.00  0.00    +0.000 NA
ATOM      7  C   UNL     1      -0.994  12.331  18.900  0.00  0.00    +0.000 A 
ATOM      8  N   UNL     1      -2.265  12.596  18.364  0.00  0.00    +0.000 N 
ATOM      9  C   UNL     1      -0.296  13.395  19.496  0.00  0.00    +0.000 A 
ATOM     10  C   UNL     1      -0.788  14.712  19.611  0.00  0.00    +0.000 A 
ATOM     11  C   UNL     1      -0.050  15.722  20.240  0.00  0.00    +0.000 A 
ATOM     12  H   UNL     1      -2.147  13.116  17.497  0.00  0.00    +0.000 HD
ENDROOT
BRANCH   5  13
ATOM     13  C   UNL     1       1.278   9.529  19.347  0.00  0.00    +0.000 A 
ATOM     14  C   UNL     1       1.168   8.680  20.466  0.00  0.00    +0.000 A 
ATOM     15  C   UNL     1       1.695   7.392  20.442  0.00  0.00    +0.000 A 
ATOM     16  F   UNL     1       1.580   6.611  21.524  0.00  0.00    +0.000 F 
ATOM     17  C   UNL     1       2.342   6.902  19.316  0.00  0.00    +0.000 A 
ATOM     18  C   UNL     1       2.465   7.713  18.192  0.00  0.00    +0.000 A 
ATOM     19  C   UNL     1       1.942   9.011  18.213  0.00  0.00    +0.000 A 
BRANCH  19  20
ATOM     20  O   UNL     1       2.124   9.797  17.107  0.00  0.00    +0.000 OA
ATOM     21  H   UNL     1       1.914  10.721  17.318  0.00  0.00    +0.000 HD
ENDBRANCH  19  20
ENDBRANCH   5  13
BRANCH   8  22
ATOM     22  C   UNL     1      -3.190  11.475  18.251  0.00  0.00    +0.000 C 
ATOM     23  C   UNL     1      -4.565  11.823  18.820  0.00  0.00    +0.000 C 
ATOM     24  C   UNL     1      -5.519  11.069  17.923  0.00  0.00    +0.000 C 
ATOM     25  N   UNL     1      -4.961  11.245  16.577  0.00  0.00    +0.000 NA
ATOM     26  C   UNL     1      -3.497  11.189  16.764  0.00  0.00    +0.000 C 
ATOM     27  H   UNL     1      -5.195  12.190  16.266  0.00  0.00    +0.000 HD
ENDBRANCH   8  22
BRANCH   1  29
ATOM     28  C   UNL     1       3.356  16.308  21.146  0.00  0.00    +0.000 C 
ATOM     29  O   UNL     1       1.950  16.366  21.385  0.00  0.00    +0.000 OA
ENDBRANCH   1  29
BRANCH  11  30
ATOM     30  O   UNL     1      -0.706  16.920  20.206  0.00  0.00    +0.000 OA
ATOM     31  C   UNL     1      -1.093  17.473  18.964  0.00  0.00    +0.000 C 
ENDBRANCH  11  30
TORSDOF 5
ENDMDL
MODEL 7
REMARK VINA RESULT:      -6.6      3.451      5.128
REMARK  Name = 
REMARK  7 active torsions:
REMARK  status: ('A' for Active; 'I' for Inactive)
REMARK    1  A    between atoms: C_1  and  O_2
REMARK    2  A    between atoms: O_2  and  C_3
REMARK    3  A    between atoms: C_7  and  C_8
REMARK    4  A    between atoms: C_14  and  O_15
REMARK    5  A    between atoms: N_18  and  C_19
REMARK    6  A    between atoms: C_26  and  O_27
REMARK    7  A    between atoms: O_27  and  C_28
REMARK                            x       y       z     vdW  Elec       q    Type
REMARK                         _______ _______ _______ _____ _____    ______ ____
ROOT
ATOM      1  C   UNL     1       1.386   9.122  19.777  0.00  0.00    +0.000 A 
ATOM      2  C   UNL     1       2.373   8.710  18.869  0.00  0.00    +0.000 A 
ATOM      3  C   UNL     1       2.698   7.371  18.673  0.00  0.00    +0.000 A 
ATOM      4  N   UNL     1       3.605   7.060  17.748  0.00  0.00    +0.000 NA
ATOM      5  C   UNL     1       3.949   5.766  17.625  0.00  0.00    +0.000 A 
ATOM      6  N   UNL     1       3.407   4.759  18.339  0.00  0.00    +0.000 NA
ATOM      7  C   UNL     1       2.486   5.092  19.255  0.00  0.00    +0.000 A 
ATOM      8  N   UNL     1       1.909   4.091  20.054  0.00  0.00    +0.000 N 
ATOM      9  C   UNL     1       2.066   6.417  19.455  0.00  0.00    +0.000 A 
ATOM     10  C   UNL     1       1.117   6.822  20.416  0.00  0.00    +0.000 A 
ATOM     11  C   UNL     1       0.761   8.166  20.582  0.00  0.00    +0.000 A 
ATOM     12  H   UNL     1       0.958   3.928  19.732  0.00  0.00    +0.000 HD
ENDROOT
BRANCH   5  13
ATOM     13  C   UNL     1       4.977   5.425  16.628  0.00  0.00    +0.000 A 
ATOM     14  C   UNL     1       4.627   4.700  15.472  0.00  0.00    +0.000 A 
ATOM     15  C   UNL     1       5.585   4.364  14.520  0.00  0.00    +0.000 A 
ATOM     16  F   UNL     1       5.222   3.669  13.434  0.00  0.00    +0.000 F 
ATOM     17  C   UNL     1       6.914   4.735  14.677  0.00  0.00    +0.000 A 
ATOM     18  C   UNL     1       7.293   5.455  15.806  0.00  0.00    +0.000 A 
ATOM     19  C   UNL     1       6.334   5.789  16.769  0.00  0.00    +0.000 A 
BRANCH  19  20
ATOM     20  O   UNL     1       6.752   6.455  17.890  0.00  0.00    +0.000 OA
ATOM     21  H   UNL     1       6.043   6.467  18.553  0.00  0.00    +0.000 HD
ENDBRANCH  19  20
ENDBRANCH   5  13
BRANCH   8  22
ATOM     22  C   UNL     1       2.677   2.867  20.251  0.00  0.00    +0.000 C 
ATOM     23  C   UNL     1       2.596   1.953  19.029  0.00  0.00    +0.000 C 
ATOM     24  C   UNL     1       3.961   1.307  18.980  0.00  0.00    +0.000 C 
ATOM     25  N   UNL     1       4.886   2.399  19.308  0.00  0.00    +0.000 NA
ATOM     26  C   UNL     1       4.185   3.196  20.334  0.00  0.00    +0.000 C 
ATOM     27  H   UNL     1       4.980   2.984  18.475  0.00  0.00    +0.000 HD
ENDBRANCH   8  22
BRANCH   1  29
ATOM     28  C   UNL     1      -0.038  10.890  19.091  0.00  0.00    +0.000 C 
ATOM     29  O   UNL     1       1.046  10.442  19.903  0.00  0.00    +0.000 OA
ENDBRANCH   1  29
BRANCH  11  30
ATOM     30  O   UNL     1      -0.196   8.318  21.544  0.00  0.00    +0.000 OA
ATOM     31  C   UNL     1       0.058   9.147  22.662  0.00  0.00    +0.000 C 
ENDBRANCH  11  30
TORSDOF 5
ENDMDL
MODEL 8
REMARK VINA RESULT:      -6.6     10.627     12.877
REMARK  Name = 
REMARK  7 active torsions:
REMARK  status: ('A' for Active; 'I' for Inactive)
REMARK    1  A    between atoms: C_1  and  O_2
REMARK    2  A    between atoms: O_2  and  C_3
REMARK    3  A    between atoms: C_7  and  C_8
REMARK    4  A    between atoms: C_14  and  O_15
REMARK    5  A    between atoms: N_18  and  C_19
REMARK    6  A    between atoms: C_26  and  O_27
REMARK    7  A    between atoms: O_27  and  C_28
REMARK                            x       y       z     vdW  Elec       q    Type
REMARK                         _______ _______ _______ _____ _____    ______ ____
ROOT
ATOM      1  C   UNL     1      -2.097  15.523  23.787  0.00  0.00    +0.000 A 
ATOM      2  C   UNL     1      -1.304  14.399  23.508  0.00  0.00    +0.000 A 
ATOM      3  C   UNL     1      -1.567  13.543  22.442  0.00  0.00    +0.000 A 
ATOM      4  N   UNL     1      -0.730  12.533  22.210  0.00  0.00    +0.000 NA
ATOM      5  C   UNL     1      -1.042  11.683  21.217  0.00  0.00    +0.000 A 
ATOM      6  N   UNL     1      -2.117  11.808  20.411  0.00  0.00    +0.000 NA
ATOM      7  C   UNL     1      -2.939  12.840  20.653  0.00  0.00    +0.000 A 
ATOM      8  N   UNL     1      -4.094  13.005  19.871  0.00  0.00    +0.000 N 
ATOM      9  C   UNL     1      -2.694  13.777  21.671  0.00  0.00    +0.000 A 
ATOM     10  C   UNL     1      -3.536  14.866  21.978  0.00  0.00    +0.000 A 
ATOM     11  C   UNL     1      -3.246  15.750  23.024  0.00  0.00    +0.000 A 
ATOM     12  H   UNL     1      -3.944  13.784  19.234  0.00  0.00    +0.000 HD
ENDROOT
BRANCH   5  13
ATOM     13  C   UNL     1      -0.138  10.545  20.981  0.00  0.00    +0.000 A 
ATOM     14  C   UNL     1       0.210  10.181  19.665  0.00  0.00    +0.000 A 
ATOM     15  C   UNL     1       1.060   9.106  19.423  0.00  0.00    +0.000 A 
ATOM     16  F   UNL     1       1.368   8.779  18.160  0.00  0.00    +0.000 F 
ATOM     17  C   UNL     1       1.595   8.363  20.466  0.00  0.00    +0.000 A 
ATOM     18  C   UNL     1       1.275   8.699  21.777  0.00  0.00    +0.000 A 
ATOM     19  C   UNL     1       0.415   9.775  22.027  0.00  0.00    +0.000 A 
BRANCH  19  20
ATOM     20  O   UNL     1       0.083  10.046  23.328  0.00  0.00    +0.000 OA
ATOM     21  H   UNL     1      -0.882  10.095  23.421  0.00  0.00    +0.000 HD
ENDBRANCH  19  20
ENDBRANCH   5  13
BRANCH   8  22
ATOM     22  C   UNL     1      -4.638  11.817  19.222  0.00  0.00    +0.000 C 
ATOM     23  C   UNL     1      -6.117  11.625  19.553  0.00  0.00    +0.000 C 
ATOM     24  C   UNL     1      -6.690  11.041  18.283  0.00  0.00    +0.000 C 
ATOM     25  N   UNL     1      -6.033  11.799  17.212  0.00  0.00    +0.000 NA
ATOM     26  C   UNL     1      -4.652  12.012  17.689  0.00  0.00    +0.000 C 
ATOM     27  H   UNL     1      -6.484  12.715  17.159  0.00  0.00    +0.000 HD
ENDBRANCH   8  22
BRANCH   1  29
ATOM     28  C   UNL     1      -1.567  15.781  26.084  0.00  0.00    +0.000 C 
ATOM     29  O   UNL     1      -1.778  16.380  24.806  0.00  0.00    +0.000 OA
ENDBRANCH   1  29
BRANCH  11  30
ATOM     30  O   UNL     1      -4.179  16.743  23.117  0.00  0.00    +0.000 OA
ATOM     31  C   UNL     1      -5.281  16.592  23.992  0.00  0.00    +0.000 C 
ENDBRANCH  11  30
TORSDOF 5
ENDMDL
MODEL 9
REMARK VINA RESULT:      -6.5      9.003     10.865
REMARK  Name = 
REMARK  7 active torsions:
REMARK  status: ('A' for Active; 'I' for Inactive)
REMARK    1  A    between atoms: C_1  and  O_2
REMARK    2  A    between atoms: O_2  and  C_3
REMARK    3  A    between atoms: C_7  and  C_8
REMARK    4  A    between atoms: C_14  and  O_15
REMARK    5  A    between atoms: N_18  and  C_19
REMARK    6  A    between atoms: C_26  and  O_27
REMARK    7  A    between atoms: O_27  and  C_28
REMARK                            x       y       z     vdW  Elec       q    Type
REMARK                         _______ _______ _______ _____ _____    ______ ____
ROOT
ATOM      1  C   UNL     1      -1.335  13.921  22.633  0.00  0.00    +0.000 A 
ATOM      2  C   UNL     1      -0.527  12.814  22.330  0.00  0.00    +0.000 A 
ATOM      3  C   UNL     1      -0.649  12.101  21.142  0.00  0.00    +0.000 A 
ATOM      4  N   UNL     1       0.198  11.100  20.904  0.00  0.00    +0.000 NA
ATOM      5  C   UNL     1       0.016  10.386  19.780  0.00  0.00    +0.000 A 
ATOM      6  N   UNL     1      -0.932  10.641  18.856  0.00  0.00    +0.000 NA
ATOM      7  C   UNL     1      -1.764  11.662  19.107  0.00  0.00    +0.000 A 
ATOM      8  N   UNL     1      -2.795  11.957  18.198  0.00  0.00    +0.000 N 
ATOM      9  C   UNL     1      -1.652  12.462  20.256  0.00  0.00    +0.000 A 
ATOM     10  C   UNL     1      -2.513  13.533  20.576  0.00  0.00    +0.000 A 
ATOM     11  C   UNL     1      -2.361  14.275  21.753  0.00  0.00    +0.000 A 
ATOM     12  H   UNL     1      -2.544  12.802  17.690  0.00  0.00    +0.000 HD
ENDROOT
BRANCH   5  13
ATOM     13  C   UNL     1       0.928   9.256  19.534  0.00  0.00    +0.000 A 
ATOM     14  C   UNL     1       1.056   8.230  20.491  0.00  0.00    +0.000 A 
ATOM     15  C   UNL     1       1.916   7.157  20.277  0.00  0.00    +0.000 A 
ATOM     16  F   UNL     1       2.021   6.199  21.208  0.00  0.00    +0.000 F 
ATOM     17  C   UNL     1       2.670   7.060  19.116  0.00  0.00    +0.000 A 
ATOM     18  C   UNL     1       2.563   8.055  18.148  0.00  0.00    +0.000 A 
ATOM     19  C   UNL     1       1.705   9.140  18.362  0.00  0.00    +0.000 A 
BRANCH  19  20
ATOM     20  O   UNL     1       1.663  10.124  17.410  0.00  0.00    +0.000 OA
ATOM     21  H   UNL     1       0.958   9.937  16.770  0.00  0.00    +0.000 HD
ENDBRANCH  19  20
ENDBRANCH   5  13
BRANCH   8  22
ATOM     22  C   UNL     1      -3.259  10.874  17.339  0.00  0.00    +0.000 C 
ATOM     23  C   UNL     1      -4.291  11.365  16.326  0.00  0.00    +0.000 C 
ATOM     24  C   UNL     1      -4.009  10.528  15.100  0.00  0.00    +0.000 C 
ATOM     25  N   UNL     1      -2.544  10.473  15.033  0.00  0.00    +0.000 NA
ATOM     26  C   UNL     1      -2.103  10.380  16.439  0.00  0.00    +0.000 C 
ATOM     27  H   UNL     1      -2.217  11.369  14.667  0.00  0.00    +0.000 HD
ENDBRANCH   8  22
BRANCH   1  29
ATOM     28  C   UNL     1      -2.196  14.552  24.751  0.00  0.00    +0.000 C 
ATOM     29  O   UNL     1      -1.150  14.639  23.785  0.00  0.00    +0.000 OA
ENDBRANCH   1  29
BRANCH  11  30
ATOM     30  O   UNL     1      -3.283  15.279  21.838  0.00  0.00    +0.000 OA
ATOM     31  C   UNL     1      -2.997  16.544  21.274  0.00  0.00    +0.000 C 
ENDBRANCH  11  30
TORSDOF 5
ENDMDL
