MODEL 1
REMARK VINA RESULT:      -6.8      0.000      0.000
REMARK  Name = 
REMARK  17 active torsions:
REMARK  status: ('A' for Active; 'I' for Inactive)
REMARK    1  A    between atoms: C_1  and  C_2
REMARK    2  A    between atoms: C_2  and  C_3
REMARK    3  A    between atoms: C_2  and  C_4
REMARK    4  A    between atoms: C_4  and  O_5
REMARK    5  A    between atoms: O_5  and  C_6
REMARK    6  A    between atoms: C_6  and  C_7
REMARK    7  A    between atoms: C_7  and  C_8
REMARK    8  A    between atoms: C_8  and  C_9
REMARK    9  A    between atoms: C_9  and  C_10
REMARK   10  A    between atoms: C_10  and  C_11
REMARK   11  A    between atoms: C_11  and  C_12
REMARK   12  A    between atoms: C_12  and  C_13
REMARK   13  A    between atoms: C_13  and  C_14
REMARK   14  A    between atoms: C_14  and  C_15
REMARK   15  A    between atoms: N_19  and  C_20
REMARK   16  A    between atoms: C_23  and  C_24
REMARK   17  A    between atoms: C_24  and  O_25
REMARK                            x       y       z     vdW  Elec       q    Type
REMARK                         _______ _______ _______ _____ _____    ______ ____
ROOT
ATOM      1  C   UNL     1       1.608   8.876  18.685  0.00  0.00    +0.000 A 
ATOM      2  C   UNL     1       0.939  10.031  18.677  0.00  0.00    +0.000 A 
ATOM      3  C   UNL     1       0.571  10.206  20.022  0.00  0.00    +0.000 A 
ATOM      4  C   UNL     1      -0.094  11.127  20.702  0.00  0.00    +0.000 A 
ATOM      5  N   UNL     1      -0.250  10.995  22.069  0.00  0.00    +0.000 N 
ATOM      6  C   UNL     1       0.255   9.877  22.776  0.00  0.00    +0.000 A 
ATOM      7  O   UNL     1       0.074   9.775  23.985  0.00  0.00    +0.000 OA
ATOM      8  N   UNL     1       0.945   8.904  22.077  0.00  0.00    +0.000 NA
ATOM      9  C   UNL     1       1.072   9.094  20.816  0.00  0.00    +0.000 A 
ATOM     10  O   UNL     1       1.731   8.246  19.953  0.00  0.00    +0.000 OA
ENDROOT
BRANCH   5  11
ATOM     11  C   UNL     1      -0.977  12.007  22.825  0.00  0.00    +0.000 C 
ATOM     12  C   UNL     1      -2.484  11.973  22.596  0.00  0.00    +0.000 C 
ATOM     13  C   UNL     1      -2.876  13.418  22.793  0.00  0.00    +0.000 C 
ATOM     14  C   UNL     1      -1.678  14.178  22.255  0.00  0.00    +0.000 C 
ATOM     15  O   UNL     1      -0.530  13.323  22.434  0.00  0.00    +0.000 OA
BRANCH  14  16
ATOM     16  C   UNL     1      -1.803  14.518  20.764  0.00  0.00    +0.000 C 
BRANCH  16  17
ATOM     17  O   UNL     1      -3.176  14.671  20.406  0.00  0.00    +0.000 OA
ATOM     18  H   UNL     1      -3.296  15.611  20.167  0.00  0.00    +0.000 HD
ENDBRANCH  16  17
ENDBRANCH  14  16
ENDBRANCH   5  11
BRANCH   1  19
ATOM     19  C   UNL     1       2.278   8.231  17.523  0.00  0.00    +0.000 C 
BRANCH  19  20
ATOM     20  C   UNL     1       3.246   7.128  17.951  0.00  0.00    +0.000 C 
BRANCH  20  21
ATOM     21  C   UNL     1       4.592   7.228  17.233  0.00  0.00    +0.000 C 
BRANCH  21  22
ATOM     22  C   UNL     1       5.454   5.991  17.475  0.00  0.00    +0.000 C 
BRANCH  22  23
ATOM     23  C   UNL     1       5.375   5.009  16.318  0.00  0.00    +0.000 C 
BRANCH  23  24
ATOM     24  C   UNL     1       4.399   3.886  16.659  0.00  0.00    +0.000 C 
BRANCH  24  25
ATOM     25  C   UNL     1       4.590   3.448  18.103  0.00  0.00    +0.000 C 
BRANCH  25  26
ATOM     26  C   UNL     1       3.634   2.314  18.470  0.00  0.00    +0.000 C 
BRANCH  26  27
ATOM     27  C   UNL     1       2.373   2.379  17.622  0.00  0.00    +0.000 C 
BRANCH  27  28
ATOM     28  O   UNL     1       1.424   3.220  18.274  0.00  0.00    +0.000 OA
BRANCH  28  29
ATOM     29  C   UNL     1       0.834   2.573  19.395  0.00  0.00    +0.000 C 
BRANCH  29  31
ATOM     30  C   UNL     1       1.801   2.720  21.696  0.00  0.00    +0.000 C 
ATOM     31  C   UNL     1       0.982   3.456  20.638  0.00  0.00    +0.000 C 
ATOM     32  C   UNL     1       1.627   4.804  20.303  0.00  0.00    +0.000 C 
ENDBRANCH  29  31
ENDBRANCH  28  29
ENDBRANCH  27  28
ENDBRANCH  26  27
ENDBRANCH  25  26
ENDBRANCH  24  25
ENDBRANCH  23  24
ENDBRANCH  22  23
ENDBRANCH  21  22
ENDBRANCH  20  21
ENDBRANCH  19  20
ENDBRANCH   1  19
TORSDOF 15
ENDMDL
MODEL 2
REMARK VINA RESULT:      -6.5      2.147      4.540
REMARK  Name = 
REMARK  17 active torsions:
REMARK  status: ('A' for Active; 'I' for Inactive)
REMARK    1  A    between atoms: C_1  and  C_2
REMARK    2  A    between atoms: C_2  and  C_3
REMARK    3  A    between atoms: C_2  and  C_4
REMARK    4  A    between atoms: C_4  and  O_5
REMARK    5  A    between atoms: O_5  and  C_6
REMARK    6  A    between atoms: C_6  and  C_7
REMARK    7  A    between atoms: C_7  and  C_8
REMARK    8  A    between atoms: C_8  and  C_9
REMARK    9  A    between atoms: C_9  and  C_10
REMARK   10  A    between atoms: C_10  and  C_11
REMARK   11  A    between atoms: C_11  and  C_12
REMARK   12  A    between atoms: C_12  and  C_13
REMARK   13  A    between atoms: C_13  and  C_14
REMARK   14  A    between atoms: C_14  and  C_15
REMARK   15  A    between atoms: N_19  and  C_20
REMARK   16  A    between atoms: C_23  and  C_24
REMARK   17  A    between atoms: C_24  and  O_25
REMARK                            x       y       z     vdW  Elec       q    Type
REMARK                         _______ _______ _______ _____ _____    ______ ____
ROOT
ATOM      1  C   UNL     1       1.883   6.586  20.281  0.00  0.00    +0.000 A 
ATOM      2  C   UNL     1       1.222   7.465  21.038  0.00  0.00    +0.000 A 
ATOM      3  C   UNL     1       1.287   8.655  20.292  0.00  0.00    +0.000 A 
ATOM      4  C   UNL     1       0.843   9.891  20.456  0.00  0.00    +0.000 A 
ATOM      5  N   UNL     1       1.068  10.839  19.475  0.00  0.00    +0.000 N 
ATOM      6  C   UNL     1       1.795  10.540  18.298  0.00  0.00    +0.000 A 
ATOM      7  O   UNL     1       2.003  11.411  17.460  0.00  0.00    +0.000 OA
ATOM      8  N   UNL     1       2.271   9.254  18.118  0.00  0.00    +0.000 NA
ATOM      9  C   UNL     1       2.013   8.418  19.054  0.00  0.00    +0.000 A 
ATOM     10  O   UNL     1       2.394   7.094  19.056  0.00  0.00    +0.000 OA
ENDROOT
BRANCH   5  11
ATOM     11  C   UNL     1       0.577  12.200  19.645  0.00  0.00    +0.000 C 
ATOM     12  C   UNL     1       1.275  12.963  20.766  0.00  0.00    +0.000 C 
ATOM     13  C   UNL     1       0.196  13.909  21.238  0.00  0.00    +0.000 C 
ATOM     14  C   UNL     1      -1.075  13.100  21.057  0.00  0.00    +0.000 C 
ATOM     15  O   UNL     1      -0.828  12.176  19.977  0.00  0.00    +0.000 OA
BRANCH  14  16
ATOM     16  C   UNL     1      -1.461  12.297  22.305  0.00  0.00    +0.000 C 
BRANCH  16  17
ATOM     17  O   UNL     1      -1.480  13.147  23.452  0.00  0.00    +0.000 OA
ATOM     18  H   UNL     1      -0.873  12.744  24.104  0.00  0.00    +0.000 HD
ENDBRANCH  16  17
ENDBRANCH  14  16
ENDBRANCH   5  11
BRANCH   1  19
ATOM     19  C   UNL     1       2.075   5.138  20.565  0.00  0.00    +0.000 C 
BRANCH  19  20
ATOM     20  C   UNL     1       0.819   4.318  20.269  0.00  0.00    +0.000 C 
BRANCH  20  21
ATOM     21  C   UNL     1       1.111   2.819  20.188  0.00  0.00    +0.000 C 
BRANCH  21  22
ATOM     22  C   UNL     1       1.467   2.390  18.767  0.00  0.00    +0.000 C 
BRANCH  22  23
ATOM     23  C   UNL     1       2.879   1.836  18.678  0.00  0.00    +0.000 C 
BRANCH  23  24
ATOM     24  C   UNL     1       3.637   2.533  17.551  0.00  0.00    +0.000 C 
BRANCH  24  25
ATOM     25  C   UNL     1       4.405   3.726  18.096  0.00  0.00    +0.000 C 
BRANCH  25  26
ATOM     26  C   UNL     1       4.264   4.942  17.183  0.00  0.00    +0.000 C 
BRANCH  26  27
ATOM     27  C   UNL     1       5.265   4.876  16.040  0.00  0.00    +0.000 C 
BRANCH  27  28
ATOM     28  O   UNL     1       5.830   6.170  15.850  0.00  0.00    +0.000 OA
BRANCH  28  29
ATOM     29  C   UNL     1       5.958   6.872  17.080  0.00  0.00    +0.000 C 
BRANCH  29  31
ATOM     30  C   UNL     1       7.883   8.359  17.658  0.00  0.00    +0.000 C 
ATOM     31  C   UNL     1       7.430   6.909  17.503  0.00  0.00    +0.000 C 
ATOM     32  C   UNL     1       7.668   6.132  18.800  0.00  0.00    +0.000 C 
ENDBRANCH  29  31
ENDBRANCH  28  29
ENDBRANCH  27  28
ENDBRANCH  26  27
ENDBRANCH  25  26
ENDBRANCH  24  25
ENDBRANCH  23  24
ENDBRANCH  22  23
ENDBRANCH  21  22
ENDBRANCH  20  21
ENDBRANCH  19  20
ENDBRANCH   1  19
TORSDOF 15
ENDMDL
MODEL 3
REMARK VINA RESULT:      -6.4      1.217      1.671
REMARK  Name = 
REMARK  17 active torsions:
REMARK  status: ('A' for Active; 'I' for Inactive)
REMARK    1  A    between atoms: C_1  and  C_2
REMARK    2  A    between atoms: C_2  and  C_3
REMARK    3  A    between atoms: C_2  and  C_4
REMARK    4  A    between atoms: C_4  and  O_5
REMARK    5  A    between atoms: O_5  and  C_6
REMARK    6  A    between atoms: C_6  and  C_7
REMARK    7  A    between atoms: C_7  and  C_8
REMARK    8  A    between atoms: C_8  and  C_9
REMARK    9  A    between atoms: C_9  and  C_10
REMARK   10  A    between atoms: C_10  and  C_11
REMARK   11  A    between atoms: C_11  and  C_12
REMARK   12  A    between atoms: C_12  and  C_13
REMARK   13  A    between atoms: C_13  and  C_14
REMARK   14  A    between atoms: C_14  and  C_15
REMARK   15  A    between atoms: N_19  and  C_20
REMARK   16  A    between atoms: C_23  and  C_24
REMARK   17  A    between atoms: C_24  and  O_25
REMARK                            x       y       z     vdW  Elec       q    Type
REMARK                         _______ _______ _______ _____ _____    ______ ____
ROOT
ATOM      1  C   UNL     1       2.013   8.063  18.473  0.00  0.00    +0.000 A 
ATOM      2  C   UNL     1       1.425   9.246  18.283  0.00  0.00    +0.000 A 
ATOM      3  C   UNL     1       1.025   9.626  19.576  0.00  0.00    +0.000 A 
ATOM      4  C   UNL     1       0.401  10.670  20.097  0.00  0.00    +0.000 A 
ATOM      5  N   UNL     1       0.190  10.735  21.463  0.00  0.00    +0.000 N 
ATOM      6  C   UNL     1       0.594   9.694  22.332  0.00  0.00    +0.000 A 
ATOM      7  O   UNL     1       0.365   9.769  23.536  0.00  0.00    +0.000 OA
ATOM      8  N   UNL     1       1.240   8.594  21.800  0.00  0.00    +0.000 NA
ATOM      9  C   UNL     1       1.422   8.603  20.532  0.00  0.00    +0.000 A 
ATOM     10  O   UNL     1       2.050   7.605  19.818  0.00  0.00    +0.000 OA
ENDROOT
BRANCH   5  11
ATOM     11  C   UNL     1      -0.491  11.884  22.045  0.00  0.00    +0.000 C 
ATOM     12  C   UNL     1      -1.812  12.219  21.362  0.00  0.00    +0.000 C 
ATOM     13  C   UNL     1      -1.910  13.714  21.556  0.00  0.00    +0.000 C 
ATOM     14  C   UNL     1      -0.464  14.167  21.480  0.00  0.00    +0.000 C 
ATOM     15  O   UNL     1       0.342  13.058  21.927  0.00  0.00    +0.000 OA
BRANCH  14  16
ATOM     16  C   UNL     1      -0.027  14.545  20.059  0.00  0.00    +0.000 C 
BRANCH  16  17
ATOM     17  O   UNL     1      -1.144  15.020  19.309  0.00  0.00    +0.000 OA
ATOM     18  H   UNL     1      -1.800  14.295  19.302  0.00  0.00    +0.000 HD
ENDBRANCH  16  17
ENDBRANCH  14  16
ENDBRANCH   5  11
BRANCH   1  19
ATOM     19  C   UNL     1       2.676   7.226  17.437  0.00  0.00    +0.000 C 
BRANCH  19  20
ATOM     20  C   UNL     1       4.185   7.468  17.375  0.00  0.00    +0.000 C 
BRANCH  20  21
ATOM     21  C   UNL     1       4.792   7.007  16.049  0.00  0.00    +0.000 C 
BRANCH  21  22
ATOM     22  C   UNL     1       5.392   5.608  16.160  0.00  0.00    +0.000 C 
BRANCH  22  23
ATOM     23  C   UNL     1       6.868   5.651  16.519  0.00  0.00    +0.000 C 
BRANCH  23  24
ATOM     24  C   UNL     1       7.150   4.678  17.662  0.00  0.00    +0.000 C 
BRANCH  24  25
ATOM     25  C   UNL     1       6.316   5.045  18.879  0.00  0.00    +0.000 C 
BRANCH  25  26
ATOM     26  C   UNL     1       5.242   3.995  19.154  0.00  0.00    +0.000 C 
BRANCH  26  27
ATOM     27  C   UNL     1       3.980   4.646  19.698  0.00  0.00    +0.000 C 
BRANCH  27  28
ATOM     28  O   UNL     1       2.858   4.148  18.973  0.00  0.00    +0.000 OA
BRANCH  28  29
ATOM     29  C   UNL     1       1.641   4.366  19.677  0.00  0.00    +0.000 C 
BRANCH  29  31
ATOM     30  C   UNL     1       1.496   1.926  19.157  0.00  0.00    +0.000 C 
ATOM     31  C   UNL     1       1.054   3.023  20.121  0.00  0.00    +0.000 C 
ATOM     32  C   UNL     1       1.460   2.673  21.555  0.00  0.00    +0.000 C 
ENDBRANCH  29  31
ENDBRANCH  28  29
ENDBRANCH  27  28
ENDBRANCH  26  27
ENDBRANCH  25  26
ENDBRANCH  24  25
ENDBRANCH  23  24
ENDBRANCH  22  23
ENDBRANCH  21  22
ENDBRANCH  20  21
ENDBRANCH  19  20
ENDBRANCH   1  19
TORSDOF 15
ENDMDL
MODEL 4
REMARK VINA RESULT:      -6.3      1.384      1.734
REMARK  Name = 
REMARK  17 active torsions:
REMARK  status: ('A' for Active; 'I' for Inactive)
REMARK    1  A    between atoms: C_1  and  C_2
REMARK    2  A    between atoms: C_2  and  C_3
REMARK    3  A    between atoms: C_2  and  C_4
REMARK    4  A    between atoms: C_4  and  O_5
REMARK    5  A    between atoms: O_5  and  C_6
REMARK    6  A    between atoms: C_6  and  C_7
REMARK    7  A    between atoms: C_7  and  C_8
REMARK    8  A    between atoms: C_8  and  C_9
REMARK    9  A    between atoms: C_9  and  C_10
REMARK   10  A    between atoms: C_10  and  C_11
REMARK   11  A    between atoms: C_11  and  C_12
REMARK   12  A    between atoms: C_12  and  C_13
REMARK   13  A    between atoms: C_13  and  C_14
REMARK   14  A    between atoms: C_14  and  C_15
REMARK   15  A    between atoms: N_19  and  C_20
REMARK   16  A    between atoms: C_23  and  C_24
REMARK   17  A    between atoms: C_24  and  O_25
REMARK                            x       y       z     vdW  Elec       q    Type
REMARK                         _______ _______ _______ _____ _____    ______ ____
ROOT
ATOM      1  C   UNL     1       2.273   7.816  18.616  0.00  0.00    +0.000 A 
ATOM      2  C   UNL     1       1.755   9.019  18.362  0.00  0.00    +0.000 A 
ATOM      3  C   UNL     1       1.269   9.438  19.612  0.00  0.00    +0.000 A 
ATOM      4  C   UNL     1       0.651  10.517  20.066  0.00  0.00    +0.000 A 
ATOM      5  N   UNL     1       0.332  10.613  21.409  0.00  0.00    +0.000 N 
ATOM      6  C   UNL     1       0.617   9.571  22.323  0.00  0.00    +0.000 A 
ATOM      7  O   UNL     1       0.294   9.676  23.502  0.00  0.00    +0.000 OA
ATOM      8  N   UNL     1       1.255   8.435  21.860  0.00  0.00    +0.000 NA
ATOM      9  C   UNL     1       1.540   8.415  20.611  0.00  0.00    +0.000 A 
ATOM     10  O   UNL     1       2.179   7.379  19.965  0.00  0.00    +0.000 OA
ENDROOT
BRANCH   5  11
ATOM     11  C   UNL     1      -0.343  11.800  21.918  0.00  0.00    +0.000 C 
ATOM     12  C   UNL     1      -1.656  12.106  21.206  0.00  0.00    +0.000 C 
ATOM     13  C   UNL     1      -1.741  13.611  21.311  0.00  0.00    +0.000 C 
ATOM     14  C   UNL     1      -0.291  14.047  21.220  0.00  0.00    +0.000 C 
ATOM     15  O   UNL     1       0.502  12.958  21.738  0.00  0.00    +0.000 OA
BRANCH  14  16
ATOM     16  C   UNL     1       0.160  14.336  19.783  0.00  0.00    +0.000 C 
BRANCH  16  17
ATOM     17  O   UNL     1      -0.960  14.703  18.979  0.00  0.00    +0.000 OA
ATOM     18  H   UNL     1      -1.716  14.809  19.590  0.00  0.00    +0.000 HD
ENDBRANCH  16  17
ENDBRANCH  14  16
ENDBRANCH   5  11
BRANCH   1  19
ATOM     19  C   UNL     1       2.981   6.933  17.649  0.00  0.00    +0.000 C 
BRANCH  19  20
ATOM     20  C   UNL     1       4.389   7.436  17.329  0.00  0.00    +0.000 C 
BRANCH  20  21
ATOM     21  C   UNL     1       5.208   6.409  16.546  0.00  0.00    +0.000 C 
BRANCH  21  22
ATOM     22  C   UNL     1       6.708   6.639  16.710  0.00  0.00    +0.000 C 
BRANCH  22  23
ATOM     23  C   UNL     1       7.343   5.604  17.623  0.00  0.00    +0.000 C 
BRANCH  23  24
ATOM     24  C   UNL     1       6.305   4.556  18.017  0.00  0.00    +0.000 C 
BRANCH  24  25
ATOM     25  C   UNL     1       5.820   4.808  19.435  0.00  0.00    +0.000 C 
BRANCH  25  26
ATOM     26  C   UNL     1       4.414   4.252  19.648  0.00  0.00    +0.000 C 
BRANCH  26  27
ATOM     27  C   UNL     1       4.391   2.748  19.420  0.00  0.00    +0.000 C 
BRANCH  27  28
ATOM     28  O   UNL     1       3.361   2.441  18.484  0.00  0.00    +0.000 OA
BRANCH  28  29
ATOM     29  C   UNL     1       2.180   1.987  19.134  0.00  0.00    +0.000 C 
BRANCH  29  31
ATOM     30  C   UNL     1       0.879   3.828  20.214  0.00  0.00    +0.000 C 
ATOM     31  C   UNL     1       1.057   3.010  18.938  0.00  0.00    +0.000 C 
ATOM     32  C   UNL     1       1.328   3.929  17.744  0.00  0.00    +0.000 C 
ENDBRANCH  29  31
ENDBRANCH  28  29
ENDBRANCH  27  28
ENDBRANCH  26  27
ENDBRANCH  25  26
ENDBRANCH  24  25
ENDBRANCH  23  24
ENDBRANCH  22  23
ENDBRANCH  21  22
ENDBRANCH  20  21
ENDBRANCH  19  20
ENDBRANCH   1  19
TORSDOF 15
ENDMDL
MODEL 5
REMARK VINA RESULT:      -6.3      0.993      1.405
REMARK  Name = 
REMARK  17 active torsions:
REMARK  status: ('A' for Active; 'I' for Inactive)
REMARK    1  A    between atoms: C_1  and  C_2
REMARK    2  A    between atoms: C_2  and  C_3
REMARK    3  A    between atoms: C_2  and  C_4
REMARK    4  A    between atoms: C_4  and  O_5
REMARK    5  A    between atoms: O_5  and  C_6
REMARK    6  A    between atoms: C_6  and  C_7
REMARK    7  A    between atoms: C_7  and  C_8
REMARK    8  A    between atoms: C_8  and  C_9
REMARK    9  A    between atoms: C_9  and  C_10
REMARK   10  A    between atoms: C_10  and  C_11
REMARK   11  A    between atoms: C_11  and  C_12
REMARK   12  A    between atoms: C_12  and  C_13
REMARK   13  A    between atoms: C_13  and  C_14
REMARK   14  A    between atoms: C_14  and  C_15
REMARK   15  A    between atoms: N_19  and  C_20
REMARK   16  A    between atoms: C_23  and  C_24
REMARK   17  A    between atoms: C_24  and  O_25
REMARK                            x       y       z     vdW  Elec       q    Type
REMARK                         _______ _______ _______ _____ _____    ______ ____
ROOT
ATOM      1  C   UNL     1       1.647   8.790  18.581  0.00  0.00    +0.000 A 
ATOM      2  C   UNL     1       0.943   9.924  18.561  0.00  0.00    +0.000 A 
ATOM      3  C   UNL     1       0.599  10.120  19.910  0.00  0.00    +0.000 A 
ATOM      4  C   UNL     1      -0.079  11.036  20.582  0.00  0.00    +0.000 A 
ATOM      5  N   UNL     1      -0.203  10.931  21.956  0.00  0.00    +0.000 N 
ATOM      6  C   UNL     1       0.351   9.846  22.676  0.00  0.00    +0.000 A 
ATOM      7  O   UNL     1       0.198   9.767  23.891  0.00  0.00    +0.000 OA
ATOM      8  N   UNL     1       1.056   8.878  21.985  0.00  0.00    +0.000 NA
ATOM      9  C   UNL     1       1.150   9.042  20.718  0.00  0.00    +0.000 A 
ATOM     10  O   UNL     1       1.816   8.194  19.860  0.00  0.00    +0.000 OA
ENDROOT
BRANCH   5  11
ATOM     11  C   UNL     1      -0.943  11.939  22.704  0.00  0.00    +0.000 C 
ATOM     12  C   UNL     1      -2.175  11.387  23.413  0.00  0.00    +0.000 C 
ATOM     13  C   UNL     1      -3.105  12.577  23.425  0.00  0.00    +0.000 C 
ATOM     14  C   UNL     1      -2.786  13.279  22.118  0.00  0.00    +0.000 C 
ATOM     15  O   UNL     1      -1.412  12.968  21.806  0.00  0.00    +0.000 OA
BRANCH  14  16
ATOM     16  C   UNL     1      -3.667  12.809  20.954  0.00  0.00    +0.000 C 
BRANCH  16  17
ATOM     17  O   UNL     1      -4.918  12.329  21.445  0.00  0.00    +0.000 OA
ATOM     18  H   UNL     1      -5.174  11.583  20.867  0.00  0.00    +0.000 HD
ENDBRANCH  16  17
ENDBRANCH  14  16
ENDBRANCH   5  11
BRANCH   1  19
ATOM     19  C   UNL     1       2.312   8.138  17.419  0.00  0.00    +0.000 C 
BRANCH  19  20
ATOM     20  C   UNL     1       3.452   7.215  17.847  0.00  0.00    +0.000 C 
BRANCH  20  21
ATOM     21  C   UNL     1       4.765   7.547  17.137  0.00  0.00    +0.000 C 
BRANCH  21  22
ATOM     22  C   UNL     1       5.652   6.314  16.984  0.00  0.00    +0.000 C 
BRANCH  22  23
ATOM     23  C   UNL     1       5.315   5.525  15.731  0.00  0.00    +0.000 C 
BRANCH  23  24
ATOM     24  C   UNL     1       5.280   4.032  16.053  0.00  0.00    +0.000 C 
BRANCH  24  25
ATOM     25  C   UNL     1       4.113   3.724  16.977  0.00  0.00    +0.000 C 
BRANCH  25  26
ATOM     26  C   UNL     1       4.588   3.078  18.276  0.00  0.00    +0.000 C 
BRANCH  26  27
ATOM     27  C   UNL     1       4.136   3.893  19.478  0.00  0.00    +0.000 C 
BRANCH  27  28
ATOM     28  O   UNL     1       2.811   4.363  19.242  0.00  0.00    +0.000 OA
BRANCH  28  29
ATOM     29  C   UNL     1       2.125   4.633  20.459  0.00  0.00    +0.000 C 
BRANCH  29  31
ATOM     30  C   UNL     1       0.734   2.849  19.395  0.00  0.00    +0.000 C 
ATOM     31  C   UNL     1       1.071   3.550  20.709  0.00  0.00    +0.000 C 
ATOM     32  C   UNL     1       1.538   2.533  21.754  0.00  0.00    +0.000 C 
ENDBRANCH  29  31
ENDBRANCH  28  29
ENDBRANCH  27  28
ENDBRANCH  26  27
ENDBRANCH  25  26
ENDBRANCH  24  25
ENDBRANCH  23  24
ENDBRANCH  22  23
ENDBRANCH  21  22
ENDBRANCH  20  21
ENDBRANCH  19  20
ENDBRANCH   1  19
TORSDOF 15
ENDMDL
MODEL 6
REMARK VINA RESULT:      -6.3      1.633      2.430
REMARK  Name = 
REMARK  17 active torsions:
REMARK  status: ('A' for Active; 'I' for Inactive)
REMARK    1  A    between atoms: C_1  and  C_2
REMARK    2  A    between atoms: C_2  and  C_3
REMARK    3  A    between atoms: C_2  and  C_4
REMARK    4  A    between atoms: C_4  and  O_5
REMARK    5  A    between atoms: O_5  and  C_6
REMARK    6  A    between atoms: C_6  and  C_7
REMARK    7  A    between atoms: C_7  and  C_8
REMARK    8  A    between atoms: C_8  and  C_9
REMARK    9  A    between atoms: C_9  and  C_10
REMARK   10  A    between atoms: C_10  and  C_11
REMARK   11  A    between atoms: C_11  and  C_12
REMARK   12  A    between atoms: C_12  and  C_13
REMARK   13  A    between atoms: C_13  and  C_14
REMARK   14  A    between atoms: C_14  and  C_15
REMARK   15  A    between atoms: N_19  and  C_20
REMARK   16  A    between atoms: C_23  and  C_24
REMARK   17  A    between atoms: C_24  and  O_25
REMARK                            x       y       z     vdW  Elec       q    Type
REMARK                         _______ _______ _______ _____ _____    ______ ____
ROOT
ATOM      1  C   UNL     1       0.360  10.159  18.778  0.00  0.00    +0.000 A 
ATOM      2  C   UNL     1      -0.933  10.492  18.796  0.00  0.00    +0.000 A 
ATOM      3  C   UNL     1      -1.042  11.323  19.924  0.00  0.00    +0.000 A 
ATOM      4  C   UNL     1      -2.026  11.987  20.509  0.00  0.00    +0.000 A 
ATOM      5  N   UNL     1      -1.767  12.758  21.628  0.00  0.00    +0.000 N 
ATOM      6  C   UNL     1      -0.474  12.839  22.197  0.00  0.00    +0.000 A 
ATOM      7  O   UNL     1      -0.283  13.509  23.207  0.00  0.00    +0.000 OA
ATOM      8  N   UNL     1       0.562  12.144  21.600  0.00  0.00    +0.000 NA
ATOM      9  C   UNL     1       0.260  11.464  20.557  0.00  0.00    +0.000 A 
ATOM     10  O   UNL     1       1.151  10.714  19.821  0.00  0.00    +0.000 OA
ENDROOT
BRANCH   5  11
ATOM     11  C   UNL     1      -2.844  13.497  22.274  0.00  0.00    +0.000 C 
ATOM     12  C   UNL     1      -3.781  12.615  23.092  0.00  0.00    +0.000 C 
ATOM     13  C   UNL     1      -5.094  13.356  22.993  0.00  0.00    +0.000 C 
ATOM     14  C   UNL     1      -5.051  13.953  21.599  0.00  0.00    +0.000 C 
ATOM     15  O   UNL     1      -3.658  14.149  21.275  0.00  0.00    +0.000 OA
BRANCH  14  16
ATOM     16  C   UNL     1      -5.673  13.040  20.535  0.00  0.00    +0.000 C 
BRANCH  16  17
ATOM     17  O   UNL     1      -5.104  13.316  19.255  0.00  0.00    +0.000 OA
ATOM     18  H   UNL     1      -5.515  14.146  18.943  0.00  0.00    +0.000 HD
ENDBRANCH  16  17
ENDBRANCH  14  16
ENDBRANCH   5  11
BRANCH   1  19
ATOM     19  C   UNL     1       1.048   9.329  17.752  0.00  0.00    +0.000 C 
BRANCH  19  20
ATOM     20  C   UNL     1       2.348   8.720  18.277  0.00  0.00    +0.000 C 
BRANCH  20  21
ATOM     21  C   UNL     1       2.105   7.714  19.402  0.00  0.00    +0.000 C 
BRANCH  21  22
ATOM     22  C   UNL     1       3.068   6.532  19.320  0.00  0.00    +0.000 C 
BRANCH  22  23
ATOM     23  C   UNL     1       2.990   5.829  17.976  0.00  0.00    +0.000 C 
BRANCH  23  24
ATOM     24  C   UNL     1       4.393   5.442  17.513  0.00  0.00    +0.000 C 
BRANCH  24  25
ATOM     25  C   UNL     1       4.355   4.108  16.785  0.00  0.00    +0.000 C 
BRANCH  25  26
ATOM     26  C   UNL     1       3.095   3.320  17.137  0.00  0.00    +0.000 C 
BRANCH  26  27
ATOM     27  C   UNL     1       3.452   2.044  17.884  0.00  0.00    +0.000 C 
BRANCH  27  28
ATOM     28  O   UNL     1       3.077   2.193  19.252  0.00  0.00    +0.000 OA
BRANCH  28  29
ATOM     29  C   UNL     1       1.672   2.057  19.427  0.00  0.00    +0.000 C 
BRANCH  29  31
ATOM     30  C   UNL     1       2.362   2.822  21.705  0.00  0.00    +0.000 C 
ATOM     31  C   UNL     1       1.232   2.823  20.679  0.00  0.00    +0.000 C 
ATOM     32  C   UNL     1       0.809   4.256  20.349  0.00  0.00    +0.000 C 
ENDBRANCH  29  31
ENDBRANCH  28  29
ENDBRANCH  27  28
ENDBRANCH  26  27
ENDBRANCH  25  26
ENDBRANCH  24  25
ENDBRANCH  23  24
ENDBRANCH  22  23
ENDBRANCH  21  22
ENDBRANCH  20  21
ENDBRANCH  19  20
ENDBRANCH   1  19
TORSDOF 15
ENDMDL
MODEL 7
REMARK VINA RESULT:      -6.3      1.961      4.124
REMARK  Name = 
REMARK  17 active torsions:
REMARK  status: ('A' for Active; 'I' for Inactive)
REMARK    1  A    between atoms: C_1  and  C_2
REMARK    2  A    between atoms: C_2  and  C_3
REMARK    3  A    between atoms: C_2  and  C_4
REMARK    4  A    between atoms: C_4  and  O_5
REMARK    5  A    between atoms: O_5  and  C_6
REMARK    6  A    between atoms: C_6  and  C_7
REMARK    7  A    between atoms: C_7  and  C_8
REMARK    8  A    between atoms: C_8  and  C_9
REMARK    9  A    between atoms: C_9  and  C_10
REMARK   10  A    between atoms: C_10  and  C_11
REMARK   11  A    between atoms: C_11  and  C_12
REMARK   12  A    between atoms: C_12  and  C_13
REMARK   13  A    between atoms: C_13  and  C_14
REMARK   14  A    between atoms: C_14  and  C_15
REMARK   15  A    between atoms: N_19  and  C_20
REMARK   16  A    between atoms: C_23  and  C_24
REMARK   17  A    between atoms: C_24  and  O_25
REMARK                            x       y       z     vdW  Elec       q    Type
REMARK                         _______ _______ _______ _____ _____    ______ ____
ROOT
ATOM      1  C   UNL     1       1.726   7.971  19.916  0.00  0.00    +0.000 A 
ATOM      2  C   UNL     1       1.157   8.427  21.035  0.00  0.00    +0.000 A 
ATOM      3  C   UNL     1       0.833   9.757  20.719  0.00  0.00    +0.000 A 
ATOM      4  C   UNL     1       0.257  10.761  21.361  0.00  0.00    +0.000 A 
ATOM      5  N   UNL     1       0.061  11.969  20.717  0.00  0.00    +0.000 N 
ATOM      6  C   UNL     1       0.490  12.185  19.386  0.00  0.00    +0.000 A 
ATOM      7  O   UNL     1       0.328  13.278  18.852  0.00  0.00    +0.000 OA
ATOM      8  N   UNL     1       1.100  11.147  18.705  0.00  0.00    +0.000 NA
ATOM      9  C   UNL     1       1.235  10.049  19.351  0.00  0.00    +0.000 A 
ATOM     10  O   UNL     1       1.808   8.902  18.846  0.00  0.00    +0.000 OA
ENDROOT
BRANCH   5  11
ATOM     11  C   UNL     1      -0.577  13.077  21.415  0.00  0.00    +0.000 C 
ATOM     12  C   UNL     1      -0.923  12.764  22.866  0.00  0.00    +0.000 C 
ATOM     13  C   UNL     1      -2.142  13.624  23.104  0.00  0.00    +0.000 C 
ATOM     14  C   UNL     1      -2.842  13.610  21.759  0.00  0.00    +0.000 C 
ATOM     15  O   UNL     1      -1.819  13.418  20.760  0.00  0.00    +0.000 OA
BRANCH  14  16
ATOM     16  C   UNL     1      -3.868  12.478  21.627  0.00  0.00    +0.000 C 
BRANCH  16  17
ATOM     17  O   UNL     1      -4.549  12.282  22.866  0.00  0.00    +0.000 OA
ATOM     18  H   UNL     1      -3.943  11.770  23.437  0.00  0.00    +0.000 HD
ENDBRANCH  16  17
ENDBRANCH  14  16
ENDBRANCH   5  11
BRANCH   1  19
ATOM     19  C   UNL     1       2.214   6.587  19.671  0.00  0.00    +0.000 C 
BRANCH  19  20
ATOM     20  C   UNL     1       1.901   5.647  20.835  0.00  0.00    +0.000 C 
BRANCH  20  21
ATOM     21  C   UNL     1       0.948   4.520  20.431  0.00  0.00    +0.000 C 
BRANCH  21  22
ATOM     22  C   UNL     1       1.474   3.154  20.865  0.00  0.00    +0.000 C 
BRANCH  22  23
ATOM     23  C   UNL     1       1.818   2.275  19.674  0.00  0.00    +0.000 C 
BRANCH  23  24
ATOM     24  C   UNL     1       3.311   2.379  19.370  0.00  0.00    +0.000 C 
BRANCH  24  25
ATOM     25  C   UNL     1       3.530   2.541  17.875  0.00  0.00    +0.000 C 
BRANCH  25  26
ATOM     26  C   UNL     1       3.552   4.014  17.473  0.00  0.00    +0.000 C 
BRANCH  26  27
ATOM     27  C   UNL     1       4.937   4.419  16.991  0.00  0.00    +0.000 C 
BRANCH  27  28
ATOM     28  O   UNL     1       5.386   5.529  17.765  0.00  0.00    +0.000 OA
BRANCH  28  29
ATOM     29  C   UNL     1       6.063   6.488  16.962  0.00  0.00    +0.000 C 
BRANCH  29  31
ATOM     30  C   UNL     1       7.731   8.216  17.655  0.00  0.00    +0.000 C 
ATOM     31  C   UNL     1       7.474   6.718  17.512  0.00  0.00    +0.000 C 
ATOM     32  C   UNL     1       7.684   6.008  18.852  0.00  0.00    +0.000 C 
ENDBRANCH  29  31
ENDBRANCH  28  29
ENDBRANCH  27  28
ENDBRANCH  26  27
ENDBRANCH  25  26
ENDBRANCH  24  25
ENDBRANCH  23  24
ENDBRANCH  22  23
ENDBRANCH  21  22
ENDBRANCH  20  21
ENDBRANCH  19  20
ENDBRANCH   1  19
TORSDOF 15
ENDMDL
MODEL 8
REMARK VINA RESULT:      -6.2      2.001      4.134
REMARK  Name = 
REMARK  17 active torsions:
REMARK  status: ('A' for Active; 'I' for Inactive)
REMARK    1  A    between atoms: C_1  and  C_2
REMARK    2  A    between atoms: C_2  and  C_3
REMARK    3  A    between atoms: C_2  and  C_4
REMARK    4  A    between atoms: C_4  and  O_5
REMARK    5  A    between atoms: O_5  and  C_6
REMARK    6  A    between atoms: C_6  and  C_7
REMARK    7  A    between atoms: C_7  and  C_8
REMARK    8  A    between atoms: C_8  and  C_9
REMARK    9  A    between atoms: C_9  and  C_10
REMARK   10  A    between atoms: C_10  and  C_11
REMARK   11  A    between atoms: C_11  and  C_12
REMARK   12  A    between atoms: C_12  and  C_13
REMARK   13  A    between atoms: C_13  and  C_14
REMARK   14  A    between atoms: C_14  and  C_15
REMARK   15  A    between atoms: N_19  and  C_20
REMARK   16  A    between atoms: C_23  and  C_24
REMARK   17  A    between atoms: C_24  and  O_25
REMARK                            x       y       z     vdW  Elec       q    Type
REMARK                         _______ _______ _______ _____ _____    ______ ____
ROOT
ATOM      1  C   UNL     1       1.721   7.773  20.072  0.00  0.00    +0.000 A 
ATOM      2  C   UNL     1       1.626   8.778  19.197  0.00  0.00    +0.000 A 
ATOM      3  C   UNL     1       1.050   9.815  19.951  0.00  0.00    +0.000 A 
ATOM      4  C   UNL     1       0.692  11.066  19.706  0.00  0.00    +0.000 A 
ATOM      5  N   UNL     1       0.165  11.842  20.723  0.00  0.00    +0.000 N 
ATOM      6  C   UNL     1      -0.038  11.331  22.026  0.00  0.00    +0.000 A 
ATOM      7  O   UNL     1      -0.535  12.036  22.898  0.00  0.00    +0.000 OA
ATOM      8  N   UNL     1       0.325  10.023  22.293  0.00  0.00    +0.000 NA
ATOM      9  C   UNL     1       0.824   9.363  21.315  0.00  0.00    +0.000 A 
ATOM     10  O   UNL     1       1.252   8.055  21.384  0.00  0.00    +0.000 OA
ENDROOT
BRANCH   5  11
ATOM     11  C   UNL     1      -0.227  13.221  20.463  0.00  0.00    +0.000 C 
ATOM     12  C   UNL     1      -0.588  13.488  19.006  0.00  0.00    +0.000 C 
ATOM     13  C   UNL     1      -0.206  14.939  18.836  0.00  0.00    +0.000 C 
ATOM     14  C   UNL     1       1.008  15.085  19.733  0.00  0.00    +0.000 C 
ATOM     15  O   UNL     1       0.866  14.109  20.786  0.00  0.00    +0.000 OA
BRANCH  14  16
ATOM     16  C   UNL     1       2.331  14.822  19.002  0.00  0.00    +0.000 C 
BRANCH  16  17
ATOM     17  O   UNL     1       3.058  13.783  19.657  0.00  0.00    +0.000 OA
ATOM     18  H   UNL     1       2.591  12.949  19.456  0.00  0.00    +0.000 HD
ENDBRANCH  16  17
ENDBRANCH  14  16
ENDBRANCH   5  11
BRANCH   1  19
ATOM     19  C   UNL     1       2.318   6.433  19.821  0.00  0.00    +0.000 C 
BRANCH  19  20
ATOM     20  C   UNL     1       1.804   5.378  20.801  0.00  0.00    +0.000 C 
BRANCH  20  21
ATOM     21  C   UNL     1       0.982   4.292  20.106  0.00  0.00    +0.000 C 
BRANCH  21  22
ATOM     22  C   UNL     1       1.220   2.919  20.729  0.00  0.00    +0.000 C 
BRANCH  22  23
ATOM     23  C   UNL     1       2.537   2.859  21.484  0.00  0.00    +0.000 C 
BRANCH  23  24
ATOM     24  C   UNL     1       3.631   2.311  20.570  0.00  0.00    +0.000 C 
BRANCH  24  25
ATOM     25  C   UNL     1       3.094   2.134  19.159  0.00  0.00    +0.000 C 
BRANCH  25  26
ATOM     26  C   UNL     1       3.952   2.882  18.141  0.00  0.00    +0.000 C 
BRANCH  26  27
ATOM     27  C   UNL     1       4.789   3.951  18.825  0.00  0.00    +0.000 C 
BRANCH  27  28
ATOM     28  O   UNL     1       5.070   4.985  17.884  0.00  0.00    +0.000 OA
BRANCH  28  29
ATOM     29  C   UNL     1       4.650   4.629  16.573  0.00  0.00    +0.000 C 
BRANCH  29  31
ATOM     30  C   UNL     1       6.967   5.509  16.244  0.00  0.00    +0.000 C 
ATOM     31  C   UNL     1       5.654   5.163  15.546  0.00  0.00    +0.000 C 
ATOM     32  C   UNL     1       5.895   4.161  14.414  0.00  0.00    +0.000 C 
ENDBRANCH  29  31
ENDBRANCH  28  29
ENDBRANCH  27  28
ENDBRANCH  26  27
ENDBRANCH  25  26
ENDBRANCH  24  25
ENDBRANCH  23  24
ENDBRANCH  22  23
ENDBRANCH  21  22
ENDBRANCH  20  21
ENDBRANCH  19  20
ENDBRANCH   1  19
TORSDOF 15
ENDMDL
MODEL 9
REMARK VINA RESULT:      -6.2      1.967      3.996
REMARK  Name = 
REMARK  17 active torsions:
REMARK  status: ('A' for Active; 'I' for Inactive)
REMARK    1  A    between atoms: C_1  and  C_2
REMARK    2  A    between atoms: C_2  and  C_3
REMARK    3  A    between atoms: C_2  and  C_4
REMARK    4  A    between atoms: C_4  and  O_5
REMARK    5  A    between atoms: O_5  and  C_6
REMARK    6  A    between atoms: C_6  and  C_7
REMARK    7  A    between atoms: C_7  and  C_8
REMARK    8  A    between atoms: C_8  and  C_9
REMARK    9  A    between atoms: C_9  and  C_10
REMARK   10  A    between atoms: C_10  and  C_11
REMARK   11  A    between atoms: C_11  and  C_12
REMARK   12  A    between atoms: C_12  and  C_13
REMARK   13  A    between atoms: C_13  and  C_14
REMARK   14  A    between atoms: C_14  and  C_15
REMARK   15  A    between atoms: N_19  and  C_20
REMARK   16  A    between atoms: C_23  and  C_24
REMARK   17  A    between atoms: C_24  and  O_25
REMARK                            x       y       z     vdW  Elec       q    Type
REMARK                         _______ _______ _______ _____ _____    ______ ____
ROOT
ATOM      1  C   UNL     1       1.474   8.394  20.140  0.00  0.00    +0.000 A 
ATOM      2  C   UNL     1       0.959   8.917  21.255  0.00  0.00    +0.000 A 
ATOM      3  C   UNL     1       0.451  10.157  20.831  0.00  0.00    +0.000 A 
ATOM      4  C   UNL     1      -0.180  11.163  21.416  0.00  0.00    +0.000 A 
ATOM      5  N   UNL     1      -0.576  12.256  20.667  0.00  0.00    +0.000 N 
ATOM      6  C   UNL     1      -0.299  12.355  19.283  0.00  0.00    +0.000 A 
ATOM      7  O   UNL     1      -0.638  13.351  18.653  0.00  0.00    +0.000 OA
ATOM      8  N   UNL     1       0.367  11.314  18.661  0.00  0.00    +0.000 NA
ATOM      9  C   UNL     1       0.689  10.323  19.405  0.00  0.00    +0.000 A 
ATOM     10  O   UNL     1       1.347   9.193  18.971  0.00  0.00    +0.000 OA
ENDROOT
BRANCH   5  11
ATOM     11  C   UNL     1      -1.275  13.365  21.303  0.00  0.00    +0.000 C 
ATOM     12  C   UNL     1      -0.688  13.762  22.652  0.00  0.00    +0.000 C 
ATOM     13  C   UNL     1      -1.896  14.286  23.392  0.00  0.00    +0.000 C 
ATOM     14  C   UNL     1      -3.024  13.413  22.875  0.00  0.00    +0.000 C 
ATOM     15  O   UNL     1      -2.652  13.001  21.543  0.00  0.00    +0.000 OA
BRANCH  14  16
ATOM     16  C   UNL     1      -3.251  12.158  23.727  0.00  0.00    +0.000 C 
BRANCH  16  17
ATOM     17  O   UNL     1      -4.557  12.182  24.302  0.00  0.00    +0.000 OA
ATOM     18  H   UNL     1      -5.181  11.964  23.582  0.00  0.00    +0.000 HD
ENDBRANCH  16  17
ENDBRANCH  14  16
ENDBRANCH   5  11
BRANCH   1  19
ATOM     19  C   UNL     1       2.099   7.051  19.997  0.00  0.00    +0.000 C 
BRANCH  19  20
ATOM     20  C   UNL     1       1.461   6.013  20.921  0.00  0.00    +0.000 C 
BRANCH  20  21
ATOM     21  C   UNL     1       2.226   4.690  20.923  0.00  0.00    +0.000 C 
BRANCH  21  22
ATOM     22  C   UNL     1       1.284   3.492  20.830  0.00  0.00    +0.000 C 
BRANCH  22  23
ATOM     23  C   UNL     1       1.864   2.379  19.975  0.00  0.00    +0.000 C 
BRANCH  23  24
ATOM     24  C   UNL     1       1.263   2.438  18.573  0.00  0.00    +0.000 C 
BRANCH  24  25
ATOM     25  C   UNL     1       2.046   3.412  17.708  0.00  0.00    +0.000 C 
BRANCH  25  26
ATOM     26  C   UNL     1       3.507   2.987  17.577  0.00  0.00    +0.000 C 
BRANCH  26  27
ATOM     27  C   UNL     1       4.296   4.014  16.777  0.00  0.00    +0.000 C 
BRANCH  27  28
ATOM     28  O   UNL     1       5.549   4.231  17.421  0.00  0.00    +0.000 OA
BRANCH  28  29
ATOM     29  C   UNL     1       5.472   5.277  18.381  0.00  0.00    +0.000 C 
BRANCH  29  31
ATOM     30  C   UNL     1       7.775   5.720  19.245  0.00  0.00    +0.000 C 
ATOM     31  C   UNL     1       6.703   6.180  18.261  0.00  0.00    +0.000 C 
ATOM     32  C   UNL     1       7.257   6.198  16.834  0.00  0.00    +0.000 C 
ENDBRANCH  29  31
ENDBRANCH  28  29
ENDBRANCH  27  28
ENDBRANCH  26  27
ENDBRANCH  25  26
ENDBRANCH  24  25
ENDBRANCH  23  24
ENDBRANCH  22  23
ENDBRANCH  21  22
ENDBRANCH  20  21
ENDBRANCH  19  20
ENDBRANCH   1  19
TORSDOF 15
ENDMDL
