MODEL 1
REMARK VINA RESULT:      -8.1      0.000      0.000
REMARK  Name = 
REMARK  6 active torsions:
REMARK  status: ('A' for Active; 'I' for Inactive)
REMARK    1  A    between atoms: C_1  and  C_2
REMARK    2  A    between atoms: C_4  and  C_5
REMARK    3  A    between atoms: C_7  and  O_8
REMARK    4  A    between atoms: O_8  and  C_9
REMARK    5  A    between atoms: C_9  and  C_10
REMARK    6  A    between atoms: N_12  and  C_13
REMARK                            x       y       z     vdW  Elec       q    Type
REMARK                         _______ _______ _______ _____ _____    ______ ____
ROOT
ATOM      1  C   UNL     1       7.523   7.489  17.866  0.00  0.00    +0.000 C 
ATOM      2  O   UNL     1       8.063   6.703  18.649  0.00  0.00    +0.000 OA
ATOM      3  N   UNL     1       6.361   7.255  17.145  0.00  0.00    +0.000 N 
ATOM      4  H   UNL     1       5.922   8.049  16.702  0.00  0.00    +0.000 HD
ENDROOT
BRANCH   3   5
ATOM      5  C   UNL     1       5.619   6.045  17.193  0.00  0.00    +0.000 A 
ATOM      6  C   UNL     1       5.802   5.023  16.250  0.00  0.00    +0.000 A 
ATOM      7  C   UNL     1       5.106   3.825  16.354  0.00  0.00    +0.000 A 
ATOM      8  C   UNL     1       4.210   3.620  17.390  0.00  0.00    +0.000 A 
ATOM      9  C   UNL     1       4.007   4.632  18.338  0.00  0.00    +0.000 A 
ATOM     10  C   UNL     1       4.689   5.853  18.227  0.00  0.00    +0.000 A 
ATOM     11  O   UNL     1       3.145   4.487  19.402  0.00  0.00    +0.000 OA
ATOM     12  C   UNL     1       2.804   3.107  19.610  0.00  0.00    +0.000 C 
ATOM     13  C   UNL     1       2.458   2.417  18.300  0.00  0.00    +0.000 C 
ATOM     14  O   UNL     1       3.587   2.408  17.419  0.00  0.00    +0.000 OA
ENDBRANCH   3   5
BRANCH   1  15
ATOM     15  C   UNL     1       8.130   8.876  17.682  0.00  0.00    +0.000 C 
BRANCH  15  16
ATOM     16  O   UNL     1       8.890   9.165  18.847  0.00  0.00    +0.000 OA
BRANCH  16  23
ATOM     17  C   UNL     1      11.149  13.230  17.068  0.00  0.00    +0.000 C 
ATOM     18  C   UNL     1      10.491  12.454  18.173  0.00  0.00    +0.000 A 
ATOM     19  C   UNL     1      10.363  13.008  19.453  0.00  0.00    +0.000 A 
ATOM     20  C   UNL     1       9.771  12.279  20.490  0.00  0.00    +0.000 A 
ATOM     21  C   UNL     1       9.625  12.862  21.863  0.00  0.00    +0.000 C 
ATOM     22  C   UNL     1       9.303  10.985  20.230  0.00  0.00    +0.000 A 
ATOM     23  C   UNL     1       9.396  10.431  18.953  0.00  0.00    +0.000 A 
ATOM     24  C   UNL     1      10.007  11.158  17.930  0.00  0.00    +0.000 A 
ENDBRANCH  16  23
ENDBRANCH  15  16
ENDBRANCH   1  15
TORSDOF 4
ENDMDL
MODEL 2
REMARK VINA RESULT:      -7.9      4.826      7.954
REMARK  Name = 
REMARK  6 active torsions:
REMARK  status: ('A' for Active; 'I' for Inactive)
REMARK    1  A    between atoms: C_1  and  C_2
REMARK    2  A    between atoms: C_4  and  C_5
REMARK    3  A    between atoms: C_7  and  O_8
REMARK    4  A    between atoms: O_8  and  C_9
REMARK    5  A    between atoms: C_9  and  C_10
REMARK    6  A    between atoms: N_12  and  C_13
REMARK                            x       y       z     vdW  Elec       q    Type
REMARK                         _______ _______ _______ _____ _____    ______ ____
ROOT
ATOM      1  C   UNL     1       2.232   5.501  20.170  0.00  0.00    +0.000 C 
ATOM      2  O   UNL     1       1.143   5.149  20.631  0.00  0.00    +0.000 OA
ATOM      3  N   UNL     1       2.637   6.808  19.937  0.00  0.00    +0.000 N 
ATOM      4  H   UNL     1       3.617   6.963  19.751  0.00  0.00    +0.000 HD
ENDROOT
BRANCH   3   5
ATOM      5  C   UNL     1       1.834   7.952  20.188  0.00  0.00    +0.000 A 
ATOM      6  C   UNL     1       1.398   8.795  19.155  0.00  0.00    +0.000 A 
ATOM      7  C   UNL     1       0.564   9.874  19.420  0.00  0.00    +0.000 A 
ATOM      8  C   UNL     1       0.152  10.142  20.715  0.00  0.00    +0.000 A 
ATOM      9  C   UNL     1       0.583   9.317  21.762  0.00  0.00    +0.000 A 
ATOM     10  C   UNL     1       1.444   8.239  21.506  0.00  0.00    +0.000 A 
ATOM     11  O   UNL     1       0.197   9.517  23.069  0.00  0.00    +0.000 OA
ATOM     12  C   UNL     1      -0.942  10.390  23.146  0.00  0.00    +0.000 C 
ATOM     13  C   UNL     1      -0.771  11.605  22.249  0.00  0.00    +0.000 C 
ATOM     14  O   UNL     1      -0.678  11.212  20.875  0.00  0.00    +0.000 OA
ENDBRANCH   3   5
BRANCH   1  15
ATOM     15  C   UNL     1       3.277   4.435  19.858  0.00  0.00    +0.000 C 
BRANCH  15  16
ATOM     16  O   UNL     1       3.288   4.251  18.448  0.00  0.00    +0.000 OA
BRANCH  16  23
ATOM     17  C   UNL     1       6.339   3.967  14.524  0.00  0.00    +0.000 C 
ATOM     18  C   UNL     1       6.050   4.306  15.958  0.00  0.00    +0.000 A 
ATOM     19  C   UNL     1       7.058   4.822  16.784  0.00  0.00    +0.000 A 
ATOM     20  C   UNL     1       6.798   5.118  18.126  0.00  0.00    +0.000 A 
ATOM     21  C   UNL     1       7.866   5.673  19.019  0.00  0.00    +0.000 C 
ATOM     22  C   UNL     1       5.512   4.895  18.635  0.00  0.00    +0.000 A 
ATOM     23  C   UNL     1       4.491   4.410  17.818  0.00  0.00    +0.000 A 
ATOM     24  C   UNL     1       4.765   4.098  16.485  0.00  0.00    +0.000 A 
ENDBRANCH  16  23
ENDBRANCH  15  16
ENDBRANCH   1  15
TORSDOF 4
ENDMDL
MODEL 3
REMARK VINA RESULT:      -7.9      4.539      7.676
REMARK  Name = 
REMARK  6 active torsions:
REMARK  status: ('A' for Active; 'I' for Inactive)
REMARK    1  A    between atoms: C_1  and  C_2
REMARK    2  A    between atoms: C_4  and  C_5
REMARK    3  A    between atoms: C_7  and  O_8
REMARK    4  A    between atoms: O_8  and  C_9
REMARK    5  A    between atoms: C_9  and  C_10
REMARK    6  A    between atoms: N_12  and  C_13
REMARK                            x       y       z     vdW  Elec       q    Type
REMARK                         _______ _______ _______ _____ _____    ______ ____
ROOT
ATOM      1  C   UNL     1       2.527   5.097  19.160  0.00  0.00    +0.000 C 
ATOM      2  O   UNL     1       1.675   4.950  18.279  0.00  0.00    +0.000 OA
ATOM      3  N   UNL     1       2.848   6.289  19.795  0.00  0.00    +0.000 N 
ATOM      4  H   UNL     1       3.412   6.231  20.630  0.00  0.00    +0.000 HD
ENDROOT
BRANCH   3   5
ATOM      5  C   UNL     1       2.239   7.539  19.506  0.00  0.00    +0.000 A 
ATOM      6  C   UNL     1       2.310   8.124  18.234  0.00  0.00    +0.000 A 
ATOM      7  C   UNL     1       1.656   9.319  17.962  0.00  0.00    +0.000 A 
ATOM      8  C   UNL     1       0.926   9.961  18.948  0.00  0.00    +0.000 A 
ATOM      9  C   UNL     1       0.849   9.397  20.229  0.00  0.00    +0.000 A 
ATOM     10  C   UNL     1       1.526   8.202  20.517  0.00  0.00    +0.000 A 
ATOM     11  O   UNL     1       0.126   9.974  21.249  0.00  0.00    +0.000 OA
ATOM     12  C   UNL     1      -0.794  10.956  20.744  0.00  0.00    +0.000 C 
ATOM     13  C   UNL     1      -0.128  11.867  19.725  0.00  0.00    +0.000 C 
ATOM     14  O   UNL     1       0.306  11.119  18.583  0.00  0.00    +0.000 OA
ENDBRANCH   3   5
BRANCH   1  15
ATOM     15  C   UNL     1       3.287   3.873  19.659  0.00  0.00    +0.000 C 
BRANCH  15  16
ATOM     16  O   UNL     1       3.919   3.277  18.534  0.00  0.00    +0.000 OA
BRANCH  16  23
ATOM     17  C   UNL     1       7.914   6.238  18.762  0.00  0.00    +0.000 C 
ATOM     18  C   UNL     1       6.931   5.393  18.005  0.00  0.00    +0.000 A 
ATOM     19  C   UNL     1       7.034   5.254  16.615  0.00  0.00    +0.000 A 
ATOM     20  C   UNL     1       6.107   4.487  15.904  0.00  0.00    +0.000 A 
ATOM     21  C   UNL     1       6.208   4.327  14.417  0.00  0.00    +0.000 C 
ATOM     22  C   UNL     1       5.072   3.852  16.602  0.00  0.00    +0.000 A 
ATOM     23  C   UNL     1       4.973   3.956  17.990  0.00  0.00    +0.000 A 
ATOM     24  C   UNL     1       5.891   4.741  18.688  0.00  0.00    +0.000 A 
ENDBRANCH  16  23
ENDBRANCH  15  16
ENDBRANCH   1  15
TORSDOF 4
ENDMDL
MODEL 4
REMARK VINA RESULT:      -7.9      4.783      7.548
REMARK  Name = 
REMARK  6 active torsions:
REMARK  status: ('A' for Active; 'I' for Inactive)
REMARK    1  A    between atoms: C_1  and  C_2
REMARK    2  A    between atoms: C_4  and  C_5
REMARK    3  A    between atoms: C_7  and  O_8
REMARK    4  A    between atoms: O_8  and  C_9
REMARK    5  A    between atoms: C_9  and  C_10
REMARK    6  A    between atoms: N_12  and  C_13
REMARK                            x       y       z     vdW  Elec       q    Type
REMARK                         _______ _______ _______ _____ _____    ______ ____
ROOT
ATOM      1  C   UNL     1       2.536   4.973  19.378  0.00  0.00    +0.000 C 
ATOM      2  O   UNL     1       1.593   4.759  18.612  0.00  0.00    +0.000 OA
ATOM      3  N   UNL     1       2.924   6.211  19.871  0.00  0.00    +0.000 N 
ATOM      4  H   UNL     1       3.577   6.219  20.641  0.00  0.00    +0.000 HD
ENDROOT
BRANCH   3   5
ATOM      5  C   UNL     1       2.287   7.438  19.545  0.00  0.00    +0.000 A 
ATOM      6  C   UNL     1       2.319   7.970  18.248  0.00  0.00    +0.000 A 
ATOM      7  C   UNL     1       1.638   9.142  17.942  0.00  0.00    +0.000 A 
ATOM      8  C   UNL     1       0.918   9.811  18.918  0.00  0.00    +0.000 A 
ATOM      9  C   UNL     1       0.880   9.300  20.222  0.00  0.00    +0.000 A 
ATOM     10  C   UNL     1       1.584   8.130  20.544  0.00  0.00    +0.000 A 
ATOM     11  O   UNL     1       0.169   9.906  21.234  0.00  0.00    +0.000 OA
ATOM     12  C   UNL     1      -0.779  10.850  20.710  0.00  0.00    +0.000 C 
ATOM     13  C   UNL     1      -0.153  11.730  19.640  0.00  0.00    +0.000 C 
ATOM     14  O   UNL     1       0.269  10.943  18.520  0.00  0.00    +0.000 OA
ENDBRANCH   3   5
BRANCH   1  15
ATOM     15  C   UNL     1       3.347   3.789  19.894  0.00  0.00    +0.000 C 
BRANCH  15  16
ATOM     16  O   UNL     1       3.875   3.110  18.762  0.00  0.00    +0.000 OA
BRANCH  16  23
ATOM     17  C   UNL     1       6.001   4.617  14.520  0.00  0.00    +0.000 C 
ATOM     18  C   UNL     1       5.930   4.552  16.018  0.00  0.00    +0.000 A 
ATOM     19  C   UNL     1       6.898   5.191  16.805  0.00  0.00    +0.000 A 
ATOM     20  C   UNL     1       6.848   5.113  18.200  0.00  0.00    +0.000 A 
ATOM     21  C   UNL     1       7.875   5.796  19.053  0.00  0.00    +0.000 C 
ATOM     22  C   UNL     1       5.813   4.390  18.804  0.00  0.00    +0.000 A 
ATOM     23  C   UNL     1       4.825   3.773  18.036  0.00  0.00    +0.000 A 
ATOM     24  C   UNL     1       4.895   3.838  16.644  0.00  0.00    +0.000 A 
ENDBRANCH  16  23
ENDBRANCH  15  16
ENDBRANCH   1  15
TORSDOF 4
ENDMDL
MODEL 5
REMARK VINA RESULT:      -7.7      2.243      9.660
REMARK  Name = 
REMARK  6 active torsions:
REMARK  status: ('A' for Active; 'I' for Inactive)
REMARK    1  A    between atoms: C_1  and  C_2
REMARK    2  A    between atoms: C_4  and  C_5
REMARK    3  A    between atoms: C_7  and  O_8
REMARK    4  A    between atoms: O_8  and  C_9
REMARK    5  A    between atoms: C_9  and  C_10
REMARK    6  A    between atoms: N_12  and  C_13
REMARK                            x       y       z     vdW  Elec       q    Type
REMARK                         _______ _______ _______ _____ _____    ______ ____
ROOT
ATOM      1  C   UNL     1       8.260   8.770  18.211  0.00  0.00    +0.000 C 
ATOM      2  O   UNL     1       7.670   9.532  17.439  0.00  0.00    +0.000 OA
ATOM      3  N   UNL     1       9.168   9.143  19.191  0.00  0.00    +0.000 N 
ATOM      4  H   UNL     1       9.418   8.448  19.880  0.00  0.00    +0.000 HD
ENDROOT
BRANCH   3   5
ATOM      5  C   UNL     1       9.570  10.482  19.444  0.00  0.00    +0.000 A 
ATOM      6  C   UNL     1       9.344  11.105  20.680  0.00  0.00    +0.000 A 
ATOM      7  C   UNL     1       9.801  12.395  20.921  0.00  0.00    +0.000 A 
ATOM      8  C   UNL     1      10.483  13.093  19.939  0.00  0.00    +0.000 A 
ATOM      9  C   UNL     1      10.712  12.491  18.695  0.00  0.00    +0.000 A 
ATOM     10  C   UNL     1      10.234  11.198  18.436  0.00  0.00    +0.000 A 
ATOM     11  O   UNL     1      11.399  13.123  17.682  0.00  0.00    +0.000 OA
ATOM     12  C   UNL     1      12.136  14.252  18.180  0.00  0.00    +0.000 C 
ATOM     13  C   UNL     1      11.289  15.098  19.117  0.00  0.00    +0.000 C 
ATOM     14  O   UNL     1      10.907  14.346  20.274  0.00  0.00    +0.000 OA
ENDBRANCH   3   5
BRANCH   1  15
ATOM     15  C   UNL     1       7.954   7.278  18.146  0.00  0.00    +0.000 C 
BRANCH  15  16
ATOM     16  O   UNL     1       7.698   6.955  16.786  0.00  0.00    +0.000 OA
BRANCH  16  23
ATOM     17  C   UNL     1       3.894   4.007  18.063  0.00  0.00    +0.000 C 
ATOM     18  C   UNL     1       4.925   4.495  17.086  0.00  0.00    +0.000 A 
ATOM     19  C   UNL     1       5.016   3.930  15.807  0.00  0.00    +0.000 A 
ATOM     20  C   UNL     1       5.989   4.365  14.903  0.00  0.00    +0.000 A 
ATOM     21  C   UNL     1       6.095   3.772  13.530  0.00  0.00    +0.000 C 
ATOM     22  C   UNL     1       6.873   5.380  15.291  0.00  0.00    +0.000 A 
ATOM     23  C   UNL     1       6.776   5.974  16.550  0.00  0.00    +0.000 A 
ATOM     24  C   UNL     1       5.814   5.518  17.453  0.00  0.00    +0.000 A 
ENDBRANCH  16  23
ENDBRANCH  15  16
ENDBRANCH   1  15
TORSDOF 4
ENDMDL
MODEL 6
REMARK VINA RESULT:      -7.6      4.721      8.040
REMARK  Name = 
REMARK  6 active torsions:
REMARK  status: ('A' for Active; 'I' for Inactive)
REMARK    1  A    between atoms: C_1  and  C_2
REMARK    2  A    between atoms: C_4  and  C_5
REMARK    3  A    between atoms: C_7  and  O_8
REMARK    4  A    between atoms: O_8  and  C_9
REMARK    5  A    between atoms: C_9  and  C_10
REMARK    6  A    between atoms: N_12  and  C_13
REMARK                            x       y       z     vdW  Elec       q    Type
REMARK                         _______ _______ _______ _____ _____    ______ ____
ROOT
ATOM      1  C   UNL     1       2.202   5.588  20.175  0.00  0.00    +0.000 C 
ATOM      2  O   UNL     1       1.104   5.142  20.520  0.00  0.00    +0.000 OA
ATOM      3  N   UNL     1       2.540   6.929  20.064  0.00  0.00    +0.000 N 
ATOM      4  H   UNL     1       3.519   7.154  19.971  0.00  0.00    +0.000 HD
ENDROOT
BRANCH   3   5
ATOM      5  C   UNL     1       1.648   8.004  20.323  0.00  0.00    +0.000 A 
ATOM      6  C   UNL     1       1.104   8.228  21.596  0.00  0.00    +0.000 A 
ATOM      7  C   UNL     1       0.281   9.322  21.837  0.00  0.00    +0.000 A 
ATOM      8  C   UNL     1      -0.023  10.210  20.818  0.00  0.00    +0.000 A 
ATOM      9  C   UNL     1       0.504   9.999  19.537  0.00  0.00    +0.000 A 
ATOM     10  C   UNL     1       1.317   8.884  19.281  0.00  0.00    +0.000 A 
ATOM     11  O   UNL     1       0.255  10.852  18.485  0.00  0.00    +0.000 OA
ATOM     12  C   UNL     1      -0.261  12.111  18.948  0.00  0.00    +0.000 C 
ATOM     13  C   UNL     1      -1.349  11.914  19.992  0.00  0.00    +0.000 C 
ATOM     14  O   UNL     1      -0.824  11.261  21.153  0.00  0.00    +0.000 OA
ENDBRANCH   3   5
BRANCH   1  15
ATOM     15  C   UNL     1       3.334   4.610  19.880  0.00  0.00    +0.000 C 
BRANCH  15  16
ATOM     16  O   UNL     1       3.334   4.369  18.479  0.00  0.00    +0.000 OA
BRANCH  16  23
ATOM     17  C   UNL     1       6.339   4.009  14.526  0.00  0.00    +0.000 C 
ATOM     18  C   UNL     1       6.063   4.388  15.953  0.00  0.00    +0.000 A 
ATOM     19  C   UNL     1       7.073   4.943  16.750  0.00  0.00    +0.000 A 
ATOM     20  C   UNL     1       6.826   5.275  18.085  0.00  0.00    +0.000 A 
ATOM     21  C   UNL     1       7.896   5.873  18.948  0.00  0.00    +0.000 C 
ATOM     22  C   UNL     1       5.550   5.050  18.617  0.00  0.00    +0.000 A 
ATOM     23  C   UNL     1       4.526   4.526  17.829  0.00  0.00    +0.000 A 
ATOM     24  C   UNL     1       4.788   4.178  16.503  0.00  0.00    +0.000 A 
ENDBRANCH  16  23
ENDBRANCH  15  16
ENDBRANCH   1  15
TORSDOF 4
ENDMDL
MODEL 7
REMARK VINA RESULT:      -7.6      4.478      8.011
REMARK  Name = 
REMARK  6 active torsions:
REMARK  status: ('A' for Active; 'I' for Inactive)
REMARK    1  A    between atoms: C_1  and  C_2
REMARK    2  A    between atoms: C_4  and  C_5
REMARK    3  A    between atoms: C_7  and  O_8
REMARK    4  A    between atoms: O_8  and  C_9
REMARK    5  A    between atoms: C_9  and  C_10
REMARK    6  A    between atoms: N_12  and  C_13
REMARK                            x       y       z     vdW  Elec       q    Type
REMARK                         _______ _______ _______ _____ _____    ______ ____
ROOT
ATOM      1  C   UNL     1       2.239   5.268  20.132  0.00  0.00    +0.000 C 
ATOM      2  O   UNL     1       1.076   4.857  20.176  0.00  0.00    +0.000 OA
ATOM      3  N   UNL     1       2.640   6.594  20.211  0.00  0.00    +0.000 N 
ATOM      4  H   UNL     1       3.621   6.773  20.367  0.00  0.00    +0.000 HD
ENDROOT
BRANCH   3   5
ATOM      5  C   UNL     1       1.751   7.694  20.341  0.00  0.00    +0.000 A 
ATOM      6  C   UNL     1       1.007   7.914  21.509  0.00  0.00    +0.000 A 
ATOM      7  C   UNL     1       0.189   9.031  21.633  0.00  0.00    +0.000 A 
ATOM      8  C   UNL     1       0.088   9.946  20.598  0.00  0.00    +0.000 A 
ATOM      9  C   UNL     1       0.818   9.740  19.419  0.00  0.00    +0.000 A 
ATOM     10  C   UNL     1       1.627   8.603  19.278  0.00  0.00    +0.000 A 
ATOM     11  O   UNL     1       0.776  10.619  18.360  0.00  0.00    +0.000 OA
ATOM     12  C   UNL     1       0.228  11.887  18.758  0.00  0.00    +0.000 C 
ATOM     13  C   UNL     1      -1.026  11.709  19.600  0.00  0.00    +0.000 C 
ATOM     14  O   UNL     1      -0.725  11.018  20.818  0.00  0.00    +0.000 OA
ENDBRANCH   3   5
BRANCH   1  15
ATOM     15  C   UNL     1       3.373   4.254  20.031  0.00  0.00    +0.000 C 
BRANCH  15  16
ATOM     16  O   UNL     1       3.565   3.967  18.653  0.00  0.00    +0.000 OA
BRANCH  16  23
ATOM     17  C   UNL     1       7.932   6.357  18.728  0.00  0.00    +0.000 C 
ATOM     18  C   UNL     1       6.880   5.538  18.038  0.00  0.00    +0.000 A 
ATOM     19  C   UNL     1       7.040   5.156  16.699  0.00  0.00    +0.000 A 
ATOM     20  C   UNL     1       6.051   4.413  16.047  0.00  0.00    +0.000 A 
ATOM     21  C   UNL     1       6.211   3.995  14.616  0.00  0.00    +0.000 C 
ATOM     22  C   UNL     1       4.897   4.050  16.751  0.00  0.00    +0.000 A 
ATOM     23  C   UNL     1       4.736   4.396  18.093  0.00  0.00    +0.000 A 
ATOM     24  C   UNL     1       5.719   5.156  18.730  0.00  0.00    +0.000 A 
ENDBRANCH  16  23
ENDBRANCH  15  16
ENDBRANCH   1  15
TORSDOF 4
ENDMDL
MODEL 8
REMARK VINA RESULT:      -7.6      3.935      7.348
REMARK  Name = 
REMARK  6 active torsions:
REMARK  status: ('A' for Active; 'I' for Inactive)
REMARK    1  A    between atoms: C_1  and  C_2
REMARK    2  A    between atoms: C_4  and  C_5
REMARK    3  A    between atoms: C_7  and  O_8
REMARK    4  A    between atoms: O_8  and  C_9
REMARK    5  A    between atoms: C_9  and  C_10
REMARK    6  A    between atoms: N_12  and  C_13
REMARK                            x       y       z     vdW  Elec       q    Type
REMARK                         _______ _______ _______ _____ _____    ______ ____
ROOT
ATOM      1  C   UNL     1       2.614   4.672  19.147  0.00  0.00    +0.000 C 
ATOM      2  O   UNL     1       1.529   4.496  18.586  0.00  0.00    +0.000 OA
ATOM      3  N   UNL     1       3.010   5.821  19.817  0.00  0.00    +0.000 N 
ATOM      4  H   UNL     1       3.833   5.758  20.399  0.00  0.00    +0.000 HD
ENDROOT
BRANCH   3   5
ATOM      5  C   UNL     1       2.214   6.990  19.942  0.00  0.00    +0.000 A 
ATOM      6  C   UNL     1       1.400   7.218  21.061  0.00  0.00    +0.000 A 
ATOM      7  C   UNL     1       0.677   8.398  21.188  0.00  0.00    +0.000 A 
ATOM      8  C   UNL     1       0.741   9.370  20.204  0.00  0.00    +0.000 A 
ATOM      9  C   UNL     1       1.543   9.158  19.074  0.00  0.00    +0.000 A 
ATOM     10  C   UNL     1       2.258   7.960  18.928  0.00  0.00    +0.000 A 
ATOM     11  O   UNL     1       1.666  10.091  18.068  0.00  0.00    +0.000 OA
ATOM     12  C   UNL     1       1.201  11.382  18.497  0.00  0.00    +0.000 C 
ATOM     13  C   UNL     1      -0.128  11.278  19.228  0.00  0.00    +0.000 C 
ATOM     14  O   UNL     1       0.010  10.500  20.423  0.00  0.00    +0.000 OA
ENDBRANCH   3   5
BRANCH   1  15
ATOM     15  C   UNL     1       3.623   3.529  19.172  0.00  0.00    +0.000 C 
BRANCH  15  16
ATOM     16  O   UNL     1       4.912   4.102  19.345  0.00  0.00    +0.000 OA
BRANCH  16  23
ATOM     17  C   UNL     1       6.124   3.951  14.519  0.00  0.00    +0.000 C 
ATOM     18  C   UNL     1       6.171   4.584  15.879  0.00  0.00    +0.000 A 
ATOM     19  C   UNL     1       6.905   5.759  16.092  0.00  0.00    +0.000 A 
ATOM     20  C   UNL     1       6.971   6.338  17.363  0.00  0.00    +0.000 A 
ATOM     21  C   UNL     1       7.749   7.597  17.603  0.00  0.00    +0.000 C 
ATOM     22  C   UNL     1       6.288   5.731  18.424  0.00  0.00    +0.000 A 
ATOM     23  C   UNL     1       5.529   4.578  18.222  0.00  0.00    +0.000 A 
ATOM     24  C   UNL     1       5.486   3.995  16.954  0.00  0.00    +0.000 A 
ENDBRANCH  16  23
ENDBRANCH  15  16
ENDBRANCH   1  15
TORSDOF 4
ENDMDL
MODEL 9
REMARK VINA RESULT:      -7.5      3.894      7.153
REMARK  Name = 
REMARK  6 active torsions:
REMARK  status: ('A' for Active; 'I' for Inactive)
REMARK    1  A    between atoms: C_1  and  C_2
REMARK    2  A    between atoms: C_4  and  C_5
REMARK    3  A    between atoms: C_7  and  O_8
REMARK    4  A    between atoms: O_8  and  C_9
REMARK    5  A    between atoms: C_9  and  C_10
REMARK    6  A    between atoms: N_12  and  C_13
REMARK                            x       y       z     vdW  Elec       q    Type
REMARK                         _______ _______ _______ _____ _____    ______ ____
ROOT
ATOM      1  C   UNL     1       3.057   4.730  19.635  0.00  0.00    +0.000 C 
ATOM      2  O   UNL     1       2.611   4.742  20.786  0.00  0.00    +0.000 OA
ATOM      3  N   UNL     1       3.010   5.782  18.731  0.00  0.00    +0.000 N 
ATOM      4  H   UNL     1       3.586   5.709  17.905  0.00  0.00    +0.000 HD
ENDROOT
BRANCH   3   5
ATOM      5  C   UNL     1       2.418   7.045  19.000  0.00  0.00    +0.000 A 
ATOM      6  C   UNL     1       2.240   8.010  17.999  0.00  0.00    +0.000 A 
ATOM      7  C   UNL     1       1.604   9.214  18.276  0.00  0.00    +0.000 A 
ATOM      8  C   UNL     1       1.139   9.486  19.552  0.00  0.00    +0.000 A 
ATOM      9  C   UNL     1       1.314   8.537  20.568  0.00  0.00    +0.000 A 
ATOM     10  C   UNL     1       1.975   7.329  20.302  0.00  0.00    +0.000 A 
ATOM     11  O   UNL     1       0.860   8.737  21.852  0.00  0.00    +0.000 OA
ATOM     12  C   UNL     1      -0.097   9.808  21.905  0.00  0.00    +0.000 C 
ATOM     13  C   UNL     1       0.377  11.014  21.110  0.00  0.00    +0.000 C 
ATOM     14  O   UNL     1       0.514  10.686  19.723  0.00  0.00    +0.000 OA
ENDBRANCH   3   5
BRANCH   1  15
ATOM     15  C   UNL     1       3.775   3.481  19.137  0.00  0.00    +0.000 C 
BRANCH  15  16
ATOM     16  O   UNL     1       5.169   3.692  19.315  0.00  0.00    +0.000 OA
BRANCH  16  23
ATOM     17  C   UNL     1       7.829   7.598  17.748  0.00  0.00    +0.000 C 
ATOM     18  C   UNL     1       7.096   6.310  17.508  0.00  0.00    +0.000 A 
ATOM     19  C   UNL     1       7.003   5.775  16.216  0.00  0.00    +0.000 A 
ATOM     20  C   UNL     1       6.302   4.588  15.985  0.00  0.00    +0.000 A 
ATOM     21  C   UNL     1       6.198   4.003  14.609  0.00  0.00    +0.000 C 
ATOM     22  C   UNL     1       5.695   3.935  17.066  0.00  0.00    +0.000 A 
ATOM     23  C   UNL     1       5.804   4.439  18.362  0.00  0.00    +0.000 A 
ATOM     24  C   UNL     1       6.488   5.636  18.579  0.00  0.00    +0.000 A 
ENDBRANCH  16  23
ENDBRANCH  15  16
ENDBRANCH   1  15
TORSDOF 4
ENDMDL
