MODEL 1
REMARK VINA RESULT:      -7.0      0.000      0.000
REMARK  Name = 
REMARK  3 active torsions:
REMARK  status: ('A' for Active; 'I' for Inactive)
REMARK    1  A    between atoms: C_2  and  C_3
REMARK    2  A    between atoms: N_6  and  S_7
REMARK    3  A    between atoms: S_7  and  N_10
REMARK                            x       y       z     vdW  Elec       q    Type
REMARK                         _______ _______ _______ _____ _____    ______ ____
ROOT
ATOM      1  C   UNL     1       0.893  10.381  18.893  0.00  0.00    +0.000 C 
ATOM      2  C   UNL     1       2.105  10.115  17.993  0.00  0.00    +0.000 C 
ATOM      3  C   UNL     1       2.402   8.631  17.800  0.00  0.00    +0.000 C 
ATOM      4  N   UNL     1       2.474   7.880  19.086  0.00  0.00    +0.000 NA
ATOM      5  C   UNL     1       1.404   8.195  20.070  0.00  0.00    +0.000 C 
ATOM      6  C   UNL     1       1.151   9.683  20.227  0.00  0.00    +0.000 C 
ENDROOT
BRANCH   1   8
ATOM      7  O   UNL     1      -0.448   9.306  17.198  0.00  0.00    +0.000 OA
ATOM      8  C   UNL     1      -0.441   9.988  18.223  0.00  0.00    +0.000 C 
ATOM      9  N   UNL     1      -1.621  10.452  18.775  0.00  0.00    +0.000 N 
ATOM     10  C   UNL     1      -2.908  10.031  18.202  0.00  0.00    +0.000 C 
ATOM     11  C   UNL     1      -3.788  11.245  17.879  0.00  0.00    +0.000 C 
ATOM     12  O   UNL     1      -3.954  12.084  19.034  0.00  0.00    +0.000 OA
ATOM     13  C   UNL     1      -2.684  12.560  19.497  0.00  0.00    +0.000 C 
ATOM     14  C   UNL     1      -1.765  11.400  19.887  0.00  0.00    +0.000 C 
ENDBRANCH   1   8
BRANCH   4  15
ATOM     15  S   UNL     1       2.542   6.185  18.838  0.00  0.00    +0.000 S 
ATOM     16  O   UNL     1       2.149   5.530  20.064  0.00  0.00    +0.000 OA
ATOM     17  O   UNL     1       1.881   5.878  17.591  0.00  0.00    +0.000 OA
BRANCH  15  18
ATOM     18  N   UNL     1       4.225   5.946  18.624  0.00  0.00    +0.000 NA
ATOM     19  C   UNL     1       4.541   4.520  18.279  0.00  0.00    +0.000 C 
ATOM     20  C   UNL     1       5.967   4.335  17.780  0.00  0.00    +0.000 C 
ATOM     21  C   UNL     1       6.178   5.251  16.583  0.00  0.00    +0.000 C 
ATOM     22  C   UNL     1       6.126   6.675  17.102  0.00  0.00    +0.000 C 
ATOM     23  C   UNL     1       4.755   6.980  17.676  0.00  0.00    +0.000 C 
ATOM     24  O   UNL     1       5.142   5.003  15.613  0.00  0.00    +0.000 OA
ATOM     25  C   UNL     1       5.757   4.111  14.686  0.00  0.00    +0.000 C 
ATOM     26  C   UNL     1       7.120   4.732  14.583  0.00  0.00    +0.000 C 
ATOM     27  O   UNL     1       7.448   5.000  15.957  0.00  0.00    +0.000 OA
ENDBRANCH  15  18
ENDBRANCH   4  15
TORSDOF 3
ENDMDL
MODEL 2
REMARK VINA RESULT:      -6.7      1.621      8.586
REMARK  Name = 
REMARK  3 active torsions:
REMARK  status: ('A' for Active; 'I' for Inactive)
REMARK    1  A    between atoms: C_2  and  C_3
REMARK    2  A    between atoms: N_6  and  S_7
REMARK    3  A    between atoms: S_7  and  N_10
REMARK                            x       y       z     vdW  Elec       q    Type
REMARK                         _______ _______ _______ _____ _____    ______ ____
ROOT
ATOM      1  C   UNL     1       6.416   5.051  17.052  0.00  0.00    +0.000 C 
ATOM      2  C   UNL     1       6.096   4.500  18.447  0.00  0.00    +0.000 C 
ATOM      3  C   UNL     1       4.650   4.731  18.872  0.00  0.00    +0.000 C 
ATOM      4  N   UNL     1       4.214   6.147  18.707  0.00  0.00    +0.000 NA
ATOM      5  C   UNL     1       4.615   6.794  17.429  0.00  0.00    +0.000 C 
ATOM      6  C   UNL     1       6.063   6.537  17.055  0.00  0.00    +0.000 C 
ENDROOT
BRANCH   1   8
ATOM      7  O   UNL     1       4.994   3.299  16.195  0.00  0.00    +0.000 OA
ATOM      8  C   UNL     1       5.738   4.243  15.926  0.00  0.00    +0.000 C 
ATOM      9  N   UNL     1       6.016   4.576  14.613  0.00  0.00    +0.000 N 
ATOM     10  C   UNL     1       5.325   3.873  13.522  0.00  0.00    +0.000 C 
ATOM     11  C   UNL     1       6.330   3.312  12.507  0.00  0.00    +0.000 C 
ATOM     12  O   UNL     1       7.206   4.344  12.023  0.00  0.00    +0.000 OA
ATOM     13  C   UNL     1       7.940   4.930  13.106  0.00  0.00    +0.000 C 
ATOM     14  C   UNL     1       6.999   5.558  14.138  0.00  0.00    +0.000 C 
ENDBRANCH   1   8
BRANCH   4  15
ATOM     15  S   UNL     1       2.524   6.331  18.934  0.00  0.00    +0.000 S 
ATOM     16  O   UNL     1       1.860   5.991  17.698  0.00  0.00    +0.000 OA
ATOM     17  O   UNL     1       2.156   5.688  20.174  0.00  0.00    +0.000 OA
BRANCH  15  18
ATOM     18  N   UNL     1       2.401   8.027  19.155  0.00  0.00    +0.000 NA
ATOM     19  C   UNL     1       2.123   8.733  17.859  0.00  0.00    +0.000 C 
ATOM     20  C   UNL     1       1.701  10.181  18.056  0.00  0.00    +0.000 C 
ATOM     21  C   UNL     1       0.483  10.206  18.969  0.00  0.00    +0.000 C 
ATOM     22  C   UNL     1       0.948   9.744  20.336  0.00  0.00    +0.000 C 
ATOM     23  C   UNL     1       1.443   8.312  20.272  0.00  0.00    +0.000 C 
ATOM     24  O   UNL     1      -0.527   9.331  18.429  0.00  0.00    +0.000 OA
ATOM     25  C   UNL     1      -1.390  10.215  17.717  0.00  0.00    +0.000 C 
ATOM     26  C   UNL     1      -1.449  11.364  18.681  0.00  0.00    +0.000 C 
ATOM     27  O   UNL     1      -0.071  11.530  19.057  0.00  0.00    +0.000 OA
ENDBRANCH  15  18
ENDBRANCH   4  15
TORSDOF 3
ENDMDL
MODEL 3
REMARK VINA RESULT:      -6.7      1.162      1.229
REMARK  Name = 
REMARK  3 active torsions:
REMARK  status: ('A' for Active; 'I' for Inactive)
REMARK    1  A    between atoms: C_2  and  C_3
REMARK    2  A    between atoms: N_6  and  S_7
REMARK    3  A    between atoms: S_7  and  N_10
REMARK                            x       y       z     vdW  Elec       q    Type
REMARK                         _______ _______ _______ _____ _____    ______ ____
ROOT
ATOM      1  C   UNL     1       1.564   9.674  18.782  0.00  0.00    +0.000 C 
ATOM      2  C   UNL     1       2.594   8.943  17.913  0.00  0.00    +0.000 C 
ATOM      3  C   UNL     1       2.450   7.425  17.952  0.00  0.00    +0.000 C 
ATOM      4  N   UNL     1       2.389   6.881  19.338  0.00  0.00    +0.000 NA
ATOM      5  C   UNL     1       1.513   7.630  20.279  0.00  0.00    +0.000 C 
ATOM      6  C   UNL     1       1.699   9.135  20.203  0.00  0.00    +0.000 C 
ENDROOT
BRANCH   1   8
ATOM      7  O   UNL     1      -0.085   8.954  17.173  0.00  0.00    +0.000 OA
ATOM      8  C   UNL     1       0.135   9.587  18.206  0.00  0.00    +0.000 C 
ATOM      9  N   UNL     1      -0.881  10.267  18.852  0.00  0.00    +0.000 N 
ATOM     10  C   UNL     1      -2.264  10.140  18.369  0.00  0.00    +0.000 C 
ATOM     11  C   UNL     1      -2.893  11.519  18.133  0.00  0.00    +0.000 C 
ATOM     12  O   UNL     1      -2.799  12.338  19.311  0.00  0.00    +0.000 OA
ATOM     13  C   UNL     1      -1.429  12.526  19.685  0.00  0.00    +0.000 C 
ATOM     14  C   UNL     1      -0.747  11.189  19.987  0.00  0.00    +0.000 C 
ENDBRANCH   1   8
BRANCH   4  15
ATOM     15  S   UNL     1       1.962   5.221  19.361  0.00  0.00    +0.000 S 
ATOM     16  O   UNL     1       1.537   4.878  20.698  0.00  0.00    +0.000 OA
ATOM     17  O   UNL     1       1.114   4.951  18.223  0.00  0.00    +0.000 OA
BRANCH  15  18
ATOM     18  N   UNL     1       3.483   4.482  19.081  0.00  0.00    +0.000 NA
ATOM     19  C   UNL     1       3.498   3.724  17.785  0.00  0.00    +0.000 C 
ATOM     20  C   UNL     1       4.901   3.322  17.354  0.00  0.00    +0.000 C 
ATOM     21  C   UNL     1       5.754   4.580  17.267  0.00  0.00    +0.000 C 
ATOM     22  C   UNL     1       5.915   5.102  18.681  0.00  0.00    +0.000 C 
ATOM     23  C   UNL     1       4.568   5.502  19.254  0.00  0.00    +0.000 C 
ATOM     24  O   UNL     1       5.093   5.539  16.419  0.00  0.00    +0.000 OA
ATOM     25  C   UNL     1       5.725   5.359  15.154  0.00  0.00    +0.000 C 
ATOM     26  C   UNL     1       7.153   5.199  15.589  0.00  0.00    +0.000 C 
ATOM     27  O   UNL     1       7.044   4.291  16.699  0.00  0.00    +0.000 OA
ENDBRANCH  15  18
ENDBRANCH   4  15
TORSDOF 3
ENDMDL
MODEL 4
REMARK VINA RESULT:      -6.6      3.485      9.926
REMARK  Name = 
REMARK  3 active torsions:
REMARK  status: ('A' for Active; 'I' for Inactive)
REMARK    1  A    between atoms: C_2  and  C_3
REMARK    2  A    between atoms: N_6  and  S_7
REMARK    3  A    between atoms: S_7  and  N_10
REMARK                            x       y       z     vdW  Elec       q    Type
REMARK                         _______ _______ _______ _____ _____    ______ ____
ROOT
ATOM      1  C   UNL     1       1.095   8.065  21.548  0.00  0.00    +0.000 C 
ATOM      2  C   UNL     1      -0.438   8.096  21.516  0.00  0.00    +0.000 C 
ATOM      3  C   UNL     1      -1.004   9.312  20.789  0.00  0.00    +0.000 C 
ATOM      4  N   UNL     1      -0.420  10.598  21.265  0.00  0.00    +0.000 NA
ATOM      5  C   UNL     1       1.055  10.598  21.456  0.00  0.00    +0.000 C 
ATOM      6  C   UNL     1       1.566   9.369  22.187  0.00  0.00    +0.000 C 
ENDROOT
BRANCH   1   8
ATOM      7  O   UNL     1       1.764   8.671  19.309  0.00  0.00    +0.000 OA
ATOM      8  C   UNL     1       1.711   7.783  20.160  0.00  0.00    +0.000 C 
ATOM      9  N   UNL     1       2.163   6.506  19.885  0.00  0.00    +0.000 N 
ATOM     10  C   UNL     1       2.823   6.229  18.601  0.00  0.00    +0.000 C 
ATOM     11  C   UNL     1       2.169   5.035  17.893  0.00  0.00    +0.000 C 
ATOM     12  O   UNL     1       2.136   3.881  18.750  0.00  0.00    +0.000 OA
ATOM     13  C   UNL     1       1.392   4.161  19.942  0.00  0.00    +0.000 C 
ATOM     14  C   UNL     1       2.018   5.315  20.730  0.00  0.00    +0.000 C 
ENDBRANCH   1   8
BRANCH   4  15
ATOM     15  S   UNL     1      -0.866  11.917  20.264  0.00  0.00    +0.000 S 
ATOM     16  O   UNL     1       0.339  12.576  19.817  0.00  0.00    +0.000 OA
ATOM     17  O   UNL     1      -1.855  11.458  19.317  0.00  0.00    +0.000 OA
BRANCH  15  18
ATOM     18  N   UNL     1      -1.645  12.944  21.394  0.00  0.00    +0.000 NA
ATOM     19  C   UNL     1      -2.737  13.747  20.749  0.00  0.00    +0.000 C 
ATOM     20  C   UNL     1      -3.646  14.428  21.762  0.00  0.00    +0.000 C 
ATOM     21  C   UNL     1      -4.218  13.361  22.686  0.00  0.00    +0.000 C 
ATOM     22  C   UNL     1      -3.060  12.817  23.501  0.00  0.00    +0.000 C 
ATOM     23  C   UNL     1      -2.046  12.144  22.597  0.00  0.00    +0.000 C 
ATOM     24  O   UNL     1      -4.835  12.331  21.889  0.00  0.00    +0.000 OA
ATOM     25  C   UNL     1      -6.216  12.684  21.898  0.00  0.00    +0.000 C 
ATOM     26  C   UNL     1      -6.378  13.094  23.333  0.00  0.00    +0.000 C 
ATOM     27  O   UNL     1      -5.218  13.915  23.558  0.00  0.00    +0.000 OA
ENDBRANCH  15  18
ENDBRANCH   4  15
TORSDOF 3
ENDMDL
MODEL 5
REMARK VINA RESULT:      -6.6      6.984     10.559
REMARK  Name = 
REMARK  3 active torsions:
REMARK  status: ('A' for Active; 'I' for Inactive)
REMARK    1  A    between atoms: C_2  and  C_3
REMARK    2  A    between atoms: N_6  and  S_7
REMARK    3  A    between atoms: S_7  and  N_10
REMARK                            x       y       z     vdW  Elec       q    Type
REMARK                         _______ _______ _______ _____ _____    ______ ____
ROOT
ATOM      1  C   UNL     1       8.287  15.586  19.692  0.00  0.00    +0.000 C 
ATOM      2  C   UNL     1       7.475  15.385  20.977  0.00  0.00    +0.000 C 
ATOM      3  C   UNL     1       5.967  15.463  20.758  0.00  0.00    +0.000 C 
ATOM      4  N   UNL     1       5.549  16.680  20.007  0.00  0.00    +0.000 NA
ATOM      5  C   UNL     1       6.384  17.017  18.823  0.00  0.00    +0.000 C 
ATOM      6  C   UNL     1       7.875  16.929  19.095  0.00  0.00    +0.000 C 
ENDROOT
BRANCH   1   8
ATOM      7  O   UNL     1       7.184  14.302  17.971  0.00  0.00    +0.000 OA
ATOM      8  C   UNL     1       8.158  14.395  18.718  0.00  0.00    +0.000 C 
ATOM      9  N   UNL     1       9.137  13.420  18.733  0.00  0.00    +0.000 N 
ATOM     10  C   UNL     1       9.080  12.315  17.764  0.00  0.00    +0.000 C 
ATOM     11  C   UNL     1       9.170  10.958  18.472  0.00  0.00    +0.000 C 
ATOM     12  O   UNL     1      10.337  10.888  19.309  0.00  0.00    +0.000 OA
ATOM     13  C   UNL     1      10.301  11.915  20.308  0.00  0.00    +0.000 C 
ATOM     14  C   UNL     1      10.261  13.308  19.671  0.00  0.00    +0.000 C 
ENDBRANCH   1   8
BRANCH   4  15
ATOM     15  S   UNL     1       3.900  16.616  19.543  0.00  0.00    +0.000 S 
ATOM     16  O   UNL     1       3.115  17.271  20.562  0.00  0.00    +0.000 OA
ATOM     17  O   UNL     1       3.799  17.016  18.158  0.00  0.00    +0.000 OA
BRANCH  15  18
ATOM     18  N   UNL     1       3.593  14.932  19.636  0.00  0.00    +0.000 NA
ATOM     19  C   UNL     1       2.556  14.618  20.676  0.00  0.00    +0.000 C 
ATOM     20  C   UNL     1       2.034  13.192  20.575  0.00  0.00    +0.000 C 
ATOM     21  C   UNL     1       1.488  12.980  19.170  0.00  0.00    +0.000 C 
ATOM     22  C   UNL     1       2.672  13.031  18.224  0.00  0.00    +0.000 C 
ATOM     23  C   UNL     1       3.320  14.402  18.261  0.00  0.00    +0.000 C 
ATOM     24  O   UNL     1       0.530  14.016  18.877  0.00  0.00    +0.000 OA
ATOM     25  C   UNL     1      -0.725  13.400  19.157  0.00  0.00    +0.000 C 
ATOM     26  C   UNL     1      -0.490  12.037  18.574  0.00  0.00    +0.000 C 
ATOM     27  O   UNL     1       0.823  11.709  19.060  0.00  0.00    +0.000 OA
ENDBRANCH  15  18
ENDBRANCH   4  15
TORSDOF 3
ENDMDL
MODEL 6
REMARK VINA RESULT:      -6.4      2.606      3.775
REMARK  Name = 
REMARK  3 active torsions:
REMARK  status: ('A' for Active; 'I' for Inactive)
REMARK    1  A    between atoms: C_2  and  C_3
REMARK    2  A    between atoms: N_6  and  S_7
REMARK    3  A    between atoms: S_7  and  N_10
REMARK                            x       y       z     vdW  Elec       q    Type
REMARK                         _______ _______ _______ _____ _____    ______ ____
ROOT
ATOM      1  C   UNL     1      -0.775  12.121  21.157  0.00  0.00    +0.000 C 
ATOM      2  C   UNL     1       0.532  12.678  20.582  0.00  0.00    +0.000 C 
ATOM      3  C   UNL     1       1.046  11.895  19.378  0.00  0.00    +0.000 C 
ATOM      4  N   UNL     1       1.114  10.427  19.624  0.00  0.00    +0.000 NA
ATOM      5  C   UNL     1      -0.067   9.839  20.311  0.00  0.00    +0.000 C 
ATOM      6  C   UNL     1      -0.535  10.654  21.503  0.00  0.00    +0.000 C 
ENDROOT
BRANCH   1   8
ATOM      7  O   UNL     1      -1.830  12.395  19.003  0.00  0.00    +0.000 OA
ATOM      8  C   UNL     1      -1.982  12.361  20.224  0.00  0.00    +0.000 C 
ATOM      9  N   UNL     1      -3.224  12.575  20.792  0.00  0.00    +0.000 N 
ATOM     10  C   UNL     1      -4.403  12.729  19.927  0.00  0.00    +0.000 C 
ATOM     11  C   UNL     1      -5.172  14.012  20.269  0.00  0.00    +0.000 C 
ATOM     12  O   UNL     1      -5.511  14.054  21.665  0.00  0.00    +0.000 OA
ATOM     13  C   UNL     1      -4.327  14.009  22.472  0.00  0.00    +0.000 C 
ATOM     14  C   UNL     1      -3.531  12.726  22.220  0.00  0.00    +0.000 C 
ENDBRANCH   1   8
BRANCH   4  15
ATOM     15  S   UNL     1       1.435   9.547  18.188  0.00  0.00    +0.000 S 
ATOM     16  O   UNL     1       0.214   8.902  17.767  0.00  0.00    +0.000 OA
ATOM     17  O   UNL     1       2.171  10.400  17.284  0.00  0.00    +0.000 OA
BRANCH  15  18
ATOM     18  N   UNL     1       2.502   8.338  18.769  0.00  0.00    +0.000 NA
ATOM     19  C   UNL     1       1.790   7.349  19.645  0.00  0.00    +0.000 C 
ATOM     20  C   UNL     1       2.619   6.103  19.922  0.00  0.00    +0.000 C 
ATOM     21  C   UNL     1       3.007   5.479  18.588  0.00  0.00    +0.000 C 
ATOM     22  C   UNL     1       3.963   6.443  17.913  0.00  0.00    +0.000 C 
ATOM     23  C   UNL     1       3.268   7.759  17.618  0.00  0.00    +0.000 C 
ATOM     24  O   UNL     1       1.818   5.273  17.802  0.00  0.00    +0.000 OA
ATOM     25  C   UNL     1       1.498   3.903  18.032  0.00  0.00    +0.000 C 
ATOM     26  C   UNL     1       2.869   3.296  17.981  0.00  0.00    +0.000 C 
ATOM     27  O   UNL     1       3.646   4.205  18.780  0.00  0.00    +0.000 OA
ENDBRANCH  15  18
ENDBRANCH   4  15
TORSDOF 3
ENDMDL
MODEL 7
REMARK VINA RESULT:      -6.4      3.729     10.396
REMARK  Name = 
REMARK  3 active torsions:
REMARK  status: ('A' for Active; 'I' for Inactive)
REMARK    1  A    between atoms: C_2  and  C_3
REMARK    2  A    between atoms: N_6  and  S_7
REMARK    3  A    between atoms: S_7  and  N_10
REMARK                            x       y       z     vdW  Elec       q    Type
REMARK                         _______ _______ _______ _____ _____    ______ ____
ROOT
ATOM      1  C   UNL     1       1.014  10.038  18.754  0.00  0.00    +0.000 C 
ATOM      2  C   UNL     1       1.741  11.321  19.172  0.00  0.00    +0.000 C 
ATOM      3  C   UNL     1       1.295  11.855  20.529  0.00  0.00    +0.000 C 
ATOM      4  N   UNL     1      -0.186  11.978  20.648  0.00  0.00    +0.000 NA
ATOM      5  C   UNL     1      -0.966  10.822  20.129  0.00  0.00    +0.000 C 
ATOM      6  C   UNL     1      -0.484  10.332  18.775  0.00  0.00    +0.000 C 
ENDROOT
BRANCH   1   8
ATOM      7  O   UNL     1       1.277   8.826  20.825  0.00  0.00    +0.000 OA
ATOM      8  C   UNL     1       1.430   8.817  19.604  0.00  0.00    +0.000 C 
ATOM      9  N   UNL     1       2.011   7.736  18.968  0.00  0.00    +0.000 N 
ATOM     10  C   UNL     1       2.347   6.531  19.741  0.00  0.00    +0.000 C 
ATOM     11  C   UNL     1       3.812   6.130  19.525  0.00  0.00    +0.000 C 
ATOM     12  O   UNL     1       4.105   5.979  18.126  0.00  0.00    +0.000 OA
ATOM     13  C   UNL     1       3.867   7.208  17.427  0.00  0.00    +0.000 C 
ATOM     14  C   UNL     1       2.405   7.646  17.557  0.00  0.00    +0.000 C 
ENDBRANCH   1   8
BRANCH   4  15
ATOM     15  S   UNL     1      -0.676  12.321  22.255  0.00  0.00    +0.000 S 
ATOM     16  O   UNL     1      -0.490  11.132  23.052  0.00  0.00    +0.000 OA
ATOM     17  O   UNL     1      -0.088  13.579  22.653  0.00  0.00    +0.000 OA
BRANCH  15  18
ATOM     18  N   UNL     1      -2.361  12.561  22.045  0.00  0.00    +0.000 NA
ATOM     19  C   UNL     1      -3.096  12.480  23.351  0.00  0.00    +0.000 C 
ATOM     20  C   UNL     1      -4.527  12.990  23.254  0.00  0.00    +0.000 C 
ATOM     21  C   UNL     1      -4.491  14.419  22.730  0.00  0.00    +0.000 C 
ATOM     22  C   UNL     1      -4.003  14.351  21.296  0.00  0.00    +0.000 C 
ATOM     23  C   UNL     1      -2.586  13.809  21.244  0.00  0.00    +0.000 C 
ATOM     24  O   UNL     1      -3.606  15.201  23.555  0.00  0.00    +0.000 OA
ATOM     25  C   UNL     1      -4.486  15.853  24.467  0.00  0.00    +0.000 C 
ATOM     26  C   UNL     1      -5.605  16.226  23.538  0.00  0.00    +0.000 C 
ATOM     27  O   UNL     1      -5.797  15.020  22.778  0.00  0.00    +0.000 OA
ENDBRANCH  15  18
ENDBRANCH   4  15
TORSDOF 3
ENDMDL
MODEL 8
REMARK VINA RESULT:      -6.4      3.919      8.579
REMARK  Name = 
REMARK  3 active torsions:
REMARK  status: ('A' for Active; 'I' for Inactive)
REMARK    1  A    between atoms: C_2  and  C_3
REMARK    2  A    between atoms: N_6  and  S_7
REMARK    3  A    between atoms: S_7  and  N_10
REMARK                            x       y       z     vdW  Elec       q    Type
REMARK                         _______ _______ _______ _____ _____    ______ ____
ROOT
ATOM      1  C   UNL     1       1.436   9.304  17.964  0.00  0.00    +0.000 C 
ATOM      2  C   UNL     1       2.179  10.627  18.188  0.00  0.00    +0.000 C 
ATOM      3  C   UNL     1       1.670  11.410  19.394  0.00  0.00    +0.000 C 
ATOM      4  N   UNL     1       0.189  11.583  19.393  0.00  0.00    +0.000 NA
ATOM      5  C   UNL     1      -0.595  10.368  19.042  0.00  0.00    +0.000 C 
ATOM      6  C   UNL     1      -0.050   9.629  17.834  0.00  0.00    +0.000 C 
ENDROOT
BRANCH   1   8
ATOM      7  O   UNL     1       1.487   8.466  20.227  0.00  0.00    +0.000 OA
ATOM      8  C   UNL     1       1.761   8.252  19.046  0.00  0.00    +0.000 C 
ATOM      9  N   UNL     1       2.399   7.086  18.664  0.00  0.00    +0.000 N 
ATOM     10  C   UNL     1       2.651   6.035  19.661  0.00  0.00    +0.000 C 
ATOM     11  C   UNL     1       4.128   5.622  19.662  0.00  0.00    +0.000 C 
ATOM     12  O   UNL     1       4.559   5.239  18.345  0.00  0.00    +0.000 OA
ATOM     13  C   UNL     1       4.397   6.328  17.427  0.00  0.00    +0.000 C 
ATOM     14  C   UNL     1       2.931   6.763  17.335  0.00  0.00    +0.000 C 
ENDBRANCH   1   8
BRANCH   4  15
ATOM     15  S   UNL     1      -0.385  12.225  20.875  0.00  0.00    +0.000 S 
ATOM     16  O   UNL     1      -1.798  11.944  20.975  0.00  0.00    +0.000 OA
ATOM     17  O   UNL     1       0.524  11.833  21.927  0.00  0.00    +0.000 OA
BRANCH  15  18
ATOM     18  N   UNL     1      -0.197  13.907  20.605  0.00  0.00    +0.000 NA
ATOM     19  C   UNL     1       1.146  14.393  21.067  0.00  0.00    +0.000 C 
ATOM     20  C   UNL     1       1.471  15.793  20.568  0.00  0.00    +0.000 C 
ATOM     21  C   UNL     1       1.378  15.793  19.048  0.00  0.00    +0.000 C 
ATOM     22  C   UNL     1      -0.081  15.580  18.696  0.00  0.00    +0.000 C 
ATOM     23  C   UNL     1      -0.551  14.223  19.183  0.00  0.00    +0.000 C 
ATOM     24  O   UNL     1       2.209  14.738  18.527  0.00  0.00    +0.000 OA
ATOM     25  C   UNL     1       3.418  15.407  18.175  0.00  0.00    +0.000 C 
ATOM     26  C   UNL     1       2.862  16.660  17.564  0.00  0.00    +0.000 C 
ATOM     27  O   UNL     1       1.841  17.041  18.502  0.00  0.00    +0.000 OA
ENDBRANCH  15  18
ENDBRANCH   4  15
TORSDOF 3
ENDMDL
MODEL 9
REMARK VINA RESULT:      -6.3      9.274     10.427
REMARK  Name = 
REMARK  3 active torsions:
REMARK  status: ('A' for Active; 'I' for Inactive)
REMARK    1  A    between atoms: C_2  and  C_3
REMARK    2  A    between atoms: N_6  and  S_7
REMARK    3  A    between atoms: S_7  and  N_10
REMARK                            x       y       z     vdW  Elec       q    Type
REMARK                         _______ _______ _______ _____ _____    ______ ____
ROOT
ATOM      1  C   UNL     1       7.919  11.844  24.628  0.00  0.00    +0.000 C 
ATOM      2  C   UNL     1       8.344  13.262  25.026  0.00  0.00    +0.000 C 
ATOM      3  C   UNL     1       7.815  14.339  24.084  0.00  0.00    +0.000 C 
ATOM      4  N   UNL     1       8.093  14.045  22.649  0.00  0.00    +0.000 NA
ATOM      5  C   UNL     1       7.837  12.642  22.224  0.00  0.00    +0.000 C 
ATOM      6  C   UNL     1       8.386  11.611  23.194  0.00  0.00    +0.000 C 
ENDROOT
BRANCH   1   8
ATOM      7  O   UNL     1       5.596  11.871  23.973  0.00  0.00    +0.000 OA
ATOM      8  C   UNL     1       6.412  11.592  24.851  0.00  0.00    +0.000 C 
ATOM      9  N   UNL     1       6.000  11.086  26.070  0.00  0.00    +0.000 N 
ATOM     10  C   UNL     1       4.580  10.765  26.281  0.00  0.00    +0.000 C 
ATOM     11  C   UNL     1       4.047  11.442  27.550  0.00  0.00    +0.000 C 
ATOM     12  O   UNL     1       4.857  11.111  28.691  0.00  0.00    +0.000 OA
ATOM     13  C   UNL     1       6.211  11.537  28.488  0.00  0.00    +0.000 C 
ATOM     14  C   UNL     1       6.828  10.860  27.261  0.00  0.00    +0.000 C 
ENDBRANCH   1   8
BRANCH   4  15
ATOM     15  S   UNL     1       7.266  15.119  21.600  0.00  0.00    +0.000 S 
ATOM     16  O   UNL     1       6.165  14.406  20.994  0.00  0.00    +0.000 OA
ATOM     17  O   UNL     1       7.047  16.364  22.299  0.00  0.00    +0.000 OA
BRANCH  15  18
ATOM     18  N   UNL     1       8.454  15.386  20.393  0.00  0.00    +0.000 NA
ATOM     19  C   UNL     1       9.835  15.103  20.907  0.00  0.00    +0.000 C 
ATOM     20  C   UNL     1      10.873  15.025  19.796  0.00  0.00    +0.000 C 
ATOM     21  C   UNL     1      10.429  13.964  18.799  0.00  0.00    +0.000 C 
ATOM     22  C   UNL     1       9.175  14.489  18.127  0.00  0.00    +0.000 C 
ATOM     23  C   UNL     1       8.060  14.658  19.142  0.00  0.00    +0.000 C 
ATOM     24  O   UNL     1      10.177  12.733  19.503  0.00  0.00    +0.000 OA
ATOM     25  C   UNL     1      11.383  11.994  19.327  0.00  0.00    +0.000 C 
ATOM     26  C   UNL     1      11.677  12.301  17.888  0.00  0.00    +0.000 C 
ATOM     27  O   UNL     1      11.449  13.719  17.816  0.00  0.00    +0.000 OA
ENDBRANCH  15  18
ENDBRANCH   4  15
TORSDOF 3
ENDMDL
