MODEL 1
REMARK VINA RESULT:      -7.6      0.000      0.000
REMARK  Name = 
REMARK  3 active torsions:
REMARK  status: ('A' for Active; 'I' for Inactive)
REMARK    1  A    between atoms: C_2  and  C_15
REMARK    2  A    between atoms: N_3  and  C_4
REMARK    3  A    between atoms: C_4  and  N_6
REMARK                            x       y       z     vdW  Elec       q    Type
REMARK                         _______ _______ _______ _____ _____    ______ ____
ROOT
ATOM      1  O   UNL     1       7.789   4.569  15.989  0.00  0.00    +0.000 OA
ATOM      2  C   UNL     1       6.891   5.022  15.284  0.00  0.00    +0.000 C 
ATOM      3  N   UNL     1       6.113   6.117  15.628  0.00  0.00    +0.000 N 
ATOM      4  H   UNL     1       5.476   6.466  14.927  0.00  0.00    +0.000 HD
ENDROOT
BRANCH   2   5
ATOM      5  C   UNL     1       6.776   4.485  13.903  0.00  0.00    +0.000 A 
ATOM      6  C   UNL     1       5.715   3.581  13.689  0.00  0.00    +0.000 A 
ATOM      7  C   UNL     1       5.441   3.083  12.416  0.00  0.00    +0.000 A 
ATOM      8  C   UNL     1       6.219   3.484  11.338  0.00  0.00    +0.000 A 
ATOM      9  C   UNL     1       7.288   4.361  11.539  0.00  0.00    +0.000 A 
ATOM     10  C   UNL     1       7.575   4.858  12.819  0.00  0.00    +0.000 A 
ATOM     11 CL   UNL     1       8.910   5.945  12.957  0.00  0.00    +0.000 Cl
ENDBRANCH   2   5
BRANCH   3  12
ATOM     12  C   UNL     1       5.900   6.674  16.888  0.00  0.00    +0.000 C 
ATOM     13  S   UNL     1       7.100   7.457  17.775  0.00  0.00    +0.000 S 
BRANCH  12  14
ATOM     14  N   UNL     1       4.608   6.480  17.385  0.00  0.00    +0.000 N 
ATOM     15  C   UNL     1       3.648   7.587  17.625  0.00  0.00    +0.000 C 
ATOM     16  C   UNL     1       2.416   6.991  18.305  0.00  0.00    +0.000 C 
ATOM     17  C   UNL     1       2.625   5.530  18.079  0.00  0.00    +0.000 A 
ATOM     18  C   UNL     1       1.722   4.511  18.351  0.00  0.00    +0.000 A 
ATOM     19  C   UNL     1       2.110   3.196  18.100  0.00  0.00    +0.000 A 
ATOM     20  C   UNL     1       3.373   2.924  17.561  0.00  0.00    +0.000 A 
ATOM     21  C   UNL     1       4.266   3.962  17.272  0.00  0.00    +0.000 A 
ATOM     22  C   UNL     1       3.899   5.266  17.566  0.00  0.00    +0.000 A 
ENDBRANCH  12  14
ENDBRANCH   3  12
TORSDOF 3
ENDMDL
MODEL 2
REMARK VINA RESULT:      -7.3      3.599      7.263
REMARK  Name = 
REMARK  3 active torsions:
REMARK  status: ('A' for Active; 'I' for Inactive)
REMARK    1  A    between atoms: C_2  and  C_15
REMARK    2  A    between atoms: N_3  and  C_4
REMARK    3  A    between atoms: C_4  and  N_6
REMARK                            x       y       z     vdW  Elec       q    Type
REMARK                         _______ _______ _______ _____ _____    ______ ____
ROOT
ATOM      1  O   UNL     1       2.243   6.648  17.899  0.00  0.00    +0.000 OA
ATOM      2  C   UNL     1       2.444   6.785  19.102  0.00  0.00    +0.000 C 
ATOM      3  N   UNL     1       3.414   6.092  19.811  0.00  0.00    +0.000 N 
ATOM      4  H   UNL     1       3.560   6.362  20.774  0.00  0.00    +0.000 HD
ENDROOT
BRANCH   2   5
ATOM      5  C   UNL     1       1.739   7.902  19.785  0.00  0.00    +0.000 A 
ATOM      6  C   UNL     1       1.358   7.655  21.119  0.00  0.00    +0.000 A 
ATOM      7  C   UNL     1       0.778   8.655  21.898  0.00  0.00    +0.000 A 
ATOM      8  C   UNL     1       0.575   9.919  21.356  0.00  0.00    +0.000 A 
ATOM      9  C   UNL     1       0.927  10.171  20.029  0.00  0.00    +0.000 A 
ATOM     10  C   UNL     1       1.502   9.165  19.237  0.00  0.00    +0.000 A 
ATOM     11 CL   UNL     1       1.910   9.584  17.611  0.00  0.00    +0.000 Cl
ENDBRANCH   2   5
BRANCH   3  12
ATOM     12  C   UNL     1       4.065   4.908  19.468  0.00  0.00    +0.000 C 
ATOM     13  S   UNL     1       3.506   3.380  19.905  0.00  0.00    +0.000 S 
BRANCH  12  14
ATOM     14  N   UNL     1       5.261   5.096  18.770  0.00  0.00    +0.000 N 
ATOM     15  C   UNL     1       6.551   5.427  19.427  0.00  0.00    +0.000 C 
ATOM     16  C   UNL     1       7.574   5.699  18.325  0.00  0.00    +0.000 C 
ATOM     17  C   UNL     1       6.874   5.155  17.124  0.00  0.00    +0.000 A 
ATOM     18  C   UNL     1       7.411   4.993  15.854  0.00  0.00    +0.000 A 
ATOM     19  C   UNL     1       6.589   4.496  14.845  0.00  0.00    +0.000 A 
ATOM     20  C   UNL     1       5.263   4.145  15.123  0.00  0.00    +0.000 A 
ATOM     21  C   UNL     1       4.740   4.294  16.413  0.00  0.00    +0.000 A 
ATOM     22  C   UNL     1       5.543   4.834  17.406  0.00  0.00    +0.000 A 
ENDBRANCH  12  14
ENDBRANCH   3  12
TORSDOF 3
ENDMDL
MODEL 3
REMARK VINA RESULT:      -7.1      1.324      1.408
REMARK  Name = 
REMARK  3 active torsions:
REMARK  status: ('A' for Active; 'I' for Inactive)
REMARK    1  A    between atoms: C_2  and  C_15
REMARK    2  A    between atoms: N_3  and  C_4
REMARK    3  A    between atoms: C_4  and  N_6
REMARK                            x       y       z     vdW  Elec       q    Type
REMARK                         _______ _______ _______ _____ _____    ______ ____
ROOT
ATOM      1  O   UNL     1       5.590   6.407  15.003  0.00  0.00    +0.000 OA
ATOM      2  C   UNL     1       5.943   5.235  15.098  0.00  0.00    +0.000 C 
ATOM      3  N   UNL     1       5.898   4.504  16.275  0.00  0.00    +0.000 N 
ATOM      4  H   UNL     1       6.115   3.519  16.212  0.00  0.00    +0.000 HD
ENDROOT
BRANCH   2   5
ATOM      5  C   UNL     1       6.246   4.513  13.833  0.00  0.00    +0.000 A 
ATOM      6  C   UNL     1       5.283   3.566  13.429  0.00  0.00    +0.000 A 
ATOM      7  C   UNL     1       5.401   2.895  12.213  0.00  0.00    +0.000 A 
ATOM      8  C   UNL     1       6.482   3.164  11.381  0.00  0.00    +0.000 A 
ATOM      9  C   UNL     1       7.455   4.082  11.779  0.00  0.00    +0.000 A 
ATOM     10  C   UNL     1       7.346   4.754  13.007  0.00  0.00    +0.000 A 
ATOM     11 CL   UNL     1       8.598   5.878  13.399  0.00  0.00    +0.000 Cl
ENDBRANCH   2   5
BRANCH   3  12
ATOM     12  C   UNL     1       5.828   4.968  17.587  0.00  0.00    +0.000 C 
ATOM     13  S   UNL     1       7.184   5.338  18.516  0.00  0.00    +0.000 S 
BRANCH  12  14
ATOM     14  N   UNL     1       4.528   5.053  18.094  0.00  0.00    +0.000 N 
ATOM     15  C   UNL     1       3.799   6.334  18.270  0.00  0.00    +0.000 C 
ATOM     16  C   UNL     1       2.483   6.022  18.983  0.00  0.00    +0.000 C 
ATOM     17  C   UNL     1       2.408   4.537  18.840  0.00  0.00    +0.000 A 
ATOM     18  C   UNL     1       1.331   3.726  19.169  0.00  0.00    +0.000 A 
ATOM     19  C   UNL     1       1.459   2.350  18.993  0.00  0.00    +0.000 A 
ATOM     20  C   UNL     1       2.642   1.812  18.470  0.00  0.00    +0.000 A 
ATOM     21  C   UNL     1       3.713   2.643  18.124  0.00  0.00    +0.000 A 
ATOM     22  C   UNL     1       3.603   4.007  18.343  0.00  0.00    +0.000 A 
ENDBRANCH  12  14
ENDBRANCH   3  12
TORSDOF 3
ENDMDL
MODEL 4
REMARK VINA RESULT:      -7.1      3.392      5.050
REMARK  Name = 
REMARK  3 active torsions:
REMARK  status: ('A' for Active; 'I' for Inactive)
REMARK    1  A    between atoms: C_2  and  C_15
REMARK    2  A    between atoms: N_3  and  C_4
REMARK    3  A    between atoms: C_4  and  N_6
REMARK                            x       y       z     vdW  Elec       q    Type
REMARK                         _______ _______ _______ _____ _____    ______ ____
ROOT
ATOM      1  O   UNL     1       5.205   5.313  19.692  0.00  0.00    +0.000 OA
ATOM      2  C   UNL     1       4.696   5.548  18.600  0.00  0.00    +0.000 C 
ATOM      3  N   UNL     1       3.535   6.286  18.428  0.00  0.00    +0.000 N 
ATOM      4  H   UNL     1       3.267   6.504  17.479  0.00  0.00    +0.000 HD
ENDROOT
BRANCH   2   5
ATOM      5  C   UNL     1       5.486   5.189  17.393  0.00  0.00    +0.000 A 
ATOM      6  C   UNL     1       4.836   4.343  16.471  0.00  0.00    +0.000 A 
ATOM      7  C   UNL     1       5.431   4.013  15.254  0.00  0.00    +0.000 A 
ATOM      8  C   UNL     1       6.683   4.527  14.939  0.00  0.00    +0.000 A 
ATOM      9  C   UNL     1       7.349   5.346  15.853  0.00  0.00    +0.000 A 
ATOM     10  C   UNL     1       6.759   5.675  17.083  0.00  0.00    +0.000 A 
ATOM     11 CL   UNL     1       7.662   6.704  18.136  0.00  0.00    +0.000 Cl
ENDBRANCH   2   5
BRANCH   3  12
ATOM     12  C   UNL     1       2.540   6.575  19.360  0.00  0.00    +0.000 C 
ATOM     13  S   UNL     1       1.959   5.457  20.479  0.00  0.00    +0.000 S 
BRANCH  12  14
ATOM     14  N   UNL     1       2.019   7.868  19.255  0.00  0.00    +0.000 N 
ATOM     15  C   UNL     1       1.888   8.597  17.967  0.00  0.00    +0.000 C 
ATOM     16  C   UNL     1       1.425  10.018  18.287  0.00  0.00    +0.000 C 
ATOM     17  C   UNL     1       0.988   9.879  19.708  0.00  0.00    +0.000 A 
ATOM     18  C   UNL     1       0.323  10.833  20.468  0.00  0.00    +0.000 A 
ATOM     19  C   UNL     1       0.024  10.532  21.795  0.00  0.00    +0.000 A 
ATOM     20  C   UNL     1       0.365   9.285  22.331  0.00  0.00    +0.000 A 
ATOM     21  C   UNL     1       1.017   8.325  21.548  0.00  0.00    +0.000 A 
ATOM     22  C   UNL     1       1.358   8.641  20.242  0.00  0.00    +0.000 A 
ENDBRANCH  12  14
ENDBRANCH   3  12
TORSDOF 3
ENDMDL
MODEL 5
REMARK VINA RESULT:      -6.9      4.583      7.550
REMARK  Name = 
REMARK  3 active torsions:
REMARK  status: ('A' for Active; 'I' for Inactive)
REMARK    1  A    between atoms: C_2  and  C_15
REMARK    2  A    between atoms: N_3  and  C_4
REMARK    3  A    between atoms: C_4  and  N_6
REMARK                            x       y       z     vdW  Elec       q    Type
REMARK                         _______ _______ _______ _____ _____    ______ ____
ROOT
ATOM      1  O   UNL     1       1.949   8.812  17.486  0.00  0.00    +0.000 OA
ATOM      2  C   UNL     1       1.963   8.264  18.584  0.00  0.00    +0.000 C 
ATOM      3  N   UNL     1       2.813   7.220  18.918  0.00  0.00    +0.000 N 
ATOM      4  H   UNL     1       2.810   6.917  19.882  0.00  0.00    +0.000 HD
ENDROOT
BRANCH   2   5
ATOM      5  C   UNL     1       1.164   8.894  19.667  0.00  0.00    +0.000 A 
ATOM      6  C   UNL     1       1.555   8.565  20.982  0.00  0.00    +0.000 A 
ATOM      7  C   UNL     1       0.949   9.166  22.084  0.00  0.00    +0.000 A 
ATOM      8  C   UNL     1      -0.053  10.109  21.889  0.00  0.00    +0.000 A 
ATOM      9  C   UNL     1      -0.466  10.428  20.594  0.00  0.00    +0.000 A 
ATOM     10  C   UNL     1       0.134   9.819  19.480  0.00  0.00    +0.000 A 
ATOM     11 CL   UNL     1      -0.444  10.292  17.923  0.00  0.00    +0.000 Cl
ENDBRANCH   2   5
BRANCH   3  12
ATOM     12  C   UNL     1       3.506   6.356  18.073  0.00  0.00    +0.000 C 
ATOM     13  S   UNL     1       4.703   6.863  17.001  0.00  0.00    +0.000 S 
BRANCH  12  14
ATOM     14  N   UNL     1       3.085   5.025  18.150  0.00  0.00    +0.000 N 
ATOM     15  C   UNL     1       3.282   4.039  17.057  0.00  0.00    +0.000 C 
ATOM     16  C   UNL     1       2.558   2.754  17.460  0.00  0.00    +0.000 C 
ATOM     17  C   UNL     1       2.304   2.994  18.911  0.00  0.00    +0.000 A 
ATOM     18  C   UNL     1       1.809   2.077  19.829  0.00  0.00    +0.000 A 
ATOM     19  C   UNL     1       1.608   2.496  21.143  0.00  0.00    +0.000 A 
ATOM     20  C   UNL     1       1.927   3.805  21.523  0.00  0.00    +0.000 A 
ATOM     21  C   UNL     1       2.445   4.714  20.593  0.00  0.00    +0.000 A 
ATOM     22  C   UNL     1       2.600   4.311  19.275  0.00  0.00    +0.000 A 
ENDBRANCH  12  14
ENDBRANCH   3  12
TORSDOF 3
ENDMDL
MODEL 6
REMARK VINA RESULT:      -6.8      1.352      2.102
REMARK  Name = 
REMARK  3 active torsions:
REMARK  status: ('A' for Active; 'I' for Inactive)
REMARK    1  A    between atoms: C_2  and  C_15
REMARK    2  A    between atoms: N_3  and  C_4
REMARK    3  A    between atoms: C_4  and  N_6
REMARK                            x       y       z     vdW  Elec       q    Type
REMARK                         _______ _______ _______ _____ _____    ______ ____
ROOT
ATOM      1  O   UNL     1       7.871   4.269  16.202  0.00  0.00    +0.000 OA
ATOM      2  C   UNL     1       7.135   4.966  15.509  0.00  0.00    +0.000 C 
ATOM      3  N   UNL     1       6.690   6.227  15.875  0.00  0.00    +0.000 N 
ATOM      4  H   UNL     1       6.174   6.751  15.182  0.00  0.00    +0.000 HD
ENDROOT
BRANCH   2   5
ATOM      5  C   UNL     1       6.877   4.505  14.119  0.00  0.00    +0.000 A 
ATOM      6  C   UNL     1       5.763   3.655  13.958  0.00  0.00    +0.000 A 
ATOM      7  C   UNL     1       5.358   3.234  12.692  0.00  0.00    +0.000 A 
ATOM      8  C   UNL     1       6.056   3.660  11.569  0.00  0.00    +0.000 A 
ATOM      9  C   UNL     1       7.175   4.483  11.716  0.00  0.00    +0.000 A 
ATOM     10  C   UNL     1       7.593   4.903  12.988  0.00  0.00    +0.000 A 
ATOM     11 CL   UNL     1       8.981   5.928  13.058  0.00  0.00    +0.000 Cl
ENDBRANCH   2   5
BRANCH   3  12
ATOM     12  C   UNL     1       6.638   6.798  17.145  0.00  0.00    +0.000 C 
ATOM     13  S   UNL     1       7.679   8.018  17.660  0.00  0.00    +0.000 S 
BRANCH  12  14
ATOM     14  N   UNL     1       5.673   6.233  17.985  0.00  0.00    +0.000 N 
ATOM     15  C   UNL     1       5.981   5.205  19.011  0.00  0.00    +0.000 C 
ATOM     16  C   UNL     1       4.654   4.737  19.608  0.00  0.00    +0.000 C 
ATOM     17  C   UNL     1       3.717   5.793  19.122  0.00  0.00    +0.000 A 
ATOM     18  C   UNL     1       2.391   5.961  19.498  0.00  0.00    +0.000 A 
ATOM     19  C   UNL     1       1.661   6.992  18.910  0.00  0.00    +0.000 A 
ATOM     20  C   UNL     1       2.269   7.849  17.985  0.00  0.00    +0.000 A 
ATOM     21  C   UNL     1       3.612   7.682  17.631  0.00  0.00    +0.000 A 
ATOM     22  C   UNL     1       4.325   6.626  18.179  0.00  0.00    +0.000 A 
ENDBRANCH  12  14
ENDBRANCH   3  12
TORSDOF 3
ENDMDL
MODEL 7
REMARK VINA RESULT:      -6.8      2.394      3.269
REMARK  Name = 
REMARK  3 active torsions:
REMARK  status: ('A' for Active; 'I' for Inactive)
REMARK    1  A    between atoms: C_2  and  C_15
REMARK    2  A    between atoms: N_3  and  C_4
REMARK    3  A    between atoms: C_4  and  N_6
REMARK                            x       y       z     vdW  Elec       q    Type
REMARK                         _______ _______ _______ _____ _____    ______ ____
ROOT
ATOM      1  O   UNL     1       5.109   5.753  18.855  0.00  0.00    +0.000 OA
ATOM      2  C   UNL     1       4.758   5.960  17.697  0.00  0.00    +0.000 C 
ATOM      3  N   UNL     1       3.722   6.810  17.340  0.00  0.00    +0.000 N 
ATOM      4  H   UNL     1       3.590   6.984  16.353  0.00  0.00    +0.000 HD
ENDROOT
BRANCH   2   5
ATOM      5  C   UNL     1       5.627   5.420  16.618  0.00  0.00    +0.000 A 
ATOM      6  C   UNL     1       5.044   4.423  15.809  0.00  0.00    +0.000 A 
ATOM      7  C   UNL     1       5.719   3.907  14.704  0.00  0.00    +0.000 A 
ATOM      8  C   UNL     1       6.986   4.383  14.388  0.00  0.00    +0.000 A 
ATOM      9  C   UNL     1       7.586   5.353  15.194  0.00  0.00    +0.000 A 
ATOM     10  C   UNL     1       6.914   5.870  16.313  0.00  0.00    +0.000 A 
ATOM     11 CL   UNL     1       7.740   7.074  17.236  0.00  0.00    +0.000 Cl
ENDBRANCH   2   5
BRANCH   3  12
ATOM     12  C   UNL     1       2.673   7.282  18.126  0.00  0.00    +0.000 C 
ATOM     13  S   UNL     1       2.009   8.822  17.964  0.00  0.00    +0.000 S 
BRANCH  12  14
ATOM     14  N   UNL     1       2.245   6.382  19.107  0.00  0.00    +0.000 N 
ATOM     15  C   UNL     1       1.953   6.776  20.508  0.00  0.00    +0.000 C 
ATOM     16  C   UNL     1       1.665   5.498  21.296  0.00  0.00    +0.000 C 
ATOM     17  C   UNL     1       1.471   4.505  20.198  0.00  0.00    +0.000 A 
ATOM     18  C   UNL     1       1.024   3.197  20.332  0.00  0.00    +0.000 A 
ATOM     19  C   UNL     1       0.935   2.407  19.188  0.00  0.00    +0.000 A 
ATOM     20  C   UNL     1       1.264   2.937  17.935  0.00  0.00    +0.000 A 
ATOM     21  C   UNL     1       1.693   4.263  17.811  0.00  0.00    +0.000 A 
ATOM     22  C   UNL     1       1.828   5.036  18.955  0.00  0.00    +0.000 A 
ENDBRANCH  12  14
ENDBRANCH   3  12
TORSDOF 3
ENDMDL
MODEL 8
REMARK VINA RESULT:      -6.7      3.891      7.226
REMARK  Name = 
REMARK  3 active torsions:
REMARK  status: ('A' for Active; 'I' for Inactive)
REMARK    1  A    between atoms: C_2  and  C_15
REMARK    2  A    between atoms: N_3  and  C_4
REMARK    3  A    between atoms: C_4  and  N_6
REMARK                            x       y       z     vdW  Elec       q    Type
REMARK                         _______ _______ _______ _____ _____    ______ ____
ROOT
ATOM      1  O   UNL     1       2.257   6.867  17.451  0.00  0.00    +0.000 OA
ATOM      2  C   UNL     1       2.499   7.240  18.596  0.00  0.00    +0.000 C 
ATOM      3  N   UNL     1       3.421   6.631  19.432  0.00  0.00    +0.000 N 
ATOM      4  H   UNL     1       3.614   7.086  20.313  0.00  0.00    +0.000 HD
ENDROOT
BRANCH   2   5
ATOM      5  C   UNL     1       1.911   8.537  19.024  0.00  0.00    +0.000 A 
ATOM      6  C   UNL     1       2.040   9.597  18.102  0.00  0.00    +0.000 A 
ATOM      7  C   UNL     1       1.446  10.834  18.343  0.00  0.00    +0.000 A 
ATOM      8  C   UNL     1       0.711  11.031  19.506  0.00  0.00    +0.000 A 
ATOM      9  C   UNL     1       0.595   9.998  20.438  0.00  0.00    +0.000 A 
ATOM     10  C   UNL     1       1.199   8.752  20.206  0.00  0.00    +0.000 A 
ATOM     11 CL   UNL     1       0.985   7.540  21.417  0.00  0.00    +0.000 Cl
ENDBRANCH   2   5
BRANCH   3  12
ATOM     12  C   UNL     1       3.957   5.347  19.350  0.00  0.00    +0.000 C 
ATOM     13  S   UNL     1       3.212   3.984  20.004  0.00  0.00    +0.000 S 
BRANCH  12  14
ATOM     14  N   UNL     1       5.204   5.288  18.721  0.00  0.00    +0.000 N 
ATOM     15  C   UNL     1       6.495   5.403  19.446  0.00  0.00    +0.000 C 
ATOM     16  C   UNL     1       7.609   5.443  18.401  0.00  0.00    +0.000 C 
ATOM     17  C   UNL     1       6.887   4.992  17.174  0.00  0.00    +0.000 A 
ATOM     18  C   UNL     1       7.454   4.689  15.943  0.00  0.00    +0.000 A 
ATOM     19  C   UNL     1       6.611   4.312  14.900  0.00  0.00    +0.000 A 
ATOM     20  C   UNL     1       5.229   4.219  15.107  0.00  0.00    +0.000 A 
ATOM     21  C   UNL     1       4.673   4.508  16.358  0.00  0.00    +0.000 A 
ATOM     22  C   UNL     1       5.506   4.930  17.383  0.00  0.00    +0.000 A 
ENDBRANCH  12  14
ENDBRANCH   3  12
TORSDOF 3
ENDMDL
MODEL 9
REMARK VINA RESULT:      -6.7      3.573      7.202
REMARK  Name = 
REMARK  3 active torsions:
REMARK  status: ('A' for Active; 'I' for Inactive)
REMARK    1  A    between atoms: C_2  and  C_15
REMARK    2  A    between atoms: N_3  and  C_4
REMARK    3  A    between atoms: C_4  and  N_6
REMARK                            x       y       z     vdW  Elec       q    Type
REMARK                         _______ _______ _______ _____ _____    ______ ____
ROOT
ATOM      1  O   UNL     1       2.460   5.514  20.994  0.00  0.00    +0.000 OA
ATOM      2  C   UNL     1       2.255   6.120  19.946  0.00  0.00    +0.000 C 
ATOM      3  N   UNL     1       2.382   5.557  18.686  0.00  0.00    +0.000 N 
ATOM      4  H   UNL     1       2.087   6.118  17.900  0.00  0.00    +0.000 HD
ENDROOT
BRANCH   2   5
ATOM      5  C   UNL     1       1.644   7.472  20.053  0.00  0.00    +0.000 A 
ATOM      6  C   UNL     1       0.940   7.727  21.248  0.00  0.00    +0.000 A 
ATOM      7  C   UNL     1       0.406   8.988  21.512  0.00  0.00    +0.000 A 
ATOM      8  C   UNL     1       0.572  10.012  20.588  0.00  0.00    +0.000 A 
ATOM      9  C   UNL     1       1.247   9.767  19.390  0.00  0.00    +0.000 A 
ATOM     10  C   UNL     1       1.779   8.498  19.115  0.00  0.00    +0.000 A 
ATOM     11 CL   UNL     1       2.605   8.304  17.611  0.00  0.00    +0.000 Cl
ENDBRANCH   2   5
BRANCH   3  12
ATOM     12  C   UNL     1       3.083   4.412  18.310  0.00  0.00    +0.000 C 
ATOM     13  S   UNL     1       2.377   2.886  18.191  0.00  0.00    +0.000 S 
BRANCH  12  14
ATOM     14  N   UNL     1       4.446   4.625  18.088  0.00  0.00    +0.000 N 
ATOM     15  C   UNL     1       5.450   4.717  19.178  0.00  0.00    +0.000 C 
ATOM     16  C   UNL     1       6.786   5.102  18.544  0.00  0.00    +0.000 C 
ATOM     17  C   UNL     1       6.515   4.854  17.097  0.00  0.00    +0.000 A 
ATOM     18  C   UNL     1       7.441   4.887  16.062  0.00  0.00    +0.000 A 
ATOM     19  C   UNL     1       6.992   4.658  14.763  0.00  0.00    +0.000 A 
ATOM     20  C   UNL     1       5.642   4.375  14.522  0.00  0.00    +0.000 A 
ATOM     21  C   UNL     1       4.723   4.324  15.576  0.00  0.00    +0.000 A 
ATOM     22  C   UNL     1       5.160   4.600  16.863  0.00  0.00    +0.000 A 
ENDBRANCH  12  14
ENDBRANCH   3  12
TORSDOF 3
ENDMDL
