MODEL 1
REMARK VINA RESULT:      -7.9      0.000      0.000
REMARK  Name = 
REMARK  3 active torsions:
REMARK  status: ('A' for Active; 'I' for Inactive)
REMARK    1  A    between atoms: C_1  and  N_2
REMARK    2  A    between atoms: C_16  and  O_17
REMARK    3  A    between atoms: C_18  and  O_19
REMARK                            x       y       z     vdW  Elec       q    Type
REMARK                         _______ _______ _______ _____ _____    ______ ____
ROOT
ATOM      1  C   UNL     1       1.309   2.760  20.884  0.00  0.00    +0.000 C 
ATOM      2  N   UNL     1       2.413   3.335  20.087  0.00  0.00    +0.000 NA
ATOM      3  C   UNL     1       2.672   2.425  18.959  0.00  0.00    +0.000 C 
ATOM      4  C   UNL     1       3.928   2.837  18.206  0.00  0.00    +0.000 C 
ATOM      5  C   UNL     1       3.905   4.291  17.851  0.00  0.00    +0.000 A 
ATOM      6  C   UNL     1       4.777   4.749  16.857  0.00  0.00    +0.000 A 
ATOM      7  C   UNL     1       4.789   6.091  16.499  0.00  0.00    +0.000 A 
ATOM      8  C   UNL     1       3.959   7.000  17.148  0.00  0.00    +0.000 A 
ATOM      9  C   UNL     1       3.080   6.582  18.173  0.00  0.00    +0.000 A 
ATOM     10  C   UNL     1       3.044   5.196  18.510  0.00  0.00    +0.000 A 
ATOM     11  C   UNL     1       2.082   4.709  19.602  0.00  0.00    +0.000 C 
ATOM     12  C   UNL     1       2.156   5.732  20.746  0.00  0.00    +0.000 C 
ATOM     13  C   UNL     1       1.774   7.103  20.237  0.00  0.00    +0.000 A 
ATOM     14  C   UNL     1       0.992   7.942  21.044  0.00  0.00    +0.000 A 
ATOM     15  C   UNL     1       0.686   9.233  20.628  0.00  0.00    +0.000 A 
ATOM     16  C   UNL     1       1.145   9.705  19.397  0.00  0.00    +0.000 A 
ATOM     17  C   UNL     1       1.914   8.872  18.557  0.00  0.00    +0.000 A 
ATOM     18  C   UNL     1       2.245   7.549  18.975  0.00  0.00    +0.000 A 
ENDROOT
BRANCH  16  19
ATOM     19  O   UNL     1       0.848  10.965  19.007  0.00  0.00    +0.000 OA
ATOM     20  H   UNL     1      -0.032  11.349  19.124  0.00  0.00    +0.000 HD
ENDBRANCH  16  19
BRANCH  17  21
ATOM     21  O   UNL     1       2.313   9.341  17.357  0.00  0.00    +0.000 OA
ATOM     22  H   UNL     1       2.250  10.272  17.099  0.00  0.00    +0.000 HD
ENDBRANCH  17  21
TORSDOF 2
ENDMDL
MODEL 2
REMARK VINA RESULT:      -7.6      2.230      5.060
REMARK  Name = 
REMARK  3 active torsions:
REMARK  status: ('A' for Active; 'I' for Inactive)
REMARK    1  A    between atoms: C_1  and  N_2
REMARK    2  A    between atoms: C_16  and  O_17
REMARK    3  A    between atoms: C_18  and  O_19
REMARK                            x       y       z     vdW  Elec       q    Type
REMARK                         _______ _______ _______ _____ _____    ______ ____
ROOT
ATOM      1  C   UNL     1       2.931   2.340  20.695  0.00  0.00    +0.000 C 
ATOM      2  N   UNL     1       2.468   3.618  20.115  0.00  0.00    +0.000 NA
ATOM      3  C   UNL     1       2.182   4.537  21.230  0.00  0.00    +0.000 C 
ATOM      4  C   UNL     1       1.505   5.805  20.730  0.00  0.00    +0.000 C 
ATOM      5  C   UNL     1       2.255   6.414  19.585  0.00  0.00    +0.000 A 
ATOM      6  C   UNL     1       1.997   7.749  19.255  0.00  0.00    +0.000 A 
ATOM      7  C   UNL     1       2.668   8.351  18.199  0.00  0.00    +0.000 A 
ATOM      8  C   UNL     1       3.580   7.625  17.438  0.00  0.00    +0.000 A 
ATOM      9  C   UNL     1       3.852   6.268  17.726  0.00  0.00    +0.000 A 
ATOM     10  C   UNL     1       3.189   5.665  18.835  0.00  0.00    +0.000 A 
ATOM     11  C   UNL     1       3.483   4.201  19.186  0.00  0.00    +0.000 C 
ATOM     12  C   UNL     1       3.528   3.427  17.860  0.00  0.00    +0.000 C 
ATOM     13  C   UNL     1       4.592   4.009  16.959  0.00  0.00    +0.000 A 
ATOM     14  C   UNL     1       5.387   3.148  16.189  0.00  0.00    +0.000 A 
ATOM     15  C   UNL     1       6.326   3.662  15.301  0.00  0.00    +0.000 A 
ATOM     16  C   UNL     1       6.495   5.042  15.174  0.00  0.00    +0.000 A 
ATOM     17  C   UNL     1       5.724   5.928  15.955  0.00  0.00    +0.000 A 
ATOM     18  C   UNL     1       4.750   5.417  16.862  0.00  0.00    +0.000 A 
ENDROOT
BRANCH  16  19
ATOM     19  O   UNL     1       7.404   5.530  14.302  0.00  0.00    +0.000 OA
ATOM     20  H   UNL     1       7.345   6.425  13.938  0.00  0.00    +0.000 HD
ENDBRANCH  16  19
BRANCH  17  21
ATOM     21  O   UNL     1       5.934   7.256  15.839  0.00  0.00    +0.000 OA
ATOM     22  H   UNL     1       6.799   7.673  15.963  0.00  0.00    +0.000 HD
ENDBRANCH  17  21
TORSDOF 2
ENDMDL
MODEL 3
REMARK VINA RESULT:      -7.4      1.767      3.509
REMARK  Name = 
REMARK  3 active torsions:
REMARK  status: ('A' for Active; 'I' for Inactive)
REMARK    1  A    between atoms: C_1  and  N_2
REMARK    2  A    between atoms: C_16  and  O_17
REMARK    3  A    between atoms: C_18  and  O_19
REMARK                            x       y       z     vdW  Elec       q    Type
REMARK                         _______ _______ _______ _____ _____    ______ ____
ROOT
ATOM      1  C   UNL     1       6.188   6.207  16.647  0.00  0.00    +0.000 C 
ATOM      2  N   UNL     1       5.149   5.447  17.374  0.00  0.00    +0.000 NA
ATOM      3  C   UNL     1       5.830   4.433  18.197  0.00  0.00    +0.000 C 
ATOM      4  C   UNL     1       4.826   3.474  18.819  0.00  0.00    +0.000 C 
ATOM      5  C   UNL     1       3.719   4.209  19.509  0.00  0.00    +0.000 A 
ATOM      6  C   UNL     1       2.933   3.513  20.435  0.00  0.00    +0.000 A 
ATOM      7  C   UNL     1       1.894   4.155  21.095  0.00  0.00    +0.000 A 
ATOM      8  C   UNL     1       1.602   5.488  20.821  0.00  0.00    +0.000 A 
ATOM      9  C   UNL     1       2.358   6.220  19.876  0.00  0.00    +0.000 A 
ATOM     10  C   UNL     1       3.449   5.567  19.229  0.00  0.00    +0.000 A 
ATOM     11  C   UNL     1       4.302   6.343  18.218  0.00  0.00    +0.000 C 
ATOM     12  C   UNL     1       3.331   7.162  17.353  0.00  0.00    +0.000 C 
ATOM     13  C   UNL     1       2.520   8.089  18.228  0.00  0.00    +0.000 A 
ATOM     14  C   UNL     1       2.240   9.388  17.778  0.00  0.00    +0.000 A 
ATOM     15  C   UNL     1       1.438  10.237  18.532  0.00  0.00    +0.000 A 
ATOM     16  C   UNL     1       0.910   9.810  19.752  0.00  0.00    +0.000 A 
ATOM     17  C   UNL     1       1.196   8.516  20.237  0.00  0.00    +0.000 A 
ATOM     18  C   UNL     1       2.009   7.631  19.470  0.00  0.00    +0.000 A 
ENDROOT
BRANCH  16  19
ATOM     19  O   UNL     1       0.125  10.641  20.472  0.00  0.00    +0.000 OA
ATOM     20  H   UNL     1      -0.387  11.353  20.063  0.00  0.00    +0.000 HD
ENDBRANCH  16  19
BRANCH  17  21
ATOM     21  O   UNL     1       0.704   8.143  21.437  0.00  0.00    +0.000 OA
ATOM     22  H   UNL     1      -0.203   7.834  21.570  0.00  0.00    +0.000 HD
ENDBRANCH  17  21
TORSDOF 2
ENDMDL
MODEL 4
REMARK VINA RESULT:      -7.3      3.152      5.323
REMARK  Name = 
REMARK  3 active torsions:
REMARK  status: ('A' for Active; 'I' for Inactive)
REMARK    1  A    between atoms: C_1  and  N_2
REMARK    2  A    between atoms: C_16  and  O_17
REMARK    3  A    between atoms: C_18  and  O_19
REMARK                            x       y       z     vdW  Elec       q    Type
REMARK                         _______ _______ _______ _____ _____    ______ ____
ROOT
ATOM      1  C   UNL     1       1.890   7.386  20.403  0.00  0.00    +0.000 C 
ATOM      2  N   UNL     1       2.185   5.939  20.344  0.00  0.00    +0.000 NA
ATOM      3  C   UNL     1       0.899   5.221  20.307  0.00  0.00    +0.000 C 
ATOM      4  C   UNL     1       1.109   3.722  20.452  0.00  0.00    +0.000 C 
ATOM      5  C   UNL     1       2.143   3.215  19.495  0.00  0.00    +0.000 A 
ATOM      6  C   UNL     1       2.192   1.842  19.232  0.00  0.00    +0.000 A 
ATOM      7  C   UNL     1       3.137   1.330  18.352  0.00  0.00    +0.000 A 
ATOM      8  C   UNL     1       4.065   2.173  17.747  0.00  0.00    +0.000 A 
ATOM      9  C   UNL     1       4.063   3.563  18.004  0.00  0.00    +0.000 A 
ATOM     10  C   UNL     1       3.067   4.089  18.878  0.00  0.00    +0.000 A 
ATOM     11  C   UNL     1       3.024   5.597  19.155  0.00  0.00    +0.000 C 
ATOM     12  C   UNL     1       4.478   6.052  19.356  0.00  0.00    +0.000 C 
ATOM     13  C   UNL     1       5.292   5.734  18.123  0.00  0.00    +0.000 A 
ATOM     14  C   UNL     1       6.252   6.654  17.677  0.00  0.00    +0.000 A 
ATOM     15  C   UNL     1       7.061   6.355  16.587  0.00  0.00    +0.000 A 
ATOM     16  C   UNL     1       6.921   5.138  15.917  0.00  0.00    +0.000 A 
ATOM     17  C   UNL     1       5.947   4.205  16.333  0.00  0.00    +0.000 A 
ATOM     18  C   UNL     1       5.117   4.494  17.455  0.00  0.00    +0.000 A 
ENDROOT
BRANCH  16  19
ATOM     19  O   UNL     1       7.719   4.854  14.865  0.00  0.00    +0.000 OA
ATOM     20  H   UNL     1       8.639   5.150  14.818  0.00  0.00    +0.000 HD
ENDBRANCH  16  19
BRANCH  17  21
ATOM     21  O   UNL     1       5.808   3.053  15.644  0.00  0.00    +0.000 OA
ATOM     22  H   UNL     1       5.719   3.013  14.681  0.00  0.00    +0.000 HD
ENDBRANCH  17  21
TORSDOF 2
ENDMDL
MODEL 5
REMARK VINA RESULT:      -7.3      2.901      5.243
REMARK  Name = 
REMARK  3 active torsions:
REMARK  status: ('A' for Active; 'I' for Inactive)
REMARK    1  A    between atoms: C_1  and  N_2
REMARK    2  A    between atoms: C_16  and  O_17
REMARK    3  A    between atoms: C_18  and  O_19
REMARK                            x       y       z     vdW  Elec       q    Type
REMARK                         _______ _______ _______ _____ _____    ______ ____
ROOT
ATOM      1  C   UNL     1       6.415   3.739  15.677  0.00  0.00    +0.000 C 
ATOM      2  N   UNL     1       5.843   4.933  16.334  0.00  0.00    +0.000 NA
ATOM      3  C   UNL     1       5.320   5.817  15.279  0.00  0.00    +0.000 C 
ATOM      4  C   UNL     1       4.899   7.161  15.856  0.00  0.00    +0.000 C 
ATOM      5  C   UNL     1       4.001   6.994  17.042  0.00  0.00    +0.000 A 
ATOM      6  C   UNL     1       3.234   8.088  17.457  0.00  0.00    +0.000 A 
ATOM      7  C   UNL     1       2.390   7.976  18.555  0.00  0.00    +0.000 A 
ATOM      8  C   UNL     1       2.323   6.786  19.273  0.00  0.00    +0.000 A 
ATOM      9  C   UNL     1       3.099   5.665  18.900  0.00  0.00    +0.000 A 
ATOM     10  C   UNL     1       3.935   5.772  17.749  0.00  0.00    +0.000 A 
ATOM     11  C   UNL     1       4.770   4.564  17.306  0.00  0.00    +0.000 C 
ATOM     12  C   UNL     1       5.366   3.945  18.580  0.00  0.00    +0.000 C 
ATOM     13  C   UNL     1       4.257   3.542  19.524  0.00  0.00    +0.000 A 
ATOM     14  C   UNL     1       4.369   2.342  20.243  0.00  0.00    +0.000 A 
ATOM     15  C   UNL     1       3.396   1.983  21.169  0.00  0.00    +0.000 A 
ATOM     16  C   UNL     1       2.290   2.807  21.386  0.00  0.00    +0.000 A 
ATOM     17  C   UNL     1       2.144   4.007  20.659  0.00  0.00    +0.000 A 
ATOM     18  C   UNL     1       3.138   4.394  19.713  0.00  0.00    +0.000 A 
ENDROOT
BRANCH  16  19
ATOM     19  O   UNL     1       1.356   2.452  22.295  0.00  0.00    +0.000 OA
ATOM     20  H   UNL     1       0.552   2.971  22.441  0.00  0.00    +0.000 HD
ENDBRANCH  16  19
BRANCH  17  21
ATOM     21  O   UNL     1       1.046   4.766  20.862  0.00  0.00    +0.000 OA
ATOM     22  H   UNL     1       0.143   4.443  20.735  0.00  0.00    +0.000 HD
ENDBRANCH  17  21
TORSDOF 2
ENDMDL
MODEL 6
REMARK VINA RESULT:      -7.1      3.427      7.093
REMARK  Name = 
REMARK  3 active torsions:
REMARK  status: ('A' for Active; 'I' for Inactive)
REMARK    1  A    between atoms: C_1  and  N_2
REMARK    2  A    between atoms: C_16  and  O_17
REMARK    3  A    between atoms: C_18  and  O_19
REMARK                            x       y       z     vdW  Elec       q    Type
REMARK                         _______ _______ _______ _____ _____    ______ ____
ROOT
ATOM      1  C   UNL     1      -1.507  12.235  17.674  0.00  0.00    +0.000 C 
ATOM      2  N   UNL     1      -1.060  12.014  19.066  0.00  0.00    +0.000 NA
ATOM      3  C   UNL     1      -2.234  12.158  19.942  0.00  0.00    +0.000 C 
ATOM      4  C   UNL     1      -1.825  12.149  21.407  0.00  0.00    +0.000 C 
ATOM      5  C   UNL     1      -0.940  10.983  21.723  0.00  0.00    +0.000 A 
ATOM      6  C   UNL     1      -0.780  10.612  23.063  0.00  0.00    +0.000 A 
ATOM      7  C   UNL     1       0.033   9.538  23.400  0.00  0.00    +0.000 A 
ATOM      8  C   UNL     1       0.723   8.839  22.413  0.00  0.00    +0.000 A 
ATOM      9  C   UNL     1       0.605   9.196  21.051  0.00  0.00    +0.000 A 
ATOM     10  C   UNL     1      -0.261  10.276  20.706  0.00  0.00    +0.000 A 
ATOM     11  C   UNL     1      -0.428  10.670  19.232  0.00  0.00    +0.000 C 
ATOM     12  C   UNL     1       0.973  10.635  18.603  0.00  0.00    +0.000 C 
ATOM     13  C   UNL     1       1.569   9.254  18.747  0.00  0.00    +0.000 A 
ATOM     14  C   UNL     1       2.309   8.711  17.687  0.00  0.00    +0.000 A 
ATOM     15  C   UNL     1       2.925   7.472  17.821  0.00  0.00    +0.000 A 
ATOM     16  C   UNL     1       2.805   6.748  19.009  0.00  0.00    +0.000 A 
ATOM     17  C   UNL     1       2.046   7.263  20.081  0.00  0.00    +0.000 A 
ATOM     18  C   UNL     1       1.417   8.537  19.963  0.00  0.00    +0.000 A 
ENDROOT
BRANCH  16  19
ATOM     19  O   UNL     1       3.415   5.549  19.131  0.00  0.00    +0.000 OA
ATOM     20  H   UNL     1       3.399   4.886  18.426  0.00  0.00    +0.000 HD
ENDBRANCH  16  19
BRANCH  17  21
ATOM     21  O   UNL     1       1.915   6.526  21.204  0.00  0.00    +0.000 OA
ATOM     22  H   UNL     1       2.378   5.689  21.351  0.00  0.00    +0.000 HD
ENDBRANCH  17  21
TORSDOF 2
ENDMDL
MODEL 7
REMARK VINA RESULT:      -7.1      2.962      5.230
REMARK  Name = 
REMARK  3 active torsions:
REMARK  status: ('A' for Active; 'I' for Inactive)
REMARK    1  A    between atoms: C_1  and  N_2
REMARK    2  A    between atoms: C_16  and  O_17
REMARK    3  A    between atoms: C_18  and  O_19
REMARK                            x       y       z     vdW  Elec       q    Type
REMARK                         _______ _______ _______ _____ _____    ______ ____
ROOT
ATOM      1  C   UNL     1       0.293   8.040  21.769  0.00  0.00    +0.000 C 
ATOM      2  N   UNL     1       0.847   7.867  20.409  0.00  0.00    +0.000 NA
ATOM      3  C   UNL     1       1.386   9.168  19.978  0.00  0.00    +0.000 C 
ATOM      4  C   UNL     1       1.790   9.129  18.511  0.00  0.00    +0.000 C 
ATOM      5  C   UNL     1       2.666   7.952  18.213  0.00  0.00    +0.000 A 
ATOM      6  C   UNL     1       3.421   7.965  17.035  0.00  0.00    +0.000 A 
ATOM      7  C   UNL     1       4.245   6.892  16.719  0.00  0.00    +0.000 A 
ATOM      8  C   UNL     1       4.304   5.780  17.554  0.00  0.00    +0.000 A 
ATOM      9  C   UNL     1       3.540   5.719  18.742  0.00  0.00    +0.000 A 
ATOM     10  C   UNL     1       2.725   6.839  19.081  0.00  0.00    +0.000 A 
ATOM     11  C   UNL     1       1.904   6.811  20.377  0.00  0.00    +0.000 C 
ATOM     12  C   UNL     1       1.287   5.408  20.481  0.00  0.00    +0.000 C 
ATOM     13  C   UNL     1       2.380   4.364  20.491  0.00  0.00    +0.000 A 
ATOM     14  C   UNL     1       2.260   3.251  21.336  0.00  0.00    +0.000 A 
ATOM     15  C   UNL     1       3.217   2.243  21.312  0.00  0.00    +0.000 A 
ATOM     16  C   UNL     1       4.315   2.333  20.455  0.00  0.00    +0.000 A 
ATOM     17  C   UNL     1       4.470   3.453  19.612  0.00  0.00    +0.000 A 
ATOM     18  C   UNL     1       3.491   4.490  19.617  0.00  0.00    +0.000 A 
ENDROOT
BRANCH  16  19
ATOM     19  O   UNL     1       5.234   1.342  20.434  0.00  0.00    +0.000 OA
ATOM     20  H   UNL     1       6.185   1.518  20.475  0.00  0.00    +0.000 HD
ENDBRANCH  16  19
BRANCH  17  21
ATOM     21  O   UNL     1       5.560   3.531  18.820  0.00  0.00    +0.000 OA
ATOM     22  H   UNL     1       5.767   4.301  18.270  0.00  0.00    +0.000 HD
ENDBRANCH  17  21
TORSDOF 2
ENDMDL
MODEL 8
REMARK VINA RESULT:      -7.0      3.038      5.777
REMARK  Name = 
REMARK  3 active torsions:
REMARK  status: ('A' for Active; 'I' for Inactive)
REMARK    1  A    between atoms: C_1  and  N_2
REMARK    2  A    between atoms: C_16  and  O_17
REMARK    3  A    between atoms: C_18  and  O_19
REMARK                            x       y       z     vdW  Elec       q    Type
REMARK                         _______ _______ _______ _____ _____    ______ ____
ROOT
ATOM      1  C   UNL     1       1.741   9.529  18.198  0.00  0.00    +0.000 C 
ATOM      2  N   UNL     1       2.099   8.413  19.098  0.00  0.00    +0.000 NA
ATOM      3  C   UNL     1       0.897   8.056  19.869  0.00  0.00    +0.000 C 
ATOM      4  C   UNL     1       1.230   7.055  20.965  0.00  0.00    +0.000 C 
ATOM      5  C   UNL     1       2.005   5.891  20.430  0.00  0.00    +0.000 A 
ATOM      6  C   UNL     1       2.069   4.723  21.197  0.00  0.00    +0.000 A 
ATOM      7  C   UNL     1       2.779   3.621  20.738  0.00  0.00    +0.000 A 
ATOM      8  C   UNL     1       3.461   3.677  19.526  0.00  0.00    +0.000 A 
ATOM      9  C   UNL     1       3.440   4.846  18.732  0.00  0.00    +0.000 A 
ATOM     10  C   UNL     1       2.678   5.962  19.189  0.00  0.00    +0.000 A 
ATOM     11  C   UNL     1       2.616   7.236  18.336  0.00  0.00    +0.000 C 
ATOM     12  C   UNL     1       4.040   7.493  17.820  0.00  0.00    +0.000 C 
ATOM     13  C   UNL     1       4.520   6.306  17.017  0.00  0.00    +0.000 A 
ATOM     14  C   UNL     1       5.269   6.522  15.851  0.00  0.00    +0.000 A 
ATOM     15  C   UNL     1       5.780   5.447  15.133  0.00  0.00    +0.000 A 
ATOM     16  C   UNL     1       5.544   4.138  15.559  0.00  0.00    +0.000 A 
ATOM     17  C   UNL     1       4.774   3.895  16.715  0.00  0.00    +0.000 A 
ATOM     18  C   UNL     1       4.252   4.987  17.468  0.00  0.00    +0.000 A 
ENDROOT
BRANCH  16  19
ATOM     19  O   UNL     1       6.053   3.102  14.858  0.00  0.00    +0.000 OA
ATOM     20  H   UNL     1       7.006   2.972  14.744  0.00  0.00    +0.000 HD
ENDBRANCH  16  19
BRANCH  17  21
ATOM     21  O   UNL     1       4.531   2.619  17.083  0.00  0.00    +0.000 OA
ATOM     22  H   UNL     1       3.857   2.369  17.731  0.00  0.00    +0.000 HD
ENDBRANCH  17  21
TORSDOF 2
ENDMDL
MODEL 9
REMARK VINA RESULT:      -6.7      3.577      5.285
REMARK  Name = 
REMARK  3 active torsions:
REMARK  status: ('A' for Active; 'I' for Inactive)
REMARK    1  A    between atoms: C_1  and  N_2
REMARK    2  A    between atoms: C_16  and  O_17
REMARK    3  A    between atoms: C_18  and  O_19
REMARK                            x       y       z     vdW  Elec       q    Type
REMARK                         _______ _______ _______ _____ _____    ______ ____
ROOT
ATOM      1  C   UNL     1       5.185   3.645  13.504  0.00  0.00    +0.000 C 
ATOM      2  N   UNL     1       5.922   3.862  14.766  0.00  0.00    +0.000 NA
ATOM      3  C   UNL     1       6.874   4.964  14.545  0.00  0.00    +0.000 C 
ATOM      4  C   UNL     1       7.815   5.115  15.730  0.00  0.00    +0.000 C 
ATOM      5  C   UNL     1       7.064   5.180  17.024  0.00  0.00    +0.000 A 
ATOM      6  C   UNL     1       7.721   5.685  18.152  0.00  0.00    +0.000 A 
ATOM      7  C   UNL     1       7.063   5.761  19.372  0.00  0.00    +0.000 A 
ATOM      8  C   UNL     1       5.753   5.305  19.494  0.00  0.00    +0.000 A 
ATOM      9  C   UNL     1       5.062   4.768  18.384  0.00  0.00    +0.000 A 
ATOM     10  C   UNL     1       5.730   4.728  17.124  0.00  0.00    +0.000 A 
ATOM     11  C   UNL     1       4.996   4.173  15.897  0.00  0.00    +0.000 C 
ATOM     12  C   UNL     1       4.246   2.915  16.360  0.00  0.00    +0.000 C 
ATOM     13  C   UNL     1       3.286   3.267  17.472  0.00  0.00    +0.000 A 
ATOM     14  C   UNL     1       2.020   2.663  17.505  0.00  0.00    +0.000 A 
ATOM     15  C   UNL     1       1.146   2.917  18.555  0.00  0.00    +0.000 A 
ATOM     16  C   UNL     1       1.513   3.786  19.584  0.00  0.00    +0.000 A 
ATOM     17  C   UNL     1       2.771   4.424  19.562  0.00  0.00    +0.000 A 
ATOM     18  C   UNL     1       3.683   4.165  18.497  0.00  0.00    +0.000 A 
ENDROOT
BRANCH  16  19
ATOM     19  O   UNL     1       0.658   4.019  20.604  0.00  0.00    +0.000 OA
ATOM     20  H   UNL     1       0.892   3.843  21.527  0.00  0.00    +0.000 HD
ENDBRANCH  16  19
BRANCH  17  21
ATOM     21  O   UNL     1       3.085   5.287  20.551  0.00  0.00    +0.000 OA
ATOM     22  H   UNL     1       3.292   6.220  20.399  0.00  0.00    +0.000 HD
ENDBRANCH  17  21
TORSDOF 2
ENDMDL
