MODEL 1
REMARK VINA RESULT:      -7.4      0.000      0.000
REMARK  Name = 
REMARK  9 active torsions:
REMARK  status: ('A' for Active; 'I' for Inactive)
REMARK    1  A    between atoms: C_1  and  C_2
REMARK    2  A    between atoms: C_2  and  N_3
REMARK    3  A    between atoms: N_3  and  C_4
REMARK    4  A    between atoms: C_4  and  C_5
REMARK    5  A    between atoms: C_11  and  C_13
REMARK    6  A    between atoms: N_16  and  S_17
REMARK    7  A    between atoms: S_17  and  C_20
REMARK    8  A    between atoms: C_24  and  O_25
REMARK    9  A    between atoms: O_25  and  C_26
REMARK                            x       y       z     vdW  Elec       q    Type
REMARK                         _______ _______ _______ _____ _____    ______ ____
ROOT
ATOM      1  C   UNL     1       1.096  10.244  18.984  0.00  0.00    +0.000 C 
ATOM      2  C   UNL     1       2.167   9.753  17.982  0.00  0.00    +0.000 C 
ATOM      3  C   UNL     1       2.157   8.234  17.776  0.00  0.00    +0.000 C 
ATOM      4  N   UNL     1       2.482   7.567  19.058  0.00  0.00    +0.000 NA
ATOM      5  C   UNL     1       1.441   7.877  20.092  0.00  0.00    +0.000 C 
ATOM      6  C   UNL     1       1.175   9.387  20.259  0.00  0.00    +0.000 C 
ENDROOT
BRANCH   1   8
ATOM      7  N   UNL     1      -1.105  11.408  18.314  0.00  0.00    +0.000 N 
ATOM      8  C   UNL     1      -0.260  10.290  18.261  0.00  0.00    +0.000 C 
ATOM      9  O   UNL     1      -0.552   9.312  17.564  0.00  0.00    +0.000 OA
BRANCH   7  11
ATOM     10  C   UNL     1      -3.585  10.628  17.939  0.00  0.00    +0.000 C 
ATOM     11  C   UNL     1      -2.345  11.422  17.496  0.00  0.00    +0.000 C 
ENDBRANCH   7  11
BRANCH   7  12
ATOM     12  C   UNL     1      -1.039  12.451  19.373  0.00  0.00    +0.000 C 
BRANCH  12  13
ATOM     13  C   UNL     1      -1.799  12.247  20.679  0.00  0.00    +0.000 A 
ATOM     14  C   UNL     1      -3.079  12.749  20.923  0.00  0.00    +0.000 A 
ATOM     15  C   UNL     1      -3.622  12.730  22.217  0.00  0.00    +0.000 A 
ATOM     16  C   UNL     1      -2.895  12.206  23.289  0.00  0.00    +0.000 A 
ATOM     17  C   UNL     1      -1.674  11.589  23.043  0.00  0.00    +0.000 A 
ATOM     18  C   UNL     1      -1.149  11.581  21.743  0.00  0.00    +0.000 A 
ENDBRANCH  12  13
ENDBRANCH   7  12
ENDBRANCH   1   8
BRANCH   4  19
ATOM     19  S   UNL     1       2.723   5.848  18.884  0.00  0.00    +0.000 S 
ATOM     20  O   UNL     1       2.643   5.258  20.213  0.00  0.00    +0.000 OA
ATOM     21  O   UNL     1       1.868   5.386  17.818  0.00  0.00    +0.000 OA
BRANCH  19  22
ATOM     22  C   UNL     1       4.422   5.673  18.355  0.00  0.00    +0.000 A 
ATOM     23  C   UNL     1       5.449   5.521  19.291  0.00  0.00    +0.000 A 
ATOM     24  C   UNL     1       6.777   5.491  18.862  0.00  0.00    +0.000 A 
ATOM     25  C   UNL     1       7.071   5.606  17.498  0.00  0.00    +0.000 A 
ATOM     26  C   UNL     1       6.043   5.775  16.564  0.00  0.00    +0.000 A 
ATOM     27  C   UNL     1       4.716   5.829  16.997  0.00  0.00    +0.000 A 
BRANCH  26  28
ATOM     28  O   UNL     1       6.466   5.878  15.263  0.00  0.00    +0.000 OA
ATOM     29  C   UNL     1       6.590   4.665  14.538  0.00  0.00    +0.000 C 
ENDBRANCH  26  28
ENDBRANCH  19  22
ENDBRANCH   4  19
TORSDOF 7
ENDMDL
MODEL 2
REMARK VINA RESULT:      -7.2      2.699      8.882
REMARK  Name = 
REMARK  9 active torsions:
REMARK  status: ('A' for Active; 'I' for Inactive)
REMARK    1  A    between atoms: C_1  and  C_2
REMARK    2  A    between atoms: C_2  and  N_3
REMARK    3  A    between atoms: N_3  and  C_4
REMARK    4  A    between atoms: C_4  and  C_5
REMARK    5  A    between atoms: C_11  and  C_13
REMARK    6  A    between atoms: N_16  and  S_17
REMARK    7  A    between atoms: S_17  and  C_20
REMARK    8  A    between atoms: C_24  and  O_25
REMARK    9  A    between atoms: O_25  and  C_26
REMARK                            x       y       z     vdW  Elec       q    Type
REMARK                         _______ _______ _______ _____ _____    ______ ____
ROOT
ATOM      1  C   UNL     1       3.142   6.370  18.390  0.00  0.00    +0.000 C 
ATOM      2  C   UNL     1       3.216   6.444  19.934  0.00  0.00    +0.000 C 
ATOM      3  C   UNL     1       1.970   7.064  20.574  0.00  0.00    +0.000 C 
ATOM      4  N   UNL     1       1.835   8.467  20.119  0.00  0.00    +0.000 NA
ATOM      5  C   UNL     1       1.639   8.523  18.633  0.00  0.00    +0.000 C 
ATOM      6  C   UNL     1       2.712   7.743  17.845  0.00  0.00    +0.000 C 
ENDROOT
BRANCH   1   8
ATOM      7  N   UNL     1       2.710   3.841  18.143  0.00  0.00    +0.000 N 
ATOM      8  C   UNL     1       2.270   5.165  18.004  0.00  0.00    +0.000 C 
ATOM      9  O   UNL     1       1.120   5.409  17.622  0.00  0.00    +0.000 OA
BRANCH   7  11
ATOM     10  C   UNL     1       0.784   2.240  18.934  0.00  0.00    +0.000 C 
ATOM     11  C   UNL     1       1.768   2.727  17.858  0.00  0.00    +0.000 C 
ENDBRANCH   7  11
BRANCH   7  12
ATOM     12  C   UNL     1       4.141   3.445  18.235  0.00  0.00    +0.000 C 
BRANCH  12  13
ATOM     13  C   UNL     1       5.150   4.035  17.256  0.00  0.00    +0.000 A 
ATOM     14  C   UNL     1       4.983   4.037  15.870  0.00  0.00    +0.000 A 
ATOM     15  C   UNL     1       6.046   4.379  15.020  0.00  0.00    +0.000 A 
ATOM     16  C   UNL     1       7.294   4.727  15.542  0.00  0.00    +0.000 A 
ATOM     17  C   UNL     1       7.443   4.853  16.918  0.00  0.00    +0.000 A 
ATOM     18  C   UNL     1       6.368   4.543  17.764  0.00  0.00    +0.000 A 
ENDBRANCH  12  13
ENDBRANCH   7  12
ENDBRANCH   1   8
BRANCH   4  19
ATOM     19  S   UNL     1       0.581   9.336  20.965  0.00  0.00    +0.000 S 
ATOM     20  O   UNL     1      -0.544   8.427  21.132  0.00  0.00    +0.000 OA
ATOM     21  O   UNL     1       1.182   9.984  22.105  0.00  0.00    +0.000 OA
BRANCH  19  22
ATOM     22  C   UNL     1       0.045  10.601  19.821  0.00  0.00    +0.000 A 
ATOM     23  C   UNL     1       0.706  11.830  19.756  0.00  0.00    +0.000 A 
ATOM     24  C   UNL     1       0.207  12.841  18.932  0.00  0.00    +0.000 A 
ATOM     25  C   UNL     1      -0.946  12.614  18.172  0.00  0.00    +0.000 A 
ATOM     26  C   UNL     1      -1.616  11.388  18.251  0.00  0.00    +0.000 A 
ATOM     27  C   UNL     1      -1.130  10.387  19.094  0.00  0.00    +0.000 A 
BRANCH  26  28
ATOM     28  O   UNL     1      -2.733  11.296  17.459  0.00  0.00    +0.000 OA
ATOM     29  C   UNL     1      -2.845  10.135  16.651  0.00  0.00    +0.000 C 
ENDBRANCH  26  28
ENDBRANCH  19  22
ENDBRANCH   4  19
TORSDOF 7
ENDMDL
MODEL 3
REMARK VINA RESULT:      -7.1      2.823      9.055
REMARK  Name = 
REMARK  9 active torsions:
REMARK  status: ('A' for Active; 'I' for Inactive)
REMARK    1  A    between atoms: C_1  and  C_2
REMARK    2  A    between atoms: C_2  and  N_3
REMARK    3  A    between atoms: N_3  and  C_4
REMARK    4  A    between atoms: C_4  and  C_5
REMARK    5  A    between atoms: C_11  and  C_13
REMARK    6  A    between atoms: N_16  and  S_17
REMARK    7  A    between atoms: S_17  and  C_20
REMARK    8  A    between atoms: C_24  and  O_25
REMARK    9  A    between atoms: O_25  and  C_26
REMARK                            x       y       z     vdW  Elec       q    Type
REMARK                         _______ _______ _______ _____ _____    ______ ____
ROOT
ATOM      1  C   UNL     1       3.201   6.478  18.500  0.00  0.00    +0.000 C 
ATOM      2  C   UNL     1       2.776   6.927  19.918  0.00  0.00    +0.000 C 
ATOM      3  C   UNL     1       1.472   7.733  19.936  0.00  0.00    +0.000 C 
ATOM      4  N   UNL     1       1.663   8.985  19.168  0.00  0.00    +0.000 NA
ATOM      5  C   UNL     1       1.972   8.681  17.733  0.00  0.00    +0.000 C 
ATOM      6  C   UNL     1       3.141   7.690  17.554  0.00  0.00    +0.000 C 
ENDROOT
BRANCH   1   8
ATOM      7  N   UNL     1       2.772   3.938  18.395  0.00  0.00    +0.000 N 
ATOM      8  C   UNL     1       2.365   5.250  18.109  0.00  0.00    +0.000 C 
ATOM      9  O   UNL     1       1.269   5.467  17.581  0.00  0.00    +0.000 OA
BRANCH   7  11
ATOM     10  C   UNL     1       1.072   2.110  19.213  0.00  0.00    +0.000 C 
ATOM     11  C   UNL     1       1.856   2.809  18.089  0.00  0.00    +0.000 C 
ENDBRANCH   7  11
BRANCH   7  12
ATOM     12  C   UNL     1       4.179   3.547  18.679  0.00  0.00    +0.000 C 
BRANCH  12  13
ATOM     13  C   UNL     1       5.286   3.969  17.718  0.00  0.00    +0.000 A 
ATOM     14  C   UNL     1       6.454   4.624  18.114  0.00  0.00    +0.000 A 
ATOM     15  C   UNL     1       7.315   5.191  17.162  0.00  0.00    +0.000 A 
ATOM     16  C   UNL     1       7.024   5.111  15.798  0.00  0.00    +0.000 A 
ATOM     17  C   UNL     1       5.934   4.356  15.380  0.00  0.00    +0.000 A 
ATOM     18  C   UNL     1       5.094   3.762  16.333  0.00  0.00    +0.000 A 
ENDBRANCH  12  13
ENDBRANCH   7  12
ENDBRANCH   1   8
BRANCH   4  19
ATOM     19  S   UNL     1       0.316  10.082  19.318  0.00  0.00    +0.000 S 
ATOM     20  O   UNL     1      -0.372  10.108  18.035  0.00  0.00    +0.000 OA
ATOM     21  O   UNL     1      -0.394   9.751  20.529  0.00  0.00    +0.000 OA
BRANCH  19  22
ATOM     22  C   UNL     1       1.057  11.696  19.527  0.00  0.00    +0.000 A 
ATOM     23  C   UNL     1       1.908  12.222  18.550  0.00  0.00    +0.000 A 
ATOM     24  C   UNL     1       2.558  13.435  18.781  0.00  0.00    +0.000 A 
ATOM     25  C   UNL     1       2.349  14.121  19.983  0.00  0.00    +0.000 A 
ATOM     26  C   UNL     1       1.509  13.585  20.966  0.00  0.00    +0.000 A 
ATOM     27  C   UNL     1       0.879  12.358  20.744  0.00  0.00    +0.000 A 
BRANCH  26  28
ATOM     28  O   UNL     1       1.391  14.353  22.097  0.00  0.00    +0.000 OA
ATOM     29  C   UNL     1       0.074  14.695  22.498  0.00  0.00    +0.000 C 
ENDBRANCH  26  28
ENDBRANCH  19  22
ENDBRANCH   4  19
TORSDOF 7
ENDMDL
MODEL 4
REMARK VINA RESULT:      -7.1      0.889      1.445
REMARK  Name = 
REMARK  9 active torsions:
REMARK  status: ('A' for Active; 'I' for Inactive)
REMARK    1  A    between atoms: C_1  and  C_2
REMARK    2  A    between atoms: C_2  and  N_3
REMARK    3  A    between atoms: N_3  and  C_4
REMARK    4  A    between atoms: C_4  and  C_5
REMARK    5  A    between atoms: C_11  and  C_13
REMARK    6  A    between atoms: N_16  and  S_17
REMARK    7  A    between atoms: S_17  and  C_20
REMARK    8  A    between atoms: C_24  and  O_25
REMARK    9  A    between atoms: O_25  and  C_26
REMARK                            x       y       z     vdW  Elec       q    Type
REMARK                         _______ _______ _______ _____ _____    ______ ____
ROOT
ATOM      1  C   UNL     1       1.152  10.138  18.896  0.00  0.00    +0.000 C 
ATOM      2  C   UNL     1       2.146   9.646  17.817  0.00  0.00    +0.000 C 
ATOM      3  C   UNL     1       2.159   8.123  17.651  0.00  0.00    +0.000 C 
ATOM      4  N   UNL     1       2.611   7.499  18.916  0.00  0.00    +0.000 NA
ATOM      5  C   UNL     1       1.655   7.811  20.029  0.00  0.00    +0.000 C 
ATOM      6  C   UNL     1       1.363   9.319  20.180  0.00  0.00    +0.000 C 
ENDROOT
BRANCH   1   8
ATOM      7  N   UNL     1      -1.132  11.226  18.397  0.00  0.00    +0.000 N 
ATOM      8  C   UNL     1      -0.262  10.130  18.293  0.00  0.00    +0.000 C 
ATOM      9  O   UNL     1      -0.585   9.130  17.643  0.00  0.00    +0.000 OA
BRANCH   7  11
ATOM     10  C   UNL     1      -2.494  11.082  16.155  0.00  0.00    +0.000 C 
ATOM     11  C   UNL     1      -2.438  11.188  17.689  0.00  0.00    +0.000 C 
ENDBRANCH   7  11
BRANCH   7  12
ATOM     12  C   UNL     1      -1.006  12.293  19.425  0.00  0.00    +0.000 C 
BRANCH  12  13
ATOM     13  C   UNL     1      -1.747  12.154  20.751  0.00  0.00    +0.000 A 
ATOM     14  C   UNL     1      -2.987  12.737  21.017  0.00  0.00    +0.000 A 
ATOM     15  C   UNL     1      -3.499  12.768  22.322  0.00  0.00    +0.000 A 
ATOM     16  C   UNL     1      -2.781  12.212  23.384  0.00  0.00    +0.000 A 
ATOM     17  C   UNL     1      -1.607  11.517  23.120  0.00  0.00    +0.000 A 
ATOM     18  C   UNL     1      -1.114  11.460  21.808  0.00  0.00    +0.000 A 
ENDBRANCH  12  13
ENDBRANCH   7  12
ENDBRANCH   1   8
BRANCH   4  19
ATOM     19  S   UNL     1       2.883   5.783  18.765  0.00  0.00    +0.000 S 
ATOM     20  O   UNL     1       3.410   5.310  20.037  0.00  0.00    +0.000 OA
ATOM     21  O   UNL     1       1.697   5.194  18.193  0.00  0.00    +0.000 OA
BRANCH  19  22
ATOM     22  C   UNL     1       4.212   5.630  17.579  0.00  0.00    +0.000 A 
ATOM     23  C   UNL     1       4.286   4.521  16.731  0.00  0.00    +0.000 A 
ATOM     24  C   UNL     1       5.388   4.370  15.886  0.00  0.00    +0.000 A 
ATOM     25  C   UNL     1       6.405   5.331  15.888  0.00  0.00    +0.000 A 
ATOM     26  C   UNL     1       6.337   6.432  16.750  0.00  0.00    +0.000 A 
ATOM     27  C   UNL     1       5.247   6.569  17.613  0.00  0.00    +0.000 A 
BRANCH  26  28
ATOM     28  O   UNL     1       7.398   7.296  16.656  0.00  0.00    +0.000 OA
ATOM     29  C   UNL     1       7.795   7.946  17.853  0.00  0.00    +0.000 C 
ENDBRANCH  26  28
ENDBRANCH  19  22
ENDBRANCH   4  19
TORSDOF 7
ENDMDL
MODEL 5
REMARK VINA RESULT:      -7.1      2.769      9.106
REMARK  Name = 
REMARK  9 active torsions:
REMARK  status: ('A' for Active; 'I' for Inactive)
REMARK    1  A    between atoms: C_1  and  C_2
REMARK    2  A    between atoms: C_2  and  N_3
REMARK    3  A    between atoms: N_3  and  C_4
REMARK    4  A    between atoms: C_4  and  C_5
REMARK    5  A    between atoms: C_11  and  C_13
REMARK    6  A    between atoms: N_16  and  S_17
REMARK    7  A    between atoms: S_17  and  C_20
REMARK    8  A    between atoms: C_24  and  O_25
REMARK    9  A    between atoms: O_25  and  C_26
REMARK                            x       y       z     vdW  Elec       q    Type
REMARK                         _______ _______ _______ _____ _____    ______ ____
ROOT
ATOM      1  C   UNL     1       2.602   6.525  18.456  0.00  0.00    +0.000 C 
ATOM      2  C   UNL     1       1.803   7.425  17.485  0.00  0.00    +0.000 C 
ATOM      3  C   UNL     1       1.797   8.903  17.890  0.00  0.00    +0.000 C 
ATOM      4  N   UNL     1       1.124   9.046  19.202  0.00  0.00    +0.000 NA
ATOM      5  C   UNL     1       1.878   8.302  20.264  0.00  0.00    +0.000 C 
ATOM      6  C   UNL     1       2.160   6.830  19.898  0.00  0.00    +0.000 C 
ENDROOT
BRANCH   1   8
ATOM      7  N   UNL     1       5.040   5.687  18.447  0.00  0.00    +0.000 N 
ATOM      8  C   UNL     1       4.098   6.681  18.141  0.00  0.00    +0.000 C 
ATOM      9  O   UNL     1       4.437   7.704  17.537  0.00  0.00    +0.000 OA
BRANCH   7  11
ATOM     10  C   UNL     1       7.604   5.738  19.016  0.00  0.00    +0.000 C 
ATOM     11  C   UNL     1       6.449   5.860  18.008  0.00  0.00    +0.000 C 
ENDBRANCH   7  11
BRANCH   7  12
ATOM     12  C   UNL     1       4.826   4.622  19.463  0.00  0.00    +0.000 C 
BRANCH  12  13
ATOM     13  C   UNL     1       3.728   3.586  19.247  0.00  0.00    +0.000 A 
ATOM     14  C   UNL     1       3.462   2.975  18.020  0.00  0.00    +0.000 A 
ATOM     15  C   UNL     1       2.297   2.215  17.835  0.00  0.00    +0.000 A 
ATOM     16  C   UNL     1       1.380   2.050  18.875  0.00  0.00    +0.000 A 
ATOM     17  C   UNL     1       1.689   2.543  20.137  0.00  0.00    +0.000 A 
ATOM     18  C   UNL     1       2.870   3.275  20.327  0.00  0.00    +0.000 A 
ENDBRANCH  12  13
ENDBRANCH   7  12
ENDBRANCH   1   8
BRANCH   4  19
ATOM     19  S   UNL     1       0.858  10.710  19.649  0.00  0.00    +0.000 S 
ATOM     20  O   UNL     1       0.987  10.801  21.096  0.00  0.00    +0.000 OA
ATOM     21  O   UNL     1       1.663  11.537  18.783  0.00  0.00    +0.000 OA
BRANCH  19  22
ATOM     22  C   UNL     1      -0.863  11.018  19.275  0.00  0.00    +0.000 A 
ATOM     23  C   UNL     1      -1.478  10.396  18.185  0.00  0.00    +0.000 A 
ATOM     24  C   UNL     1      -2.791  10.731  17.848  0.00  0.00    +0.000 A 
ATOM     25  C   UNL     1      -3.485  11.680  18.608  0.00  0.00    +0.000 A 
ATOM     26  C   UNL     1      -2.861  12.314  19.689  0.00  0.00    +0.000 A 
ATOM     27  C   UNL     1      -1.540  11.997  20.009  0.00  0.00    +0.000 A 
BRANCH  26  28
ATOM     28  O   UNL     1      -3.649  13.225  20.347  0.00  0.00    +0.000 OA
ATOM     29  C   UNL     1      -4.689  12.698  21.155  0.00  0.00    +0.000 C 
ENDBRANCH  26  28
ENDBRANCH  19  22
ENDBRANCH   4  19
TORSDOF 7
ENDMDL
MODEL 6
REMARK VINA RESULT:      -7.1      2.837      8.778
REMARK  Name = 
REMARK  9 active torsions:
REMARK  status: ('A' for Active; 'I' for Inactive)
REMARK    1  A    between atoms: C_1  and  C_2
REMARK    2  A    between atoms: C_2  and  N_3
REMARK    3  A    between atoms: N_3  and  C_4
REMARK    4  A    between atoms: C_4  and  C_5
REMARK    5  A    between atoms: C_11  and  C_13
REMARK    6  A    between atoms: N_16  and  S_17
REMARK    7  A    between atoms: S_17  and  C_20
REMARK    8  A    between atoms: C_24  and  O_25
REMARK    9  A    between atoms: O_25  and  C_26
REMARK                            x       y       z     vdW  Elec       q    Type
REMARK                         _______ _______ _______ _____ _____    ______ ____
ROOT
ATOM      1  C   UNL     1       3.192   6.483  18.537  0.00  0.00    +0.000 C 
ATOM      2  C   UNL     1       2.761   6.899  19.963  0.00  0.00    +0.000 C 
ATOM      3  C   UNL     1       1.451   7.694  19.996  0.00  0.00    +0.000 C 
ATOM      4  N   UNL     1       1.632   8.963  19.254  0.00  0.00    +0.000 NA
ATOM      5  C   UNL     1       1.945   8.691  17.812  0.00  0.00    +0.000 C 
ATOM      6  C   UNL     1       3.123   7.713  17.616  0.00  0.00    +0.000 C 
ENDROOT
BRANCH   1   8
ATOM      7  N   UNL     1       2.790   3.942  18.369  0.00  0.00    +0.000 N 
ATOM      8  C   UNL     1       2.366   5.256  18.120  0.00  0.00    +0.000 C 
ATOM      9  O   UNL     1       1.264   5.475  17.606  0.00  0.00    +0.000 OA
BRANCH   7  11
ATOM     10  C   UNL     1       0.796   2.366  19.031  0.00  0.00    +0.000 C 
ATOM     11  C   UNL     1       1.884   2.811  18.040  0.00  0.00    +0.000 C 
ENDBRANCH   7  11
BRANCH   7  12
ATOM     12  C   UNL     1       4.204   3.559  18.631  0.00  0.00    +0.000 C 
BRANCH  12  13
ATOM     13  C   UNL     1       5.295   3.996  17.659  0.00  0.00    +0.000 A 
ATOM     14  C   UNL     1       6.456   4.670  18.041  0.00  0.00    +0.000 A 
ATOM     15  C   UNL     1       7.298   5.248  17.079  0.00  0.00    +0.000 A 
ATOM     16  C   UNL     1       6.996   5.158  15.719  0.00  0.00    +0.000 A 
ATOM     17  C   UNL     1       5.915   4.385  15.313  0.00  0.00    +0.000 A 
ATOM     18  C   UNL     1       5.093   3.781  16.276  0.00  0.00    +0.000 A 
ENDBRANCH  12  13
ENDBRANCH   7  12
ENDBRANCH   1   8
BRANCH   4  19
ATOM     19  S   UNL     1       0.276  10.046  19.423  0.00  0.00    +0.000 S 
ATOM     20  O   UNL     1      -0.388  10.121  18.130  0.00  0.00    +0.000 OA
ATOM     21  O   UNL     1      -0.454   9.661  20.606  0.00  0.00    +0.000 OA
BRANCH  19  22
ATOM     22  C   UNL     1       1.003  11.654  19.712  0.00  0.00    +0.000 A 
ATOM     23  C   UNL     1       0.705  12.372  20.874  0.00  0.00    +0.000 A 
ATOM     24  C   UNL     1       1.200  13.668  21.031  0.00  0.00    +0.000 A 
ATOM     25  C   UNL     1       1.996  14.236  20.029  0.00  0.00    +0.000 A 
ATOM     26  C   UNL     1       2.280  13.521  18.860  0.00  0.00    +0.000 A 
ATOM     27  C   UNL     1       1.763  12.234  18.693  0.00  0.00    +0.000 A 
BRANCH  26  28
ATOM     28  O   UNL     1       3.067  14.191  17.958  0.00  0.00    +0.000 OA
ATOM     29  C   UNL     1       4.195  14.872  18.483  0.00  0.00    +0.000 C 
ENDBRANCH  26  28
ENDBRANCH  19  22
ENDBRANCH   4  19
TORSDOF 7
ENDMDL
MODEL 7
REMARK VINA RESULT:      -7.0      2.712      8.658
REMARK  Name = 
REMARK  9 active torsions:
REMARK  status: ('A' for Active; 'I' for Inactive)
REMARK    1  A    between atoms: C_1  and  C_2
REMARK    2  A    between atoms: C_2  and  N_3
REMARK    3  A    between atoms: N_3  and  C_4
REMARK    4  A    between atoms: C_4  and  C_5
REMARK    5  A    between atoms: C_11  and  C_13
REMARK    6  A    between atoms: N_16  and  S_17
REMARK    7  A    between atoms: S_17  and  C_20
REMARK    8  A    between atoms: C_24  and  O_25
REMARK    9  A    between atoms: O_25  and  C_26
REMARK                            x       y       z     vdW  Elec       q    Type
REMARK                         _______ _______ _______ _____ _____    ______ ____
ROOT
ATOM      1  C   UNL     1       2.340   6.829  18.489  0.00  0.00    +0.000 C 
ATOM      2  C   UNL     1       1.597   7.821  17.562  0.00  0.00    +0.000 C 
ATOM      3  C   UNL     1       1.718   9.281  18.011  0.00  0.00    +0.000 C 
ATOM      4  N   UNL     1       1.085   9.436  19.342  0.00  0.00    +0.000 NA
ATOM      5  C   UNL     1       1.797   8.601  20.365  0.00  0.00    +0.000 C 
ATOM      6  C   UNL     1       1.952   7.124  19.948  0.00  0.00    +0.000 C 
ENDROOT
BRANCH   1   8
ATOM      7  N   UNL     1       4.720   5.838  18.487  0.00  0.00    +0.000 N 
ATOM      8  C   UNL     1       3.837   6.874  18.147  0.00  0.00    +0.000 C 
ATOM      9  O   UNL     1       4.230   7.844  17.489  0.00  0.00    +0.000 OA
BRANCH   7  11
ATOM     10  C   UNL     1       6.575   5.120  16.771  0.00  0.00    +0.000 C 
ATOM     11  C   UNL     1       6.129   5.900  18.020  0.00  0.00    +0.000 C 
ENDBRANCH   7  11
BRANCH   7  12
ATOM     12  C   UNL     1       4.455   4.837  19.555  0.00  0.00    +0.000 C 
BRANCH  12  13
ATOM     13  C   UNL     1       3.377   3.779  19.345  0.00  0.00    +0.000 A 
ATOM     14  C   UNL     1       3.199   3.072  18.155  0.00  0.00    +0.000 A 
ATOM     15  C   UNL     1       2.051   2.292  17.950  0.00  0.00    +0.000 A 
ATOM     16  C   UNL     1       1.063   2.202  18.933  0.00  0.00    +0.000 A 
ATOM     17  C   UNL     1       1.282   2.795  20.171  0.00  0.00    +0.000 A 
ATOM     18  C   UNL     1       2.446   3.548  20.384  0.00  0.00    +0.000 A 
ENDBRANCH  12  13
ENDBRANCH   7  12
ENDBRANCH   1   8
BRANCH   4  19
ATOM     19  S   UNL     1       0.963  11.102  19.844  0.00  0.00    +0.000 S 
ATOM     20  O   UNL     1       1.128  11.136  21.290  0.00  0.00    +0.000 OA
ATOM     21  O   UNL     1       1.815  11.887  18.985  0.00  0.00    +0.000 OA
BRANCH  19  22
ATOM     22  C   UNL     1      -0.735  11.558  19.518  0.00  0.00    +0.000 A 
ATOM     23  C   UNL     1      -1.495  12.216  20.488  0.00  0.00    +0.000 A 
ATOM     24  C   UNL     1      -2.848  12.469  20.252  0.00  0.00    +0.000 A 
ATOM     25  C   UNL     1      -3.431  12.070  19.045  0.00  0.00    +0.000 A 
ATOM     26  C   UNL     1      -2.672  11.397  18.081  0.00  0.00    +0.000 A 
ATOM     27  C   UNL     1      -1.325  11.122  18.328  0.00  0.00    +0.000 A 
BRANCH  26  28
ATOM     28  O   UNL     1      -3.363  11.058  16.945  0.00  0.00    +0.000 OA
ATOM     29  C   UNL     1      -2.819  10.008  16.160  0.00  0.00    +0.000 C 
ENDBRANCH  26  28
ENDBRANCH  19  22
ENDBRANCH   4  19
TORSDOF 7
ENDMDL
MODEL 8
REMARK VINA RESULT:      -6.9      2.703      8.767
REMARK  Name = 
REMARK  9 active torsions:
REMARK  status: ('A' for Active; 'I' for Inactive)
REMARK    1  A    between atoms: C_1  and  C_2
REMARK    2  A    between atoms: C_2  and  N_3
REMARK    3  A    between atoms: N_3  and  C_4
REMARK    4  A    between atoms: C_4  and  C_5
REMARK    5  A    between atoms: C_11  and  C_13
REMARK    6  A    between atoms: N_16  and  S_17
REMARK    7  A    between atoms: S_17  and  C_20
REMARK    8  A    between atoms: C_24  and  O_25
REMARK    9  A    between atoms: O_25  and  C_26
REMARK                            x       y       z     vdW  Elec       q    Type
REMARK                         _______ _______ _______ _____ _____    ______ ____
ROOT
ATOM      1  C   UNL     1       3.144   6.353  18.369  0.00  0.00    +0.000 C 
ATOM      2  C   UNL     1       3.280   6.409  19.909  0.00  0.00    +0.000 C 
ATOM      3  C   UNL     1       2.040   6.972  20.611  0.00  0.00    +0.000 C 
ATOM      4  N   UNL     1       1.832   8.375  20.183  0.00  0.00    +0.000 NA
ATOM      5  C   UNL     1       1.571   8.443  18.707  0.00  0.00    +0.000 C 
ATOM      6  C   UNL     1       2.638   7.715  17.863  0.00  0.00    +0.000 C 
ENDROOT
BRANCH   1   8
ATOM      7  N   UNL     1       2.728   3.811  18.266  0.00  0.00    +0.000 N 
ATOM      8  C   UNL     1       2.302   5.121  18.001  0.00  0.00    +0.000 C 
ATOM      9  O   UNL     1       1.186   5.333  17.515  0.00  0.00    +0.000 OA
BRANCH   7  11
ATOM     10  C   UNL     1       0.720   2.285  19.000  0.00  0.00    +0.000 C 
ATOM     11  C   UNL     1       1.809   2.677  17.988  0.00  0.00    +0.000 C 
ENDBRANCH   7  11
BRANCH   7  12
ATOM     12  C   UNL     1       4.147   3.428  18.496  0.00  0.00    +0.000 C 
BRANCH  12  13
ATOM     13  C   UNL     1       5.228   3.944  17.552  0.00  0.00    +0.000 A 
ATOM     14  C   UNL     1       6.385   4.602  17.976  0.00  0.00    +0.000 A 
ATOM     15  C   UNL     1       7.216   5.255  17.053  0.00  0.00    +0.000 A 
ATOM     16  C   UNL     1       6.907   5.258  15.691  0.00  0.00    +0.000 A 
ATOM     17  C   UNL     1       5.832   4.504  15.237  0.00  0.00    +0.000 A 
ATOM     18  C   UNL     1       5.021   3.825  16.159  0.00  0.00    +0.000 A 
ENDBRANCH  12  13
ENDBRANCH   7  12
ENDBRANCH   1   8
BRANCH   4  19
ATOM     19  S   UNL     1       0.584   9.183  21.094  0.00  0.00    +0.000 S 
ATOM     20  O   UNL     1      -0.535   8.259  21.218  0.00  0.00    +0.000 OA
ATOM     21  O   UNL     1       1.194   9.764  22.265  0.00  0.00    +0.000 OA
BRANCH  19  22
ATOM     22  C   UNL     1       0.027  10.512  20.035  0.00  0.00    +0.000 A 
ATOM     23  C   UNL     1      -1.178  10.408  19.334  0.00  0.00    +0.000 A 
ATOM     24  C   UNL     1      -1.542  11.410  18.433  0.00  0.00    +0.000 A 
ATOM     25  C   UNL     1      -0.703  12.514  18.243  0.00  0.00    +0.000 A 
ATOM     26  C   UNL     1       0.511  12.608  18.933  0.00  0.00    +0.000 A 
ATOM     27  C   UNL     1       0.886  11.593  19.815  0.00  0.00    +0.000 A 
BRANCH  26  28
ATOM     28  O   UNL     1       1.240  13.736  18.654  0.00  0.00    +0.000 OA
ATOM     29  C   UNL     1       2.650  13.624  18.762  0.00  0.00    +0.000 C 
ENDBRANCH  26  28
ENDBRANCH  19  22
ENDBRANCH   4  19
TORSDOF 7
ENDMDL
MODEL 9
REMARK VINA RESULT:      -6.9      3.032      8.989
REMARK  Name = 
REMARK  9 active torsions:
REMARK  status: ('A' for Active; 'I' for Inactive)
REMARK    1  A    between atoms: C_1  and  C_2
REMARK    2  A    between atoms: C_2  and  N_3
REMARK    3  A    between atoms: N_3  and  C_4
REMARK    4  A    between atoms: C_4  and  C_5
REMARK    5  A    between atoms: C_11  and  C_13
REMARK    6  A    between atoms: N_16  and  S_17
REMARK    7  A    between atoms: S_17  and  C_20
REMARK    8  A    between atoms: C_24  and  O_25
REMARK    9  A    between atoms: O_25  and  C_26
REMARK                            x       y       z     vdW  Elec       q    Type
REMARK                         _______ _______ _______ _____ _____    ______ ____
ROOT
ATOM      1  C   UNL     1       3.204   6.423  18.492  0.00  0.00    +0.000 C 
ATOM      2  C   UNL     1       2.834   6.889  19.920  0.00  0.00    +0.000 C 
ATOM      3  C   UNL     1       1.559   7.738  19.973  0.00  0.00    +0.000 C 
ATOM      4  N   UNL     1       1.769   8.981  19.196  0.00  0.00    +0.000 NA
ATOM      5  C   UNL     1       2.026   8.664  17.753  0.00  0.00    +0.000 C 
ATOM      6  C   UNL     1       3.156   7.634  17.544  0.00  0.00    +0.000 C 
ENDROOT
BRANCH   1   8
ATOM      7  N   UNL     1       2.755   3.896  18.251  0.00  0.00    +0.000 N 
ATOM      8  C   UNL     1       2.316   5.222  18.129  0.00  0.00    +0.000 C 
ATOM      9  O   UNL     1       1.156   5.471  17.781  0.00  0.00    +0.000 OA
BRANCH   7  11
ATOM     10  C   UNL     1       0.787   2.359  19.066  0.00  0.00    +0.000 C 
ATOM     11  C   UNL     1       1.801   2.786  17.992  0.00  0.00    +0.000 C 
ENDBRANCH   7  11
BRANCH   7  12
ATOM     12  C   UNL     1       4.187   3.494  18.300  0.00  0.00    +0.000 C 
BRANCH  12  13
ATOM     13  C   UNL     1       5.158   4.042  17.259  0.00  0.00    +0.000 A 
ATOM     14  C   UNL     1       4.919   4.023  15.884  0.00  0.00    +0.000 A 
ATOM     15  C   UNL     1       5.944   4.322  14.974  0.00  0.00    +0.000 A 
ATOM     16  C   UNL     1       7.226   4.649  15.425  0.00  0.00    +0.000 A 
ATOM     17  C   UNL     1       7.449   4.795  16.789  0.00  0.00    +0.000 A 
ATOM     18  C   UNL     1       6.412   4.527  17.695  0.00  0.00    +0.000 A 
ENDBRANCH  12  13
ENDBRANCH   7  12
ENDBRANCH   1   8
BRANCH   4  19
ATOM     19  S   UNL     1       0.464  10.123  19.380  0.00  0.00    +0.000 S 
ATOM     20  O   UNL     1      -0.345  10.062  18.171  0.00  0.00    +0.000 OA
ATOM     21  O   UNL     1      -0.130   9.912  20.677  0.00  0.00    +0.000 OA
BRANCH  19  22
ATOM     22  C   UNL     1       1.253  11.728  19.380  0.00  0.00    +0.000 A 
ATOM     23  C   UNL     1       1.993  12.159  18.275  0.00  0.00    +0.000 A 
ATOM     24  C   UNL     1       2.686  13.369  18.337  0.00  0.00    +0.000 A 
ATOM     25  C   UNL     1       2.631  14.145  19.500  0.00  0.00    +0.000 A 
ATOM     26  C   UNL     1       1.903  13.704  20.611  0.00  0.00    +0.000 A 
ATOM     27  C   UNL     1       1.230  12.482  20.557  0.00  0.00    +0.000 A 
BRANCH  26  28
ATOM     28  O   UNL     1       1.933  14.555  21.686  0.00  0.00    +0.000 OA
ATOM     29  C   UNL     1       3.211  15.010  22.101  0.00  0.00    +0.000 C 
ENDBRANCH  26  28
ENDBRANCH  19  22
ENDBRANCH   4  19
TORSDOF 7
ENDMDL
