MODEL 1
REMARK VINA RESULT:      -7.8      0.000      0.000
REMARK  Name = 
REMARK  5 active torsions:
REMARK  status: ('A' for Active; 'I' for Inactive)
REMARK    1  A    between atoms: O_1  and  C_2
REMARK    2  A    between atoms: C_2  and  C_3
REMARK    3  A    between atoms: N_12  and  C_13
REMARK    4  A    between atoms: C_13  and  C_14
REMARK    5  A    between atoms: N_17  and  C_18
REMARK                            x       y       z     vdW  Elec       q    Type
REMARK                         _______ _______ _______ _____ _____    ______ ____
ROOT
ATOM      1  C   UNL     1      -1.789  11.486  18.294  0.00  0.00    +0.000 C 
ATOM      2  C   UNL     1      -0.762  11.820  19.391  0.00  0.00    +0.000 C 
ATOM      3  C   UNL     1       0.665  11.470  18.978  0.00  0.00    +0.000 C 
ATOM      4  N   UNL     1       0.776  10.045  18.626  0.00  0.00    +0.000 NA
ATOM      5  C   UNL     1      -0.097   9.759  17.476  0.00  0.00    +0.000 C 
ATOM      6  C   UNL     1      -1.561  10.044  17.810  0.00  0.00    +0.000 C 
ENDROOT
BRANCH   1   7
ATOM      7  C   UNL     1      -3.252  11.677  18.716  0.00  0.00    +0.000 A 
ATOM      8  C   UNL     1      -4.276  11.037  17.984  0.00  0.00    +0.000 A 
ATOM      9  C   UNL     1      -5.614  11.121  18.379  0.00  0.00    +0.000 A 
ATOM     10  C   UNL     1      -5.957  11.864  19.501  0.00  0.00    +0.000 A 
ATOM     11 CL   UNL     1      -7.597  11.949  20.010  0.00  0.00    +0.000 Cl
ATOM     12  C   UNL     1      -4.974  12.536  20.220  0.00  0.00    +0.000 A 
ATOM     13  C   UNL     1      -3.634  12.446  19.828  0.00  0.00    +0.000 A 
ENDBRANCH   1   7
BRANCH   1  14
ATOM     14  O   UNL     1      -1.543  12.376  17.193  0.00  0.00    +0.000 OA
ATOM     15  H   UNL     1      -1.360  11.823  16.413  0.00  0.00    +0.000 HD
ENDBRANCH   1  14
BRANCH   4  16
ATOM     16  C   UNL     1       2.190   9.738  18.342  0.00  0.00    +0.000 C 
BRANCH  16  17
ATOM     17  C   UNL     1       2.457   8.264  18.386  0.00  0.00    +0.000 A 
ATOM     18  C   UNL     1       3.306   7.551  17.505  0.00  0.00    +0.000 A 
ATOM     19  C   UNL     1       3.256   6.224  17.861  0.00  0.00    +0.000 A 
ATOM     20  N   UNL     1       2.426   6.070  18.957  0.00  0.00    +0.000 N 
ATOM     21  C   UNL     1       1.935   7.328  19.264  0.00  0.00    +0.000 A 
BRANCH  20  22
ATOM     22  C   UNL     1       2.137   4.844  19.633  0.00  0.00    +0.000 A 
ATOM     23  C   UNL     1       1.656   3.734  18.921  0.00  0.00    +0.000 A 
ATOM     24  C   UNL     1       1.373   2.532  19.579  0.00  0.00    +0.000 A 
ATOM     25  C   UNL     1       1.567   2.425  20.952  0.00  0.00    +0.000 A 
ATOM     26  C   UNL     1       2.047   3.517  21.670  0.00  0.00    +0.000 A 
ATOM     27  C   UNL     1       2.334   4.722  21.017  0.00  0.00    +0.000 A 
ENDBRANCH  20  22
ENDBRANCH  16  17
ENDBRANCH   4  16
TORSDOF 5
ENDMDL
MODEL 2
REMARK VINA RESULT:      -7.6      1.957      2.342
REMARK  Name = 
REMARK  5 active torsions:
REMARK  status: ('A' for Active; 'I' for Inactive)
REMARK    1  A    between atoms: O_1  and  C_2
REMARK    2  A    between atoms: C_2  and  C_3
REMARK    3  A    between atoms: N_12  and  C_13
REMARK    4  A    between atoms: C_13  and  C_14
REMARK    5  A    between atoms: N_17  and  C_18
REMARK                            x       y       z     vdW  Elec       q    Type
REMARK                         _______ _______ _______ _____ _____    ______ ____
ROOT
ATOM      1  C   UNL     1      -0.783  11.692  19.864  0.00  0.00    +0.000 C 
ATOM      2  C   UNL     1       0.711  11.703  20.236  0.00  0.00    +0.000 C 
ATOM      3  C   UNL     1       1.599  11.225  19.090  0.00  0.00    +0.000 C 
ATOM      4  N   UNL     1       1.216   9.873  18.655  0.00  0.00    +0.000 NA
ATOM      5  C   UNL     1      -0.169   9.897  18.157  0.00  0.00    +0.000 C 
ATOM      6  C   UNL     1      -1.144  10.327  19.254  0.00  0.00    +0.000 C 
ENDROOT
BRANCH   1   7
ATOM      7  C   UNL     1      -1.728  12.017  21.028  0.00  0.00    +0.000 A 
ATOM      8  C   UNL     1      -2.957  12.662  20.768  0.00  0.00    +0.000 A 
ATOM      9  C   UNL     1      -3.881  12.907  21.787  0.00  0.00    +0.000 A 
ATOM     10  C   UNL     1      -3.586  12.531  23.091  0.00  0.00    +0.000 A 
ATOM     11 CL   UNL     1      -4.729  12.802  24.346  0.00  0.00    +0.000 Cl
ATOM     12  C   UNL     1      -2.367  11.927  23.384  0.00  0.00    +0.000 A 
ATOM     13  C   UNL     1      -1.446  11.676  22.362  0.00  0.00    +0.000 A 
ENDBRANCH   1   7
BRANCH   1  14
ATOM     14  O   UNL     1      -0.980  12.702  18.860  0.00  0.00    +0.000 OA
ATOM     15  H   UNL     1      -1.606  13.351  19.226  0.00  0.00    +0.000 HD
ENDBRANCH   1  14
BRANCH   4  16
ATOM     16  C   UNL     1       2.170   9.419  17.626  0.00  0.00    +0.000 C 
BRANCH  16  17
ATOM     17  C   UNL     1       2.751   8.080  17.961  0.00  0.00    +0.000 A 
ATOM     18  C   UNL     1       3.894   7.501  17.357  0.00  0.00    +0.000 A 
ATOM     19  C   UNL     1       4.080   6.261  17.922  0.00  0.00    +0.000 A 
ATOM     20  N   UNL     1       3.111   6.041  18.884  0.00  0.00    +0.000 N 
ATOM     21  C   UNL     1       2.297   7.161  18.893  0.00  0.00    +0.000 A 
BRANCH  20  22
ATOM     22  C   UNL     1       2.984   4.877  19.705  0.00  0.00    +0.000 A 
ATOM     23  C   UNL     1       3.770   3.741  19.457  0.00  0.00    +0.000 A 
ATOM     24  C   UNL     1       3.649   2.601  20.258  0.00  0.00    +0.000 A 
ATOM     25  C   UNL     1       2.745   2.582  21.315  0.00  0.00    +0.000 A 
ATOM     26  C   UNL     1       1.962   3.704  21.575  0.00  0.00    +0.000 A 
ATOM     27  C   UNL     1       2.080   4.849  20.778  0.00  0.00    +0.000 A 
ENDBRANCH  20  22
ENDBRANCH  16  17
ENDBRANCH   4  16
TORSDOF 5
ENDMDL
MODEL 3
REMARK VINA RESULT:      -7.6      1.659      2.110
REMARK  Name = 
REMARK  5 active torsions:
REMARK  status: ('A' for Active; 'I' for Inactive)
REMARK    1  A    between atoms: O_1  and  C_2
REMARK    2  A    between atoms: C_2  and  C_3
REMARK    3  A    between atoms: N_12  and  C_13
REMARK    4  A    between atoms: C_13  and  C_14
REMARK    5  A    between atoms: N_17  and  C_18
REMARK                            x       y       z     vdW  Elec       q    Type
REMARK                         _______ _______ _______ _____ _____    ______ ____
ROOT
ATOM      1  C   UNL     1      -1.034  11.945  19.650  0.00  0.00    +0.000 C 
ATOM      2  C   UNL     1       0.420  12.088  20.137  0.00  0.00    +0.000 C 
ATOM      3  C   UNL     1       1.430  11.588  19.108  0.00  0.00    +0.000 C 
ATOM      4  N   UNL     1       1.172  10.183  18.756  0.00  0.00    +0.000 NA
ATOM      5  C   UNL     1      -0.165  10.071  18.150  0.00  0.00    +0.000 C 
ATOM      6  C   UNL     1      -1.254  10.515  19.127  0.00  0.00    +0.000 C 
ENDROOT
BRANCH   1   7
ATOM      7  C   UNL     1      -2.093  12.290  20.705  0.00  0.00    +0.000 A 
ATOM      8  C   UNL     1      -1.833  12.023  22.066  0.00  0.00    +0.000 A 
ATOM      9  C   UNL     1      -2.736  12.392  23.066  0.00  0.00    +0.000 A 
ATOM     10  C   UNL     1      -3.929  13.016  22.723  0.00  0.00    +0.000 A 
ATOM     11 CL   UNL     1      -5.033  13.500  23.948  0.00  0.00    +0.000 Cl
ATOM     12  C   UNL     1      -4.229  13.259  21.386  0.00  0.00    +0.000 A 
ATOM     13  C   UNL     1      -3.321  12.896  20.387  0.00  0.00    +0.000 A 
ENDBRANCH   1   7
BRANCH   1  14
ATOM     14  O   UNL     1      -1.209  12.858  18.554  0.00  0.00    +0.000 OA
ATOM     15  H   UNL     1      -1.879  13.509  18.828  0.00  0.00    +0.000 HD
ENDBRANCH   1  14
BRANCH   4  16
ATOM     16  C   UNL     1       2.236   9.720  17.846  0.00  0.00    +0.000 C 
BRANCH  16  17
ATOM     17  C   UNL     1       2.561   8.274  18.064  0.00  0.00    +0.000 A 
ATOM     18  C   UNL     1       3.596   7.553  17.419  0.00  0.00    +0.000 A 
ATOM     19  C   UNL     1       3.545   6.256  17.872  0.00  0.00    +0.000 A 
ATOM     20  N   UNL     1       2.530   6.131  18.803  0.00  0.00    +0.000 N 
ATOM     21  C   UNL     1       1.929   7.374  18.907  0.00  0.00    +0.000 A 
BRANCH  20  22
ATOM     22  C   UNL     1       2.178   4.942  19.516  0.00  0.00    +0.000 A 
ATOM     23  C   UNL     1       1.495   3.900  18.870  0.00  0.00    +0.000 A 
ATOM     24  C   UNL     1       1.149   2.736  19.564  0.00  0.00    +0.000 A 
ATOM     25  C   UNL     1       1.484   2.598  20.907  0.00  0.00    +0.000 A 
ATOM     26  C   UNL     1       2.165   3.621  21.559  0.00  0.00    +0.000 A 
ATOM     27  C   UNL     1       2.515   4.789  20.870  0.00  0.00    +0.000 A 
ENDBRANCH  20  22
ENDBRANCH  16  17
ENDBRANCH   4  16
TORSDOF 5
ENDMDL
MODEL 4
REMARK VINA RESULT:      -7.5      1.775      2.356
REMARK  Name = 
REMARK  5 active torsions:
REMARK  status: ('A' for Active; 'I' for Inactive)
REMARK    1  A    between atoms: O_1  and  C_2
REMARK    2  A    between atoms: C_2  and  C_3
REMARK    3  A    between atoms: N_12  and  C_13
REMARK    4  A    between atoms: C_13  and  C_14
REMARK    5  A    between atoms: N_17  and  C_18
REMARK                            x       y       z     vdW  Elec       q    Type
REMARK                         _______ _______ _______ _____ _____    ______ ____
ROOT
ATOM      1  C   UNL     1      -0.861  11.868  19.942  0.00  0.00    +0.000 C 
ATOM      2  C   UNL     1       0.607  11.834  20.405  0.00  0.00    +0.000 C 
ATOM      3  C   UNL     1       1.554  11.374  19.300  0.00  0.00    +0.000 C 
ATOM      4  N   UNL     1       1.172  10.044  18.799  0.00  0.00    +0.000 NA
ATOM      5  C   UNL     1      -0.179  10.113  18.218  0.00  0.00    +0.000 C 
ATOM      6  C   UNL     1      -1.211  10.530  19.267  0.00  0.00    +0.000 C 
ENDROOT
BRANCH   1   7
ATOM      7  C   UNL     1      -1.870  12.176  21.055  0.00  0.00    +0.000 A 
ATOM      8  C   UNL     1      -3.118  12.749  20.726  0.00  0.00    +0.000 A 
ATOM      9  C   UNL     1      -4.096  12.975  21.698  0.00  0.00    +0.000 A 
ATOM     10  C   UNL     1      -3.838  12.652  23.024  0.00  0.00    +0.000 A 
ATOM     11 CL   UNL     1      -5.045  12.900  24.222  0.00  0.00    +0.000 Cl
ATOM     12  C   UNL     1      -2.603  12.121  23.385  0.00  0.00    +0.000 A 
ATOM     13  C   UNL     1      -1.628  11.889  22.410  0.00  0.00    +0.000 A 
ENDBRANCH   1   7
BRANCH   1  14
ATOM     14  O   UNL     1      -0.976  12.912  18.961  0.00  0.00    +0.000 OA
ATOM     15  H   UNL     1      -0.256  12.781  18.319  0.00  0.00    +0.000 HD
ENDBRANCH   1  14
BRANCH   4  16
ATOM     16  C   UNL     1       2.179   9.602  17.816  0.00  0.00    +0.000 C 
BRANCH  16  17
ATOM     17  C   UNL     1       2.571   8.172  18.030  0.00  0.00    +0.000 A 
ATOM     18  C   UNL     1       3.665   7.515  17.414  0.00  0.00    +0.000 A 
ATOM     19  C   UNL     1       3.666   6.211  17.851  0.00  0.00    +0.000 A 
ATOM     20  N   UNL     1       2.627   6.022  18.744  0.00  0.00    +0.000 N 
ATOM     21  C   UNL     1       1.958   7.230  18.839  0.00  0.00    +0.000 A 
BRANCH  20  22
ATOM     22  C   UNL     1       2.313   4.807  19.430  0.00  0.00    +0.000 A 
ATOM     23  C   UNL     1       2.122   4.804  20.821  0.00  0.00    +0.000 A 
ATOM     24  C   UNL     1       1.815   3.618  21.496  0.00  0.00    +0.000 A 
ATOM     25  C   UNL     1       1.694   2.424  20.792  0.00  0.00    +0.000 A 
ATOM     26  C   UNL     1       1.878   2.414  19.412  0.00  0.00    +0.000 A 
ATOM     27  C   UNL     1       2.183   3.598  18.730  0.00  0.00    +0.000 A 
ENDBRANCH  20  22
ENDBRANCH  16  17
ENDBRANCH   4  16
TORSDOF 5
ENDMDL
MODEL 5
REMARK VINA RESULT:      -7.3      1.877      2.506
REMARK  Name = 
REMARK  5 active torsions:
REMARK  status: ('A' for Active; 'I' for Inactive)
REMARK    1  A    between atoms: O_1  and  C_2
REMARK    2  A    between atoms: C_2  and  C_3
REMARK    3  A    between atoms: N_12  and  C_13
REMARK    4  A    between atoms: C_13  and  C_14
REMARK    5  A    between atoms: N_17  and  C_18
REMARK                            x       y       z     vdW  Elec       q    Type
REMARK                         _______ _______ _______ _____ _____    ______ ____
ROOT
ATOM      1  C   UNL     1      -0.872  11.821  19.812  0.00  0.00    +0.000 C 
ATOM      2  C   UNL     1       0.597  11.857  20.272  0.00  0.00    +0.000 C 
ATOM      3  C   UNL     1       1.562  11.419  19.174  0.00  0.00    +0.000 C 
ATOM      4  N   UNL     1       1.236  10.067  18.694  0.00  0.00    +0.000 NA
ATOM      5  C   UNL     1      -0.117  10.070  18.114  0.00  0.00    +0.000 C 
ATOM      6  C   UNL     1      -1.165  10.459  19.158  0.00  0.00    +0.000 C 
ENDROOT
BRANCH   1   7
ATOM      7  C   UNL     1      -1.892  12.104  20.921  0.00  0.00    +0.000 A 
ATOM      8  C   UNL     1      -1.588  11.750  22.254  0.00  0.00    +0.000 A 
ATOM      9  C   UNL     1      -2.455  12.058  23.305  0.00  0.00    +0.000 A 
ATOM     10  C   UNL     1      -3.653  12.709  23.044  0.00  0.00    +0.000 A 
ATOM     11 CL   UNL     1      -4.712  13.119  24.334  0.00  0.00    +0.000 Cl
ATOM     12  C   UNL     1      -3.998  13.038  21.736  0.00  0.00    +0.000 A 
ATOM     13  C   UNL     1      -3.126  12.734  20.685  0.00  0.00    +0.000 A 
ENDBRANCH   1   7
BRANCH   1  14
ATOM     14  O   UNL     1      -1.032  12.844  18.814  0.00  0.00    +0.000 OA
ATOM     15  H   UNL     1      -0.870  12.428  17.949  0.00  0.00    +0.000 HD
ENDBRANCH   1  14
BRANCH   4  16
ATOM     16  C   UNL     1       2.259   9.653  17.717  0.00  0.00    +0.000 C 
BRANCH  16  17
ATOM     17  C   UNL     1       2.612   8.204  17.863  0.00  0.00    +0.000 A 
ATOM     18  C   UNL     1       3.825   7.603  17.447  0.00  0.00    +0.000 A 
ATOM     19  C   UNL     1       3.743   6.260  17.734  0.00  0.00    +0.000 A 
ATOM     20  N   UNL     1       2.531   5.990  18.343  0.00  0.00    +0.000 N 
ATOM     21  C   UNL     1       1.843   7.190  18.410  0.00  0.00    +0.000 A 
BRANCH  20  22
ATOM     22  C   UNL     1       2.086   4.714  18.811  0.00  0.00    +0.000 A 
ATOM     23  C   UNL     1       1.607   4.563  20.122  0.00  0.00    +0.000 A 
ATOM     24  C   UNL     1       1.171   3.317  20.583  0.00  0.00    +0.000 A 
ATOM     25  C   UNL     1       1.205   2.210  19.741  0.00  0.00    +0.000 A 
ATOM     26  C   UNL     1       1.673   2.346  18.437  0.00  0.00    +0.000 A 
ATOM     27  C   UNL     1       2.110   3.591  17.969  0.00  0.00    +0.000 A 
ENDBRANCH  20  22
ENDBRANCH  16  17
ENDBRANCH   4  16
TORSDOF 5
ENDMDL
MODEL 6
REMARK VINA RESULT:      -7.2      1.341      1.688
REMARK  Name = 
REMARK  5 active torsions:
REMARK  status: ('A' for Active; 'I' for Inactive)
REMARK    1  A    between atoms: O_1  and  C_2
REMARK    2  A    between atoms: C_2  and  C_3
REMARK    3  A    between atoms: N_12  and  C_13
REMARK    4  A    between atoms: C_13  and  C_14
REMARK    5  A    between atoms: N_17  and  C_18
REMARK                            x       y       z     vdW  Elec       q    Type
REMARK                         _______ _______ _______ _____ _____    ______ ____
ROOT
ATOM      1  C   UNL     1      -1.871  11.908  18.928  0.00  0.00    +0.000 C 
ATOM      2  C   UNL     1      -0.723  11.888  19.954  0.00  0.00    +0.000 C 
ATOM      3  C   UNL     1       0.565  11.311  19.374  0.00  0.00    +0.000 C 
ATOM      4  N   UNL     1       0.348   9.949  18.860  0.00  0.00    +0.000 NA
ATOM      5  C   UNL     1      -0.643   9.992  17.772  0.00  0.00    +0.000 C 
ATOM      6  C   UNL     1      -1.988  10.522  18.271  0.00  0.00    +0.000 C 
ENDROOT
BRANCH   1   7
ATOM      7  C   UNL     1      -3.228  12.336  19.503  0.00  0.00    +0.000 A 
ATOM      8  C   UNL     1      -4.413  11.993  18.818  0.00  0.00    +0.000 A 
ATOM      9  C   UNL     1      -5.672  12.295  19.344  0.00  0.00    +0.000 A 
ATOM     10  C   UNL     1      -5.770  12.965  20.556  0.00  0.00    +0.000 A 
ATOM     11 CL   UNL     1      -7.315  13.315  21.226  0.00  0.00    +0.000 Cl
ATOM     12  C   UNL     1      -4.619  13.349  21.237  0.00  0.00    +0.000 A 
ATOM     13  C   UNL     1      -3.359  13.040  20.712  0.00  0.00    +0.000 A 
ENDBRANCH   1   7
BRANCH   1  14
ATOM     14  O   UNL     1      -1.519  12.861  17.912  0.00  0.00    +0.000 OA
ATOM     15  H   UNL     1      -0.661  12.584  17.545  0.00  0.00    +0.000 HD
ENDBRANCH   1  14
BRANCH   4  16
ATOM     16  C   UNL     1       1.642   9.401  18.413  0.00  0.00    +0.000 C 
BRANCH  16  17
ATOM     17  C   UNL     1       1.890   8.035  18.977  0.00  0.00    +0.000 A 
ATOM     18  C   UNL     1       1.754   7.667  20.338  0.00  0.00    +0.000 A 
ATOM     19  C   UNL     1       2.097   6.339  20.447  0.00  0.00    +0.000 A 
ATOM     20  N   UNL     1       2.422   5.843  19.197  0.00  0.00    +0.000 N 
ATOM     21  C   UNL     1       2.298   6.895  18.306  0.00  0.00    +0.000 A 
BRANCH  20  22
ATOM     22  C   UNL     1       2.809   4.499  18.896  0.00  0.00    +0.000 A 
ATOM     23  C   UNL     1       2.018   3.702  18.054  0.00  0.00    +0.000 A 
ATOM     24  C   UNL     1       2.393   2.387  17.758  0.00  0.00    +0.000 A 
ATOM     25  C   UNL     1       3.561   1.856  18.295  0.00  0.00    +0.000 A 
ATOM     26  C   UNL     1       4.357   2.637  19.128  0.00  0.00    +0.000 A 
ATOM     27  C   UNL     1       3.988   3.954  19.428  0.00  0.00    +0.000 A 
ENDBRANCH  20  22
ENDBRANCH  16  17
ENDBRANCH   4  16
TORSDOF 5
ENDMDL
MODEL 7
REMARK VINA RESULT:      -7.2      0.770      1.309
REMARK  Name = 
REMARK  5 active torsions:
REMARK  status: ('A' for Active; 'I' for Inactive)
REMARK    1  A    between atoms: O_1  and  C_2
REMARK    2  A    between atoms: C_2  and  C_3
REMARK    3  A    between atoms: N_12  and  C_13
REMARK    4  A    between atoms: C_13  and  C_14
REMARK    5  A    between atoms: N_17  and  C_18
REMARK                            x       y       z     vdW  Elec       q    Type
REMARK                         _______ _______ _______ _____ _____    ______ ____
ROOT
ATOM      1  C   UNL     1      -1.935  11.616  18.658  0.00  0.00    +0.000 C 
ATOM      2  C   UNL     1      -1.112  11.701  19.956  0.00  0.00    +0.000 C 
ATOM      3  C   UNL     1       0.366  11.396  19.728  0.00  0.00    +0.000 C 
ATOM      4  N   UNL     1       0.543  10.065  19.126  0.00  0.00    +0.000 NA
ATOM      5  C   UNL     1      -0.119  10.034  17.812  0.00  0.00    +0.000 C 
ATOM      6  C   UNL     1      -1.621  10.290  17.944  0.00  0.00    +0.000 C 
ENDROOT
BRANCH   1   7
ATOM      7  C   UNL     1      -3.449  11.763  18.856  0.00  0.00    +0.000 A 
ATOM      8  C   UNL     1      -3.939  12.560  19.914  0.00  0.00    +0.000 A 
ATOM      9  C   UNL     1      -5.307  12.784  20.084  0.00  0.00    +0.000 A 
ATOM     10  C   UNL     1      -6.216  12.197  19.212  0.00  0.00    +0.000 A 
ATOM     11 CL   UNL     1      -7.900  12.490  19.396  0.00  0.00    +0.000 Cl
ATOM     12  C   UNL     1      -5.765  11.376  18.183  0.00  0.00    +0.000 A 
ATOM     13  C   UNL     1      -4.395  11.159  18.010  0.00  0.00    +0.000 A 
ENDBRANCH   1   7
BRANCH   1  14
ATOM     14  O   UNL     1      -1.509  12.696  17.811  0.00  0.00    +0.000 OA
ATOM     15  H   UNL     1      -2.216  12.844  17.158  0.00  0.00    +0.000 HD
ENDBRANCH   1  14
BRANCH   4  16
ATOM     16  C   UNL     1       1.986   9.778  19.029  0.00  0.00    +0.000 C 
BRANCH  16  17
ATOM     17  C   UNL     1       2.250   8.312  18.865  0.00  0.00    +0.000 A 
ATOM     18  C   UNL     1       2.704   7.682  17.681  0.00  0.00    +0.000 A 
ATOM     19  C   UNL     1       2.793   6.333  17.934  0.00  0.00    +0.000 A 
ATOM     20  N   UNL     1       2.437   6.086  19.248  0.00  0.00    +0.000 N 
ATOM     21  C   UNL     1       2.098   7.307  19.806  0.00  0.00    +0.000 A 
BRANCH  20  22
ATOM     22  C   UNL     1       2.424   4.810  19.894  0.00  0.00    +0.000 A 
ATOM     23  C   UNL     1       1.316   4.408  20.655  0.00  0.00    +0.000 A 
ATOM     24  C   UNL     1       1.300   3.161  21.288  0.00  0.00    +0.000 A 
ATOM     25  C   UNL     1       2.387   2.302  21.168  0.00  0.00    +0.000 A 
ATOM     26  C   UNL     1       3.492   2.686  20.412  0.00  0.00    +0.000 A 
ATOM     27  C   UNL     1       3.513   3.933  19.775  0.00  0.00    +0.000 A 
ENDBRANCH  20  22
ENDBRANCH  16  17
ENDBRANCH   4  16
TORSDOF 5
ENDMDL
MODEL 8
REMARK VINA RESULT:      -7.1      7.160     10.750
REMARK  Name = 
REMARK  5 active torsions:
REMARK  status: ('A' for Active; 'I' for Inactive)
REMARK    1  A    between atoms: O_1  and  C_2
REMARK    2  A    between atoms: C_2  and  C_3
REMARK    3  A    between atoms: N_12  and  C_13
REMARK    4  A    between atoms: C_13  and  C_14
REMARK    5  A    between atoms: N_17  and  C_18
REMARK                            x       y       z     vdW  Elec       q    Type
REMARK                         _______ _______ _______ _____ _____    ______ ____
ROOT
ATOM      1  C   UNL     1       5.622   5.227  18.497  0.00  0.00    +0.000 C 
ATOM      2  C   UNL     1       5.097   6.462  17.742  0.00  0.00    +0.000 C 
ATOM      3  C   UNL     1       6.214   7.243  17.056  0.00  0.00    +0.000 C 
ATOM      4  N   UNL     1       7.235   7.665  18.028  0.00  0.00    +0.000 NA
ATOM      5  C   UNL     1       7.845   6.474  18.641  0.00  0.00    +0.000 C 
ATOM      6  C   UNL     1       6.803   5.644  19.391  0.00  0.00    +0.000 C 
ENDROOT
BRANCH   1   7
ATOM      7  C   UNL     1       4.563   4.494  19.329  0.00  0.00    +0.000 A 
ATOM      8  C   UNL     1       3.504   5.225  19.910  0.00  0.00    +0.000 A 
ATOM      9  C   UNL     1       2.477   4.588  20.610  0.00  0.00    +0.000 A 
ATOM     10  C   UNL     1       2.497   3.208  20.761  0.00  0.00    +0.000 A 
ATOM     11 CL   UNL     1       1.222   2.412  21.595  0.00  0.00    +0.000 Cl
ATOM     12  C   UNL     1       3.547   2.463  20.231  0.00  0.00    +0.000 A 
ATOM     13  C   UNL     1       4.571   3.102  19.525  0.00  0.00    +0.000 A 
ENDBRANCH   1   7
BRANCH   1  14
ATOM     14  O   UNL     1       6.108   4.300  17.511  0.00  0.00    +0.000 OA
ATOM     15  H   UNL     1       5.844   3.409  17.802  0.00  0.00    +0.000 HD
ENDBRANCH   1  14
BRANCH   4  16
ATOM     16  C   UNL     1       8.230   8.505  17.335  0.00  0.00    +0.000 C 
BRANCH  16  17
ATOM     17  C   UNL     1       8.709   9.627  18.204  0.00  0.00    +0.000 A 
ATOM     18  C   UNL     1       9.025   9.529  19.581  0.00  0.00    +0.000 A 
ATOM     19  C   UNL     1       9.398  10.780  20.013  0.00  0.00    +0.000 A 
ATOM     20  N   UNL     1       9.357  11.667  18.953  0.00  0.00    +0.000 N 
ATOM     21  C   UNL     1       8.925  10.949  17.850  0.00  0.00    +0.000 A 
BRANCH  20  22
ATOM     22  C   UNL     1       9.696  13.055  18.998  0.00  0.00    +0.000 A 
ATOM     23  C   UNL     1      10.171  13.633  20.186  0.00  0.00    +0.000 A 
ATOM     24  C   UNL     1      10.504  14.991  20.235  0.00  0.00    +0.000 A 
ATOM     25  C   UNL     1      10.370  15.784  19.100  0.00  0.00    +0.000 A 
ATOM     26  C   UNL     1       9.905  15.223  17.914  0.00  0.00    +0.000 A 
ATOM     27  C   UNL     1       9.571  13.864  17.859  0.00  0.00    +0.000 A 
ENDBRANCH  20  22
ENDBRANCH  16  17
ENDBRANCH   4  16
TORSDOF 5
ENDMDL
MODEL 9
REMARK VINA RESULT:      -7.1      1.256      2.048
REMARK  Name = 
REMARK  5 active torsions:
REMARK  status: ('A' for Active; 'I' for Inactive)
REMARK    1  A    between atoms: O_1  and  C_2
REMARK    2  A    between atoms: C_2  and  C_3
REMARK    3  A    between atoms: N_12  and  C_13
REMARK    4  A    between atoms: C_13  and  C_14
REMARK    5  A    between atoms: N_17  and  C_18
REMARK                            x       y       z     vdW  Elec       q    Type
REMARK                         _______ _______ _______ _____ _____    ______ ____
ROOT
ATOM      1  C   UNL     1      -1.918  11.812  18.813  0.00  0.00    +0.000 C 
ATOM      2  C   UNL     1      -0.818  11.831  19.890  0.00  0.00    +0.000 C 
ATOM      3  C   UNL     1       0.515  11.301  19.369  0.00  0.00    +0.000 C 
ATOM      4  N   UNL     1       0.369   9.933  18.846  0.00  0.00    +0.000 NA
ATOM      5  C   UNL     1      -0.572   9.942  17.715  0.00  0.00    +0.000 C 
ATOM      6  C   UNL     1      -1.956  10.424  18.151  0.00  0.00    +0.000 C 
ENDROOT
BRANCH   1   7
ATOM      7  C   UNL     1      -3.314  12.191  19.325  0.00  0.00    +0.000 A 
ATOM      8  C   UNL     1      -3.439  12.958  20.504  0.00  0.00    +0.000 A 
ATOM      9  C   UNL     1      -4.685  13.390  20.963  0.00  0.00    +0.000 A 
ATOM     10  C   UNL     1      -5.835  13.046  20.265  0.00  0.00    +0.000 A 
ATOM     11 CL   UNL     1      -7.371  13.598  20.806  0.00  0.00    +0.000 Cl
ATOM     12  C   UNL     1      -5.747  12.260  19.120  0.00  0.00    +0.000 A 
ATOM     13  C   UNL     1      -4.498  11.834  18.657  0.00  0.00    +0.000 A 
ENDBRANCH   1   7
BRANCH   1  14
ATOM     14  O   UNL     1      -1.554  12.779  17.813  0.00  0.00    +0.000 OA
ATOM     15  H   UNL     1      -0.656  12.553  17.511  0.00  0.00    +0.000 HD
ENDBRANCH   1  14
BRANCH   4  16
ATOM     16  C   UNL     1       1.701   9.432  18.459  0.00  0.00    +0.000 C 
BRANCH  16  17
ATOM     17  C   UNL     1       1.939   8.042  18.967  0.00  0.00    +0.000 A 
ATOM     18  C   UNL     1       1.827   7.626  20.316  0.00  0.00    +0.000 A 
ATOM     19  C   UNL     1       2.152   6.290  20.368  0.00  0.00    +0.000 A 
ATOM     20  N   UNL     1       2.441   5.835  19.094  0.00  0.00    +0.000 N 
ATOM     21  C   UNL     1       2.314   6.921  18.245  0.00  0.00    +0.000 A 
BRANCH  20  22
ATOM     22  C   UNL     1       2.800   4.498  18.736  0.00  0.00    +0.000 A 
ATOM     23  C   UNL     1       2.254   3.405  19.427  0.00  0.00    +0.000 A 
ATOM     24  C   UNL     1       2.603   2.096  19.079  0.00  0.00    +0.000 A 
ATOM     25  C   UNL     1       3.496   1.863  18.039  0.00  0.00    +0.000 A 
ATOM     26  C   UNL     1       4.041   2.938  17.342  0.00  0.00    +0.000 A 
ATOM     27  C   UNL     1       3.696   4.251  17.684  0.00  0.00    +0.000 A 
ENDBRANCH  20  22
ENDBRANCH  16  17
ENDBRANCH   4  16
TORSDOF 5
ENDMDL
