MODEL 1
REMARK VINA RESULT:      -7.6      0.000      0.000
REMARK  Name = 
REMARK  7 active torsions:
REMARK  status: ('A' for Active; 'I' for Inactive)
REMARK    1  A    between atoms: C_2  and  C_3
REMARK    2  A    between atoms: C_8  and  C_10
REMARK    3  A    between atoms: C_13  and  C_14
REMARK    4  A    between atoms: C_14  and  O_15
REMARK    5  A    between atoms: O_15  and  C_16
REMARK    6  A    between atoms: C_19  and  C_20
REMARK    7  A    between atoms: C_20  and  O_22
REMARK                            x       y       z     vdW  Elec       q    Type
REMARK                         _______ _______ _______ _____ _____    ______ ____
ROOT
ATOM      1  C   UNL     1       4.484   5.474  18.488  0.00  0.00    +0.000 C 
ATOM      2  C   UNL     1       4.762   6.726  17.688  0.00  0.00    +0.000 C 
ATOM      3  C   UNL     1       6.278   6.815  17.643  0.00  0.00    +0.000 C 
ATOM      4  C   UNL     1       6.805   5.416  17.987  0.00  0.00    +0.000 C 
ATOM      5  N   UNL     1       5.623   4.578  18.243  0.00  0.00    +0.000 NA
ATOM      6  H   UNL     1       5.783   4.001  19.072  0.00  0.00    +0.000 HD
ENDROOT
BRANCH   1  12
ATOM      7  C   UNL     1       3.050   3.373  20.365  0.00  0.00    +0.000 C 
ATOM      8  C   UNL     1       1.814   2.634  20.906  0.00  0.00    +0.000 C 
ATOM      9  C   UNL     1       1.180   2.053  19.647  0.00  0.00    +0.000 C 
ATOM     10  C   UNL     1       1.361   3.184  18.655  0.00  0.00    +0.000 C 
ATOM     11  N   UNL     1       2.650   3.765  18.994  0.00  0.00    +0.000 N 
ATOM     12  C   UNL     1       3.152   4.766  18.177  0.00  0.00    +0.000 C 
ATOM     13  O   UNL     1       2.536   5.101  17.155  0.00  0.00    +0.000 OA
BRANCH   7  15
ATOM     14  N   UNL     1       5.086   1.694  20.494  0.00  0.00    +0.000 NA
ATOM     15  C   UNL     1       4.204   2.446  20.419  0.00  0.00    +0.000 C 
ENDBRANCH   7  15
ENDBRANCH   1  12
BRANCH   4  16
ATOM     16  C   UNL     1       7.648   4.834  16.840  0.00  0.00    +0.000 C 
BRANCH  16  17
ATOM     17  O   UNL     1       7.514   5.619  15.644  0.00  0.00    +0.000 OA
BRANCH  17  18
ATOM     18  C   UNL     1       6.950   4.887  14.608  0.00  0.00    +0.000 A 
ATOM     19  N   UNL     1       5.878   4.110  14.889  0.00  0.00    +0.000 NA
ATOM     20  C   UNL     1       5.339   3.394  13.884  0.00  0.00    +0.000 A 
ATOM     21  C   UNL     1       5.794   3.437  12.571  0.00  0.00    +0.000 A 
ATOM     22  C   UNL     1       6.903   4.246  12.291  0.00  0.00    +0.000 A 
ATOM     23  C   UNL     1       7.495   4.986  13.328  0.00  0.00    +0.000 A 
ATOM     24 CL   UNL     1       8.876   5.941  12.973  0.00  0.00    +0.000 Cl
BRANCH  21  25
ATOM     25  C   UNL     1       5.125   2.572  11.582  0.00  0.00    +0.000 C 
ATOM     26  O   UNL     1       4.096   2.922  11.026  0.00  0.00    +0.000 OA
BRANCH  25  27
ATOM     27  O   UNL     1       5.753   1.413  11.331  0.00  0.00    +0.000 OA
ATOM     28  H   UNL     1       5.817   0.781  12.074  0.00  0.00    +0.000 HD
ENDBRANCH  25  27
ENDBRANCH  21  25
ENDBRANCH  17  18
ENDBRANCH  16  17
ENDBRANCH   4  16
TORSDOF 7
ENDMDL
MODEL 2
REMARK VINA RESULT:      -7.1      1.491      2.000
REMARK  Name = 
REMARK  7 active torsions:
REMARK  status: ('A' for Active; 'I' for Inactive)
REMARK    1  A    between atoms: C_2  and  C_3
REMARK    2  A    between atoms: C_8  and  C_10
REMARK    3  A    between atoms: C_13  and  C_14
REMARK    4  A    between atoms: C_14  and  O_15
REMARK    5  A    between atoms: O_15  and  C_16
REMARK    6  A    between atoms: C_19  and  C_20
REMARK    7  A    between atoms: C_20  and  O_22
REMARK                            x       y       z     vdW  Elec       q    Type
REMARK                         _______ _______ _______ _____ _____    ______ ____
ROOT
ATOM      1  C   UNL     1       5.000   5.118  19.157  0.00  0.00    +0.000 C 
ATOM      2  C   UNL     1       4.322   5.594  17.893  0.00  0.00    +0.000 C 
ATOM      3  C   UNL     1       5.420   6.307  17.122  0.00  0.00    +0.000 C 
ATOM      4  C   UNL     1       6.750   5.823  17.713  0.00  0.00    +0.000 C 
ATOM      5  N   UNL     1       6.408   4.890  18.798  0.00  0.00    +0.000 NA
ATOM      6  H   UNL     1       6.998   5.075  19.612  0.00  0.00    +0.000 HD
ENDROOT
BRANCH   1  12
ATOM      7  C   UNL     1       1.918   4.645  19.674  0.00  0.00    +0.000 C 
ATOM      8  C   UNL     1       0.679   3.753  19.868  0.00  0.00    +0.000 C 
ATOM      9  C   UNL     1       1.088   2.838  21.017  0.00  0.00    +0.000 C 
ATOM     10  C   UNL     1       2.536   2.545  20.682  0.00  0.00    +0.000 C 
ATOM     11  N   UNL     1       3.039   3.784  20.114  0.00  0.00    +0.000 N 
ATOM     12  C   UNL     1       4.390   3.864  19.810  0.00  0.00    +0.000 C 
ATOM     13  O   UNL     1       5.143   2.918  20.079  0.00  0.00    +0.000 OA
BRANCH   7  15
ATOM     14  N   UNL     1       1.644   6.832  21.131  0.00  0.00    +0.000 NA
ATOM     15  C   UNL     1       1.738   5.871  20.487  0.00  0.00    +0.000 C 
ENDBRANCH   7  15
ENDBRANCH   1  12
BRANCH   4  16
ATOM     16  C   UNL     1       7.619   5.128  16.651  0.00  0.00    +0.000 C 
BRANCH  16  17
ATOM     17  O   UNL     1       7.539   5.807  15.387  0.00  0.00    +0.000 OA
BRANCH  17  18
ATOM     18  C   UNL     1       7.008   4.990  14.398  0.00  0.00    +0.000 A 
ATOM     19  N   UNL     1       5.966   4.191  14.725  0.00  0.00    +0.000 NA
ATOM     20  C   UNL     1       5.458   3.394  13.766  0.00  0.00    +0.000 A 
ATOM     21  C   UNL     1       5.917   3.373  12.453  0.00  0.00    +0.000 A 
ATOM     22  C   UNL     1       6.995   4.205  12.125  0.00  0.00    +0.000 A 
ATOM     23  C   UNL     1       7.554   5.030  13.115  0.00  0.00    +0.000 A 
ATOM     24 CL   UNL     1       8.898   6.014  12.703  0.00  0.00    +0.000 Cl
BRANCH  21  25
ATOM     25  C   UNL     1       5.286   2.423  11.518  0.00  0.00    +0.000 C 
ATOM     26  O   UNL     1       4.258   2.706  10.924  0.00  0.00    +0.000 OA
BRANCH  25  27
ATOM     27  O   UNL     1       5.946   1.266  11.361  0.00  0.00    +0.000 OA
ATOM     28  H   UNL     1       6.282   0.839  12.174  0.00  0.00    +0.000 HD
ENDBRANCH  25  27
ENDBRANCH  21  25
ENDBRANCH  17  18
ENDBRANCH  16  17
ENDBRANCH   4  16
TORSDOF 7
ENDMDL
MODEL 3
REMARK VINA RESULT:      -6.9      5.487      7.187
REMARK  Name = 
REMARK  7 active torsions:
REMARK  status: ('A' for Active; 'I' for Inactive)
REMARK    1  A    between atoms: C_2  and  C_3
REMARK    2  A    between atoms: C_8  and  C_10
REMARK    3  A    between atoms: C_13  and  C_14
REMARK    4  A    between atoms: C_14  and  O_15
REMARK    5  A    between atoms: O_15  and  C_16
REMARK    6  A    between atoms: C_19  and  C_20
REMARK    7  A    between atoms: C_20  and  O_22
REMARK                            x       y       z     vdW  Elec       q    Type
REMARK                         _______ _______ _______ _____ _____    ______ ____
ROOT
ATOM      1  C   UNL     1       1.162   9.813  19.139  0.00  0.00    +0.000 C 
ATOM      2  C   UNL     1       1.811   9.484  17.813  0.00  0.00    +0.000 C 
ATOM      3  C   UNL     1       2.702   8.292  18.116  0.00  0.00    +0.000 C 
ATOM      4  C   UNL     1       2.194   7.693  19.434  0.00  0.00    +0.000 C 
ATOM      5  N   UNL     1       1.073   8.540  19.869  0.00  0.00    +0.000 NA
ATOM      6  H   UNL     1       1.146   8.721  20.873  0.00  0.00    +0.000 HD
ENDROOT
BRANCH   1  12
ATOM      7  C   UNL     1      -0.072  11.711  21.344  0.00  0.00    +0.000 C 
ATOM      8  C   UNL     1      -0.985  12.856  21.816  0.00  0.00    +0.000 C 
ATOM      9  C   UNL     1      -2.359  12.436  21.303  0.00  0.00    +0.000 C 
ATOM     10  C   UNL     1      -2.023  11.871  19.938  0.00  0.00    +0.000 C 
ATOM     11  N   UNL     1      -0.738  11.215  20.118  0.00  0.00    +0.000 N 
ATOM     12  C   UNL     1      -0.215  10.496  19.055  0.00  0.00    +0.000 C 
ATOM     13  O   UNL     1      -0.867  10.373  18.008  0.00  0.00    +0.000 OA
BRANCH   7  15
ATOM     14  N   UNL     1       0.114   9.959  23.312  0.00  0.00    +0.000 NA
ATOM     15  C   UNL     1       0.018  10.711  22.434  0.00  0.00    +0.000 C 
ENDBRANCH   7  15
ENDBRANCH   1  12
BRANCH   4  16
ATOM     16  C   UNL     1       1.738   6.236  19.253  0.00  0.00    +0.000 C 
BRANCH  16  17
ATOM     17  O   UNL     1       2.632   5.324  19.912  0.00  0.00    +0.000 OA
BRANCH  17  18
ATOM     18  C   UNL     1       3.779   5.096  19.164  0.00  0.00    +0.000 A 
ATOM     19  N   UNL     1       4.943   5.628  19.607  0.00  0.00    +0.000 NA
ATOM     20  C   UNL     1       6.052   5.412  18.874  0.00  0.00    +0.000 A 
ATOM     21  C   UNL     1       6.077   4.645  17.714  0.00  0.00    +0.000 A 
ATOM     22  C   UNL     1       4.868   4.100  17.266  0.00  0.00    +0.000 A 
ATOM     23  C   UNL     1       3.694   4.328  18.003  0.00  0.00    +0.000 A 
ATOM     24 CL   UNL     1       2.216   3.684  17.417  0.00  0.00    +0.000 Cl
BRANCH  21  25
ATOM     25  C   UNL     1       7.361   4.523  16.998  0.00  0.00    +0.000 C 
ATOM     26  O   UNL     1       7.490   4.933  15.855  0.00  0.00    +0.000 OA
BRANCH  25  27
ATOM     27  O   UNL     1       8.353   3.969  17.710  0.00  0.00    +0.000 OA
ATOM     28  H   UNL     1       9.200   3.827  17.243  0.00  0.00    +0.000 HD
ENDBRANCH  25  27
ENDBRANCH  21  25
ENDBRANCH  17  18
ENDBRANCH  16  17
ENDBRANCH   4  16
TORSDOF 7
ENDMDL
MODEL 4
REMARK VINA RESULT:      -6.7      5.321      6.979
REMARK  Name = 
REMARK  7 active torsions:
REMARK  status: ('A' for Active; 'I' for Inactive)
REMARK    1  A    between atoms: C_2  and  C_3
REMARK    2  A    between atoms: C_8  and  C_10
REMARK    3  A    between atoms: C_13  and  C_14
REMARK    4  A    between atoms: C_14  and  O_15
REMARK    5  A    between atoms: O_15  and  C_16
REMARK    6  A    between atoms: C_19  and  C_20
REMARK    7  A    between atoms: C_20  and  O_22
REMARK                            x       y       z     vdW  Elec       q    Type
REMARK                         _______ _______ _______ _____ _____    ______ ____
ROOT
ATOM      1  C   UNL     1       1.514   9.344  19.446  0.00  0.00    +0.000 C 
ATOM      2  C   UNL     1       1.499   9.010  17.971  0.00  0.00    +0.000 C 
ATOM      3  C   UNL     1       2.498   7.874  17.833  0.00  0.00    +0.000 C 
ATOM      4  C   UNL     1       2.689   7.289  19.237  0.00  0.00    +0.000 C 
ATOM      5  N   UNL     1       1.846   8.090  20.139  0.00  0.00    +0.000 NA
ATOM      6  H   UNL     1       2.362   8.304  20.995  0.00  0.00    +0.000 HD
ENDROOT
BRANCH   1  12
ATOM      7  C   UNL     1       0.475  12.273  18.869  0.00  0.00    +0.000 C 
ATOM      8  C   UNL     1      -0.629  13.335  18.725  0.00  0.00    +0.000 C 
ATOM      9  C   UNL     1      -1.357  13.260  20.063  0.00  0.00    +0.000 C 
ATOM     10  C   UNL     1      -1.379  11.768  20.324  0.00  0.00    +0.000 C 
ATOM     11  N   UNL     1      -0.110  11.286  19.806  0.00  0.00    +0.000 N 
ATOM     12  C   UNL     1       0.215   9.953  20.004  0.00  0.00    +0.000 C 
ATOM     13  O   UNL     1      -0.539   9.222  20.662  0.00  0.00    +0.000 OA
BRANCH   7  15
ATOM     14  N   UNL     1       2.665  13.476  19.728  0.00  0.00    +0.000 NA
ATOM     15  C   UNL     1       1.697  12.941  19.376  0.00  0.00    +0.000 C 
ENDBRANCH   7  15
ENDBRANCH   1  12
BRANCH   4  16
ATOM     16  C   UNL     1       2.288   5.806  19.290  0.00  0.00    +0.000 C 
BRANCH  16  17
ATOM     17  O   UNL     1       3.426   4.966  19.543  0.00  0.00    +0.000 OA
BRANCH  17  18
ATOM     18  C   UNL     1       4.218   4.819  18.413  0.00  0.00    +0.000 A 
ATOM     19  N   UNL     1       5.331   5.584  18.312  0.00  0.00    +0.000 NA
ATOM     20  C   UNL     1       6.093   5.445  17.211  0.00  0.00    +0.000 A 
ATOM     21  C   UNL     1       5.824   4.536  16.192  0.00  0.00    +0.000 A 
ATOM     22  C   UNL     1       4.670   3.750  16.307  0.00  0.00    +0.000 A 
ATOM     23  C   UNL     1       3.850   3.892  17.438  0.00  0.00    +0.000 A 
ATOM     24 CL   UNL     1       2.421   2.947  17.542  0.00  0.00    +0.000 Cl
BRANCH  21  25
ATOM     25  C   UNL     1       6.730   4.519  15.029  0.00  0.00    +0.000 C 
ATOM     26  O   UNL     1       7.665   5.299  14.942  0.00  0.00    +0.000 OA
BRANCH  25  27
ATOM     27  O   UNL     1       6.459   3.572  14.118  0.00  0.00    +0.000 OA
ATOM     28  H   UNL     1       5.710   2.976  14.317  0.00  0.00    +0.000 HD
ENDBRANCH  25  27
ENDBRANCH  21  25
ENDBRANCH  17  18
ENDBRANCH  16  17
ENDBRANCH   4  16
TORSDOF 7
ENDMDL
MODEL 5
REMARK VINA RESULT:      -6.6      5.991      7.213
REMARK  Name = 
REMARK  7 active torsions:
REMARK  status: ('A' for Active; 'I' for Inactive)
REMARK    1  A    between atoms: C_2  and  C_3
REMARK    2  A    between atoms: C_8  and  C_10
REMARK    3  A    between atoms: C_13  and  C_14
REMARK    4  A    between atoms: C_14  and  O_15
REMARK    5  A    between atoms: O_15  and  C_16
REMARK    6  A    between atoms: C_19  and  C_20
REMARK    7  A    between atoms: C_20  and  O_22
REMARK                            x       y       z     vdW  Elec       q    Type
REMARK                         _______ _______ _______ _____ _____    ______ ____
ROOT
ATOM      1  C   UNL     1       0.934   9.951  19.986  0.00  0.00    +0.000 C 
ATOM      2  C   UNL     1       0.256   9.949  18.635  0.00  0.00    +0.000 C 
ATOM      3  C   UNL     1       1.237   9.233  17.723  0.00  0.00    +0.000 C 
ATOM      4  C   UNL     1       2.189   8.451  18.637  0.00  0.00    +0.000 C 
ATOM      5  N   UNL     1       1.772   8.743  20.018  0.00  0.00    +0.000 NA
ATOM      6  H   UNL     1       2.596   8.919  20.597  0.00  0.00    +0.000 HD
ENDROOT
BRANCH   1  12
ATOM      7  C   UNL     1      -0.486  12.546  21.099  0.00  0.00    +0.000 C 
ATOM      8  C   UNL     1      -1.614  13.283  21.843  0.00  0.00    +0.000 C 
ATOM      9  C   UNL     1      -1.637  12.596  23.204  0.00  0.00    +0.000 C 
ATOM     10  C   UNL     1      -1.417  11.145  22.826  0.00  0.00    +0.000 C 
ATOM     11  N   UNL     1      -0.494  11.195  21.705  0.00  0.00    +0.000 N 
ATOM     12  C   UNL     1      -0.008   9.997  21.204  0.00  0.00    +0.000 C 
ATOM     13  O   UNL     1      -0.313   8.927  21.749  0.00  0.00    +0.000 OA
BRANCH   7  15
ATOM     14  N   UNL     1       1.785  13.846  21.464  0.00  0.00    +0.000 NA
ATOM     15  C   UNL     1       0.774  13.298  21.308  0.00  0.00    +0.000 C 
ENDBRANCH   7  15
ENDBRANCH   1  12
BRANCH   4  16
ATOM     16  C   UNL     1       2.127   6.941  18.357  0.00  0.00    +0.000 C 
BRANCH  16  17
ATOM     17  O   UNL     1       3.312   6.275  18.821  0.00  0.00    +0.000 OA
BRANCH  17  18
ATOM     18  C   UNL     1       4.107   5.844  17.767  0.00  0.00    +0.000 A 
ATOM     19  N   UNL     1       4.509   6.763  16.858  0.00  0.00    +0.000 NA
ATOM     20  C   UNL     1       5.272   6.340  15.832  0.00  0.00    +0.000 A 
ATOM     21  C   UNL     1       5.702   5.026  15.675  0.00  0.00    +0.000 A 
ATOM     22  C   UNL     1       5.280   4.085  16.623  0.00  0.00    +0.000 A 
ATOM     23  C   UNL     1       4.467   4.499  17.690  0.00  0.00    +0.000 A 
ATOM     24 CL   UNL     1       3.930   3.323  18.819  0.00  0.00    +0.000 Cl
BRANCH  21  25
ATOM     25  C   UNL     1       6.507   4.703  14.482  0.00  0.00    +0.000 C 
ATOM     26  O   UNL     1       6.104   3.917  13.640  0.00  0.00    +0.000 OA
BRANCH  25  27
ATOM     27  O   UNL     1       7.672   5.361  14.395  0.00  0.00    +0.000 OA
ATOM     28  H   UNL     1       7.931   5.898  15.170  0.00  0.00    +0.000 HD
ENDBRANCH  25  27
ENDBRANCH  21  25
ENDBRANCH  17  18
ENDBRANCH  16  17
ENDBRANCH   4  16
TORSDOF 7
ENDMDL
MODEL 6
REMARK VINA RESULT:      -6.5      4.861      6.364
REMARK  Name = 
REMARK  7 active torsions:
REMARK  status: ('A' for Active; 'I' for Inactive)
REMARK    1  A    between atoms: C_2  and  C_3
REMARK    2  A    between atoms: C_8  and  C_10
REMARK    3  A    between atoms: C_13  and  C_14
REMARK    4  A    between atoms: C_14  and  O_15
REMARK    5  A    between atoms: O_15  and  C_16
REMARK    6  A    between atoms: C_19  and  C_20
REMARK    7  A    between atoms: C_20  and  O_22
REMARK                            x       y       z     vdW  Elec       q    Type
REMARK                         _______ _______ _______ _____ _____    ______ ____
ROOT
ATOM      1  C   UNL     1       1.909   8.736  19.543  0.00  0.00    +0.000 C 
ATOM      2  C   UNL     1       1.736   8.445  18.070  0.00  0.00    +0.000 C 
ATOM      3  C   UNL     1       2.753   7.353  17.780  0.00  0.00    +0.000 C 
ATOM      4  C   UNL     1       3.125   6.736  19.134  0.00  0.00    +0.000 C 
ATOM      5  N   UNL     1       2.363   7.476  20.152  0.00  0.00    +0.000 NA
ATOM      6  H   UNL     1       2.966   7.686  20.951  0.00  0.00    +0.000 HD
ENDROOT
BRANCH   1  12
ATOM      7  C   UNL     1       0.392  11.412  18.815  0.00  0.00    +0.000 C 
ATOM      8  C   UNL     1      -0.855  12.312  18.759  0.00  0.00    +0.000 C 
ATOM      9  C   UNL     1      -1.311  12.361  20.213  0.00  0.00    +0.000 C 
ATOM     10  C   UNL     1      -1.082  10.932  20.661  0.00  0.00    +0.000 C 
ATOM     11  N   UNL     1       0.127  10.520  19.967  0.00  0.00    +0.000 N 
ATOM     12  C   UNL     1       0.661   9.276  20.266  0.00  0.00    +0.000 C 
ATOM     13  O   UNL     1       0.146   8.575  21.148  0.00  0.00    +0.000 OA
BRANCH   7  15
ATOM     14  N   UNL     1       2.503  12.980  19.068  0.00  0.00    +0.000 NA
ATOM     15  C   UNL     1       1.583  12.279  18.980  0.00  0.00    +0.000 C 
ENDBRANCH   7  15
ENDBRANCH   1  12
BRANCH   4  16
ATOM     16  C   UNL     1       2.787   5.237  19.183  0.00  0.00    +0.000 C 
BRANCH  16  17
ATOM     17  O   UNL     1       3.977   4.436  19.262  0.00  0.00    +0.000 OA
BRANCH  17  18
ATOM     18  C   UNL     1       4.714   4.492  18.086  0.00  0.00    +0.000 A 
ATOM     19  N   UNL     1       4.119   4.079  16.943  0.00  0.00    +0.000 NA
ATOM     20  C   UNL     1       4.839   4.126  15.806  0.00  0.00    +0.000 A 
ATOM     21  C   UNL     1       6.142   4.609  15.733  0.00  0.00    +0.000 A 
ATOM     22  C   UNL     1       6.747   5.034  16.923  0.00  0.00    +0.000 A 
ATOM     23  C   UNL     1       6.022   4.975  18.124  0.00  0.00    +0.000 A 
ATOM     24 CL   UNL     1       6.794   5.465  19.576  0.00  0.00    +0.000 Cl
BRANCH  21  25
ATOM     25  C   UNL     1       6.818   4.568  14.423  0.00  0.00    +0.000 C 
ATOM     26  O   UNL     1       6.432   3.827  13.533  0.00  0.00    +0.000 OA
BRANCH  25  27
ATOM     27  O   UNL     1       7.845   5.421  14.294  0.00  0.00    +0.000 OA
ATOM     28  H   UNL     1       7.935   6.106  14.986  0.00  0.00    +0.000 HD
ENDBRANCH  25  27
ENDBRANCH  21  25
ENDBRANCH  17  18
ENDBRANCH  16  17
ENDBRANCH   4  16
TORSDOF 7
ENDMDL
MODEL 7
REMARK VINA RESULT:      -6.5      4.738      8.199
REMARK  Name = 
REMARK  7 active torsions:
REMARK  status: ('A' for Active; 'I' for Inactive)
REMARK    1  A    between atoms: C_2  and  C_3
REMARK    2  A    between atoms: C_8  and  C_10
REMARK    3  A    between atoms: C_13  and  C_14
REMARK    4  A    between atoms: C_14  and  O_15
REMARK    5  A    between atoms: O_15  and  C_16
REMARK    6  A    between atoms: C_19  and  C_20
REMARK    7  A    between atoms: C_20  and  O_22
REMARK                            x       y       z     vdW  Elec       q    Type
REMARK                         _______ _______ _______ _____ _____    ______ ____
ROOT
ATOM      1  C   UNL     1       3.697   4.331  18.948  0.00  0.00    +0.000 C 
ATOM      2  C   UNL     1       2.659   3.537  19.708  0.00  0.00    +0.000 C 
ATOM      3  C   UNL     1       2.269   4.440  20.866  0.00  0.00    +0.000 C 
ATOM      4  C   UNL     1       2.714   5.857  20.480  0.00  0.00    +0.000 C 
ATOM      5  N   UNL     1       3.358   5.745  19.163  0.00  0.00    +0.000 NA
ATOM      6  H   UNL     1       4.216   6.303  19.149  0.00  0.00    +0.000 HD
ENDROOT
BRANCH   1  12
ATOM      7  C   UNL     1       6.292   4.716  17.186  0.00  0.00    +0.000 C 
ATOM      8  C   UNL     1       7.203   4.383  15.991  0.00  0.00    +0.000 C 
ATOM      9  C   UNL     1       6.275   4.549  14.792  0.00  0.00    +0.000 C 
ATOM     10  C   UNL     1       4.984   3.949  15.312  0.00  0.00    +0.000 C 
ATOM     11  N   UNL     1       4.943   4.327  16.715  0.00  0.00    +0.000 N 
ATOM     12  C   UNL     1       3.806   4.015  17.444  0.00  0.00    +0.000 C 
ATOM     13  O   UNL     1       2.837   3.484  16.885  0.00  0.00    +0.000 OA
BRANCH   7  15
ATOM     14  N   UNL     1       6.540   7.280  17.775  0.00  0.00    +0.000 NA
ATOM     15  C   UNL     1       6.437   6.159  17.490  0.00  0.00    +0.000 C 
ENDBRANCH   7  15
ENDBRANCH   1  12
BRANCH   4  16
ATOM     16  C   UNL     1       1.522   6.827  20.424  0.00  0.00    +0.000 C 
BRANCH  16  17
ATOM     17  O   UNL     1       1.950   8.188  20.594  0.00  0.00    +0.000 OA
BRANCH  17  18
ATOM     18  C   UNL     1       1.055   9.083  20.023  0.00  0.00    +0.000 A 
ATOM     19  N   UNL     1       0.125   9.652  20.826  0.00  0.00    +0.000 NA
ATOM     20  C   UNL     1      -0.747  10.513  20.268  0.00  0.00    +0.000 A 
ATOM     21  C   UNL     1      -0.722  10.880  18.927  0.00  0.00    +0.000 A 
ATOM     22  C   UNL     1       0.244  10.285  18.105  0.00  0.00    +0.000 A 
ATOM     23  C   UNL     1       1.151   9.369  18.661  0.00  0.00    +0.000 A 
ATOM     24 CL   UNL     1       2.303   8.623  17.631  0.00  0.00    +0.000 Cl
BRANCH  21  25
ATOM     25  C   UNL     1      -1.763  11.809  18.449  0.00  0.00    +0.000 C 
ATOM     26  O   UNL     1      -2.711  12.117  19.154  0.00  0.00    +0.000 OA
BRANCH  25  27
ATOM     27  O   UNL     1      -1.558  12.298  17.216  0.00  0.00    +0.000 OA
ATOM     28  H   UNL     1      -0.981  13.084  17.148  0.00  0.00    +0.000 HD
ENDBRANCH  25  27
ENDBRANCH  21  25
ENDBRANCH  17  18
ENDBRANCH  16  17
ENDBRANCH   4  16
TORSDOF 7
ENDMDL
MODEL 8
REMARK VINA RESULT:      -6.5      7.057     10.257
REMARK  Name = 
REMARK  7 active torsions:
REMARK  status: ('A' for Active; 'I' for Inactive)
REMARK    1  A    between atoms: C_2  and  C_3
REMARK    2  A    between atoms: C_8  and  C_10
REMARK    3  A    between atoms: C_13  and  C_14
REMARK    4  A    between atoms: C_14  and  O_15
REMARK    5  A    between atoms: O_15  and  C_16
REMARK    6  A    between atoms: C_19  and  C_20
REMARK    7  A    between atoms: C_20  and  O_22
REMARK                            x       y       z     vdW  Elec       q    Type
REMARK                         _______ _______ _______ _____ _____    ______ ____
ROOT
ATOM      1  C   UNL     1       2.041   7.621  18.299  0.00  0.00    +0.000 C 
ATOM      2  C   UNL     1       2.128   9.049  17.810  0.00  0.00    +0.000 C 
ATOM      3  C   UNL     1       1.196   9.819  18.730  0.00  0.00    +0.000 C 
ATOM      4  C   UNL     1       0.985   8.941  19.969  0.00  0.00    +0.000 C 
ATOM      5  N   UNL     1       1.751   7.706  19.739  0.00  0.00    +0.000 NA
ATOM      6  H   UNL     1       1.193   6.896  20.019  0.00  0.00    +0.000 HD
ENDROOT
BRANCH   1  12
ATOM      7  C   UNL     1       2.032   4.479  17.959  0.00  0.00    +0.000 C 
ATOM      8  C   UNL     1       2.602   3.154  17.423  0.00  0.00    +0.000 C 
ATOM      9  C   UNL     1       4.042   3.170  17.924  0.00  0.00    +0.000 C 
ATOM     10  C   UNL     1       4.426   4.622  17.723  0.00  0.00    +0.000 C 
ATOM     11  N   UNL     1       3.215   5.366  18.026  0.00  0.00    +0.000 N 
ATOM     12  C   UNL     1       3.285   6.751  18.040  0.00  0.00    +0.000 C 
ATOM     13  O   UNL     1       4.370   7.320  17.860  0.00  0.00    +0.000 OA
BRANCH   7  15
ATOM     14  N   UNL     1       0.888   4.051  20.302  0.00  0.00    +0.000 NA
ATOM     15  C   UNL     1       1.397   4.213  19.272  0.00  0.00    +0.000 C 
ENDBRANCH   7  15
ENDBRANCH   1  12
BRANCH   4  16
ATOM     16  C   UNL     1       1.463   9.647  21.249  0.00  0.00    +0.000 C 
BRANCH  16  17
ATOM     17  O   UNL     1       1.287  11.070  21.156  0.00  0.00    +0.000 OA
BRANCH  17  18
ATOM     18  C   UNL     1       0.041  11.466  21.622  0.00  0.00    +0.000 A 
ATOM     19  N   UNL     1      -0.396  10.943  22.792  0.00  0.00    +0.000 NA
ATOM     20  C   UNL     1      -1.609  11.322  23.237  0.00  0.00    +0.000 A 
ATOM     21  C   UNL     1      -2.419  12.248  22.586  0.00  0.00    +0.000 A 
ATOM     22  C   UNL     1      -1.956  12.783  21.378  0.00  0.00    +0.000 A 
ATOM     23  C   UNL     1      -0.703  12.386  20.883  0.00  0.00    +0.000 A 
ATOM     24 CL   UNL     1      -0.171  13.025  19.382  0.00  0.00    +0.000 Cl
BRANCH  21  25
ATOM     25  C   UNL     1      -3.738  12.541  23.176  0.00  0.00    +0.000 C 
ATOM     26  O   UNL     1      -4.535  13.276  22.612  0.00  0.00    +0.000 OA
BRANCH  25  27
ATOM     27  O   UNL     1      -3.988  11.917  24.336  0.00  0.00    +0.000 OA
ATOM     28  H   UNL     1      -4.479  12.427  25.010  0.00  0.00    +0.000 HD
ENDBRANCH  25  27
ENDBRANCH  21  25
ENDBRANCH  17  18
ENDBRANCH  16  17
ENDBRANCH   4  16
TORSDOF 7
ENDMDL
MODEL 9
REMARK VINA RESULT:      -6.5      5.814      7.460
REMARK  Name = 
REMARK  7 active torsions:
REMARK  status: ('A' for Active; 'I' for Inactive)
REMARK    1  A    between atoms: C_2  and  C_3
REMARK    2  A    between atoms: C_8  and  C_10
REMARK    3  A    between atoms: C_13  and  C_14
REMARK    4  A    between atoms: C_14  and  O_15
REMARK    5  A    between atoms: O_15  and  C_16
REMARK    6  A    between atoms: C_19  and  C_20
REMARK    7  A    between atoms: C_20  and  O_22
REMARK                            x       y       z     vdW  Elec       q    Type
REMARK                         _______ _______ _______ _____ _____    ______ ____
ROOT
ATOM      1  C   UNL     1       1.255   9.277  20.968  0.00  0.00    +0.000 C 
ATOM      2  C   UNL     1       0.937   9.289  19.490  0.00  0.00    +0.000 C 
ATOM      3  C   UNL     1       1.832   8.210  18.905  0.00  0.00    +0.000 C 
ATOM      4  C   UNL     1       2.262   7.319  20.077  0.00  0.00    +0.000 C 
ATOM      5  N   UNL     1       1.651   7.897  21.284  0.00  0.00    +0.000 NA
ATOM      6  H   UNL     1       2.334   7.908  22.045  0.00  0.00    +0.000 HD
ENDROOT
BRANCH   1  12
ATOM      7  C   UNL     1      -0.054  12.155  20.937  0.00  0.00    +0.000 C 
ATOM      8  C   UNL     1      -1.211  13.140  21.178  0.00  0.00    +0.000 C 
ATOM      9  C   UNL     1      -1.552  12.920  22.648  0.00  0.00    +0.000 C 
ATOM     10  C   UNL     1      -1.425  11.415  22.776  0.00  0.00    +0.000 C 
ATOM     11  N   UNL     1      -0.316  11.065  21.905  0.00  0.00    +0.000 N 
ATOM     12  C   UNL     1       0.121   9.749  21.897  0.00  0.00    +0.000 C 
ATOM     13  O   UNL     1      -0.391   8.921  22.663  0.00  0.00    +0.000 OA
BRANCH   7  15
ATOM     14  N   UNL     1       2.233  13.428  21.294  0.00  0.00    +0.000 NA
ATOM     15  C   UNL     1       1.222  12.874  21.163  0.00  0.00    +0.000 C 
ENDBRANCH   7  15
ENDBRANCH   1  12
BRANCH   4  16
ATOM     16  C   UNL     1       1.804   5.865  19.877  0.00  0.00    +0.000 C 
BRANCH  16  17
ATOM     17  O   UNL     1       2.869   4.940  20.155  0.00  0.00    +0.000 OA
BRANCH  17  18
ATOM     18  C   UNL     1       3.815   4.924  19.138  0.00  0.00    +0.000 A 
ATOM     19  N   UNL     1       5.048   5.413  19.410  0.00  0.00    +0.000 NA
ATOM     20  C   UNL     1       5.960   5.403  18.419  0.00  0.00    +0.000 A 
ATOM     21  C   UNL     1       5.721   4.887  17.150  0.00  0.00    +0.000 A 
ATOM     22  C   UNL     1       4.442   4.384  16.881  0.00  0.00    +0.000 A 
ATOM     23  C   UNL     1       3.467   4.402  17.893  0.00  0.00    +0.000 A 
ATOM     24 CL   UNL     1       1.896   3.816  17.532  0.00  0.00    +0.000 Cl
BRANCH  21  25
ATOM     25  C   UNL     1       6.806   4.976  16.155  0.00  0.00    +0.000 C 
ATOM     26  O   UNL     1       7.896   4.466  16.360  0.00  0.00    +0.000 OA
BRANCH  25  27
ATOM     27  O   UNL     1       6.481   5.619  15.024  0.00  0.00    +0.000 OA
ATOM     28  H   UNL     1       7.183   5.694  14.347  0.00  0.00    +0.000 HD
ENDBRANCH  25  27
ENDBRANCH  21  25
ENDBRANCH  17  18
ENDBRANCH  16  17
ENDBRANCH   4  16
TORSDOF 7
ENDMDL
