MODEL 1
REMARK VINA RESULT:      -5.7      0.000      0.000
REMARK  Name = 
REMARK  12 active torsions:
REMARK  status: ('A' for Active; 'I' for Inactive)
REMARK    1  A    between atoms: C_1  and  C_2
REMARK    2  A    between atoms: C_2  and  C_3
REMARK    3  A    between atoms: C_2  and  O_8
REMARK    4  A    between atoms: C_3  and  S_4
REMARK    5  A    between atoms: S_4  and  C_5
REMARK    6  A    between atoms: O_8  and  P_9
REMARK    7  A    between atoms: P_9  and  N_10
REMARK    8  A    between atoms: P_9  and  N_12
REMARK    9  A    between atoms: N_12  and  C_13
REMARK   10  A    between atoms: N_12  and  C_16
REMARK   11  A    between atoms: C_13  and  C_14
REMARK   12  A    between atoms: C_16  and  C_17
REMARK                            x       y       z     vdW  Elec       q    Type
REMARK                         _______ _______ _______ _____ _____    ______ ____
ROOT
ATOM      1  P   UNL     1       4.545   4.037  18.790  0.00  0.00    +0.000 P 
ATOM      2  O   UNL     1       4.617   3.083  19.981  0.00  0.00    +0.000 OA
ENDROOT
BRANCH   1   3
ATOM      3  N   UNL     1       4.437   3.076  17.428  0.00  0.00    +0.000 NA
ATOM      4  H   UNL     1       3.543   2.582  17.523  0.00  0.00    +0.000 HD
ATOM      5  H   UNL     1       5.137   2.350  17.378  0.00  0.00    +0.000 HD
ENDBRANCH   1   3
BRANCH   1   6
ATOM      6  O   UNL     1       6.274   3.976  18.751  0.00  0.00    +0.000 OA
BRANCH   6   8
ATOM      7  C   UNL     1       7.769   5.875  19.107  0.00  0.00    +0.000 C 
ATOM      8  C   UNL     1       6.911   5.087  18.124  0.00  0.00    +0.000 C 
BRANCH   8   9
ATOM      9  C   UNL     1       7.634   4.630  16.860  0.00  0.00    +0.000 C 
BRANCH   9  10
ATOM     10  S   UNL     1       6.797   4.839  15.303  0.00  0.00    +0.000 S 
ATOM     11  C   UNL     1       5.518   6.046  15.599  0.00  0.00    +0.000 C 
ATOM     12  O   UNL     1       7.748   5.454  14.386  0.00  0.00    +0.000 OA
ATOM     13  O   UNL     1       6.167   3.591  14.934  0.00  0.00    +0.000 OA
ENDBRANCH   9  10
ENDBRANCH   8   9
ENDBRANCH   6   8
ENDBRANCH   1   6
BRANCH   1  14
ATOM     14  N   UNL     1       2.767   4.100  18.830  0.00  0.00    +0.000 NA
BRANCH  14  15
ATOM     15  C   UNL     1       2.254   5.358  18.177  0.00  0.00    +0.000 C 
BRANCH  15  16
ATOM     16  C   UNL     1       3.088   6.640  18.302  0.00  0.00    +0.000 C 
ATOM     17 CL   UNL     1       2.140   7.911  19.130  0.00  0.00    +0.000 Cl
ENDBRANCH  15  16
ENDBRANCH  14  15
BRANCH  14  18
ATOM     18  C   UNL     1       2.103   2.938  18.186  0.00  0.00    +0.000 C 
BRANCH  18  19
ATOM     19  C   UNL     1       1.092   2.174  19.044  0.00  0.00    +0.000 C 
ATOM     20 CL   UNL     1       0.973   2.942  20.653  0.00  0.00    +0.000 Cl
ENDBRANCH  18  19
ENDBRANCH  14  18
ENDBRANCH   1  14
TORSDOF 10
ENDMDL
MODEL 2
REMARK VINA RESULT:      -5.6      0.969      1.129
REMARK  Name = 
REMARK  12 active torsions:
REMARK  status: ('A' for Active; 'I' for Inactive)
REMARK    1  A    between atoms: C_1  and  C_2
REMARK    2  A    between atoms: C_2  and  C_3
REMARK    3  A    between atoms: C_2  and  O_8
REMARK    4  A    between atoms: C_3  and  S_4
REMARK    5  A    between atoms: S_4  and  C_5
REMARK    6  A    between atoms: O_8  and  P_9
REMARK    7  A    between atoms: P_9  and  N_10
REMARK    8  A    between atoms: P_9  and  N_12
REMARK    9  A    between atoms: N_12  and  C_13
REMARK   10  A    between atoms: N_12  and  C_16
REMARK   11  A    between atoms: C_13  and  C_14
REMARK   12  A    between atoms: C_16  and  C_17
REMARK                            x       y       z     vdW  Elec       q    Type
REMARK                         _______ _______ _______ _____ _____    ______ ____
ROOT
ATOM      1  P   UNL     1       4.576   4.014  18.770  0.00  0.00    +0.000 P 
ATOM      2  O   UNL     1       4.662   3.149  20.027  0.00  0.00    +0.000 OA
ENDROOT
BRANCH   1   3
ATOM      3  N   UNL     1       4.487   2.955  17.481  0.00  0.00    +0.000 NA
ATOM      4  H   UNL     1       3.950   3.455  16.764  0.00  0.00    +0.000 HD
ATOM      5  H   UNL     1       3.959   2.117  17.670  0.00  0.00    +0.000 HD
ENDBRANCH   1   3
BRANCH   1   6
ATOM      6  O   UNL     1       6.305   3.979  18.736  0.00  0.00    +0.000 OA
BRANCH   6   8
ATOM      7  C   UNL     1       7.858   5.847  18.999  0.00  0.00    +0.000 C 
ATOM      8  C   UNL     1       6.925   5.078  18.071  0.00  0.00    +0.000 C 
BRANCH   8   9
ATOM      9  C   UNL     1       7.561   4.607  16.765  0.00  0.00    +0.000 C 
BRANCH   9  10
ATOM     10  S   UNL     1       6.861   5.201  15.240  0.00  0.00    +0.000 S 
ATOM     11  C   UNL     1       6.045   3.798  14.502  0.00  0.00    +0.000 C 
ATOM     12  O   UNL     1       5.817   6.154  15.592  0.00  0.00    +0.000 OA
ATOM     13  O   UNL     1       7.931   5.618  14.361  0.00  0.00    +0.000 OA
ENDBRANCH   9  10
ENDBRANCH   8   9
ENDBRANCH   6   8
ENDBRANCH   1   6
BRANCH   1  14
ATOM     14  N   UNL     1       2.797   4.049  18.804  0.00  0.00    +0.000 NA
BRANCH  14  15
ATOM     15  C   UNL     1       2.261   5.193  17.982  0.00  0.00    +0.000 C 
BRANCH  15  16
ATOM     16  C   UNL     1       2.533   6.626  18.458  0.00  0.00    +0.000 C 
ATOM     17 CL   UNL     1       2.061   6.804  20.174  0.00  0.00    +0.000 Cl
ENDBRANCH  15  16
ENDBRANCH  14  15
BRANCH  14  18
ATOM     18  C   UNL     1       2.155   2.796  18.331  0.00  0.00    +0.000 C 
BRANCH  18  19
ATOM     19  C   UNL     1       1.316   2.034  19.359  0.00  0.00    +0.000 C 
ATOM     20 CL   UNL     1       1.073   3.055  20.806  0.00  0.00    +0.000 Cl
ENDBRANCH  18  19
ENDBRANCH  14  18
ENDBRANCH   1  14
TORSDOF 10
ENDMDL
MODEL 3
REMARK VINA RESULT:      -5.5      3.722      6.181
REMARK  Name = 
REMARK  12 active torsions:
REMARK  status: ('A' for Active; 'I' for Inactive)
REMARK    1  A    between atoms: C_1  and  C_2
REMARK    2  A    between atoms: C_2  and  C_3
REMARK    3  A    between atoms: C_2  and  O_8
REMARK    4  A    between atoms: C_3  and  S_4
REMARK    5  A    between atoms: S_4  and  C_5
REMARK    6  A    between atoms: O_8  and  P_9
REMARK    7  A    between atoms: P_9  and  N_10
REMARK    8  A    between atoms: P_9  and  N_12
REMARK    9  A    between atoms: N_12  and  C_13
REMARK   10  A    between atoms: N_12  and  C_16
REMARK   11  A    between atoms: C_13  and  C_14
REMARK   12  A    between atoms: C_16  and  C_17
REMARK                            x       y       z     vdW  Elec       q    Type
REMARK                         _______ _______ _______ _____ _____    ______ ____
ROOT
ATOM      1  P   UNL     1       4.718   4.454  17.807  0.00  0.00    +0.000 P 
ATOM      2  O   UNL     1       4.109   3.456  16.823  0.00  0.00    +0.000 OA
ENDROOT
BRANCH   1   3
ATOM      3  N   UNL     1       5.454   3.544  18.999  0.00  0.00    +0.000 NA
ATOM      4  H   UNL     1       4.797   3.558  19.786  0.00  0.00    +0.000 HD
ATOM      5  H   UNL     1       6.307   3.945  19.358  0.00  0.00    +0.000 HD
ENDBRANCH   1   3
BRANCH   1   6
ATOM      6  O   UNL     1       3.206   4.411  18.647  0.00  0.00    +0.000 OA
BRANCH   6   8
ATOM      7  C   UNL     1       2.788   6.686  19.434  0.00  0.00    +0.000 C 
ATOM      8  C   UNL     1       3.123   5.245  19.800  0.00  0.00    +0.000 C 
BRANCH   8   9
ATOM      9  C   UNL     1       2.198   4.612  20.838  0.00  0.00    +0.000 C 
BRANCH   9  10
ATOM     10  S   UNL     1       2.261   2.845  21.037  0.00  0.00    +0.000 S 
ATOM     11  C   UNL     1       1.489   2.165  19.581  0.00  0.00    +0.000 C 
ATOM     12  O   UNL     1       3.665   2.458  20.984  0.00  0.00    +0.000 OA
ATOM     13  O   UNL     1       1.469   2.470  22.187  0.00  0.00    +0.000 OA
ENDBRANCH   9  10
ENDBRANCH   8   9
ENDBRANCH   6   8
ENDBRANCH   1   6
BRANCH   1  14
ATOM     14  N   UNL     1       6.274   4.498  16.944  0.00  0.00    +0.000 NA
BRANCH  14  15
ATOM     15  C   UNL     1       6.167   3.827  15.599  0.00  0.00    +0.000 C 
BRANCH  15  16
ATOM     16  C   UNL     1       6.674   4.580  14.362  0.00  0.00    +0.000 C 
ATOM     17 CL   UNL     1       6.250   3.679  12.877  0.00  0.00    +0.000 Cl
ENDBRANCH  15  16
ENDBRANCH  14  15
BRANCH  14  18
ATOM     18  C   UNL     1       6.816   5.865  16.740  0.00  0.00    +0.000 C 
BRANCH  18  19
ATOM     19  C   UNL     1       7.447   6.534  17.963  0.00  0.00    +0.000 C 
ATOM     20 CL   UNL     1       7.851   8.231  17.574  0.00  0.00    +0.000 Cl
ENDBRANCH  18  19
ENDBRANCH  14  18
ENDBRANCH   1  14
TORSDOF 10
ENDMDL
MODEL 4
REMARK VINA RESULT:      -5.5      0.767      2.618
REMARK  Name = 
REMARK  12 active torsions:
REMARK  status: ('A' for Active; 'I' for Inactive)
REMARK    1  A    between atoms: C_1  and  C_2
REMARK    2  A    between atoms: C_2  and  C_3
REMARK    3  A    between atoms: C_2  and  O_8
REMARK    4  A    between atoms: C_3  and  S_4
REMARK    5  A    between atoms: S_4  and  C_5
REMARK    6  A    between atoms: O_8  and  P_9
REMARK    7  A    between atoms: P_9  and  N_10
REMARK    8  A    between atoms: P_9  and  N_12
REMARK    9  A    between atoms: N_12  and  C_13
REMARK   10  A    between atoms: N_12  and  C_16
REMARK   11  A    between atoms: C_13  and  C_14
REMARK   12  A    between atoms: C_16  and  C_17
REMARK                            x       y       z     vdW  Elec       q    Type
REMARK                         _______ _______ _______ _____ _____    ______ ____
ROOT
ATOM      1  P   UNL     1       4.385   4.156  18.781  0.00  0.00    +0.000 P 
ATOM      2  O   UNL     1       4.322   3.426  20.122  0.00  0.00    +0.000 OA
ENDROOT
BRANCH   1   3
ATOM      3  N   UNL     1       4.327   2.973  17.603  0.00  0.00    +0.000 NA
ATOM      4  H   UNL     1       3.848   2.182  18.047  0.00  0.00    +0.000 HD
ATOM      5  H   UNL     1       5.230   2.617  17.330  0.00  0.00    +0.000 HD
ENDBRANCH   1   3
BRANCH   1   6
ATOM      6  O   UNL     1       6.107   4.024  18.891  0.00  0.00    +0.000 OA
BRANCH   6   8
ATOM      7  C   UNL     1       7.735   5.803  19.284  0.00  0.00    +0.000 C 
ATOM      8  C   UNL     1       6.841   5.083  18.281  0.00  0.00    +0.000 C 
BRANCH   8   9
ATOM      9  C   UNL     1       7.556   4.570  17.033  0.00  0.00    +0.000 C 
BRANCH   9  10
ATOM     10  S   UNL     1       6.753   4.803  15.462  0.00  0.00    +0.000 S 
ATOM     11  C   UNL     1       5.496   6.038  15.738  0.00  0.00    +0.000 C 
ATOM     12  O   UNL     1       7.733   5.399  14.564  0.00  0.00    +0.000 OA
ATOM     13  O   UNL     1       6.101   3.571  15.078  0.00  0.00    +0.000 OA
ENDBRANCH   9  10
ENDBRANCH   8   9
ENDBRANCH   6   8
ENDBRANCH   1   6
BRANCH   1  14
ATOM     14  N   UNL     1       2.614   4.292  18.667  0.00  0.00    +0.000 NA
BRANCH  14  15
ATOM     15  C   UNL     1       1.976   4.217  20.030  0.00  0.00    +0.000 C 
BRANCH  15  16
ATOM     16  C   UNL     1       1.013   3.058  20.324  0.00  0.00    +0.000 C 
ATOM     17 CL   UNL     1       1.300   2.424  21.972  0.00  0.00    +0.000 Cl
ENDBRANCH  15  16
ENDBRANCH  14  15
BRANCH  14  18
ATOM     18  C   UNL     1       2.142   5.532  18.000  0.00  0.00    +0.000 C 
BRANCH  18  19
ATOM     19  C   UNL     1       2.933   6.807  18.302  0.00  0.00    +0.000 C 
ATOM     20 CL   UNL     1       2.084   7.753  19.559  0.00  0.00    +0.000 Cl
ENDBRANCH  18  19
ENDBRANCH  14  18
ENDBRANCH   1  14
TORSDOF 10
ENDMDL
MODEL 5
REMARK VINA RESULT:      -5.4      3.844      6.350
REMARK  Name = 
REMARK  12 active torsions:
REMARK  status: ('A' for Active; 'I' for Inactive)
REMARK    1  A    between atoms: C_1  and  C_2
REMARK    2  A    between atoms: C_2  and  C_3
REMARK    3  A    between atoms: C_2  and  O_8
REMARK    4  A    between atoms: C_3  and  S_4
REMARK    5  A    between atoms: S_4  and  C_5
REMARK    6  A    between atoms: O_8  and  P_9
REMARK    7  A    between atoms: P_9  and  N_10
REMARK    8  A    between atoms: P_9  and  N_12
REMARK    9  A    between atoms: N_12  and  C_13
REMARK   10  A    between atoms: N_12  and  C_16
REMARK   11  A    between atoms: C_13  and  C_14
REMARK   12  A    between atoms: C_16  and  C_17
REMARK                            x       y       z     vdW  Elec       q    Type
REMARK                         _______ _______ _______ _____ _____    ______ ____
ROOT
ATOM      1  P   UNL     1       6.625   5.208  18.571  0.00  0.00    +0.000 P 
ATOM      2  O   UNL     1       7.454   4.129  17.876  0.00  0.00    +0.000 OA
ENDROOT
BRANCH   1   3
ATOM      3  N   UNL     1       7.480   5.644  19.938  0.00  0.00    +0.000 NA
ATOM      4  H   UNL     1       7.776   4.757  20.360  0.00  0.00    +0.000 HD
ATOM      5  H   UNL     1       6.924   6.102  20.645  0.00  0.00    +0.000 HD
ENDBRANCH   1   3
BRANCH   1   6
ATOM      6  O   UNL     1       5.834   3.926  19.421  0.00  0.00    +0.000 OA
BRANCH   6   8
ATOM      7  C   UNL     1       4.142   3.417  17.733  0.00  0.00    +0.000 C 
ATOM      8  C   UNL     1       4.434   3.804  19.178  0.00  0.00    +0.000 C 
BRANCH   8   9
ATOM      9  C   UNL     1       3.798   2.896  20.229  0.00  0.00    +0.000 C 
BRANCH   9  10
ATOM     10  S   UNL     1       2.255   3.414  20.948  0.00  0.00    +0.000 S 
ATOM     11  C   UNL     1       0.993   2.946  19.779  0.00  0.00    +0.000 C 
ATOM     12  O   UNL     1       2.044   2.602  22.139  0.00  0.00    +0.000 OA
ATOM     13  O   UNL     1       2.250   4.856  21.068  0.00  0.00    +0.000 OA
ENDBRANCH   9  10
ENDBRANCH   8   9
ENDBRANCH   6   8
ENDBRANCH   1   6
BRANCH   1  14
ATOM     14  N   UNL     1       7.439   6.527  17.697  0.00  0.00    +0.000 NA
BRANCH  14  15
ATOM     15  C   UNL     1       6.464   7.293  16.841  0.00  0.00    +0.000 C 
BRANCH  15  16
ATOM     16  C   UNL     1       5.153   6.607  16.432  0.00  0.00    +0.000 C 
ATOM     17 CL   UNL     1       5.434   5.533  15.029  0.00  0.00    +0.000 Cl
ENDBRANCH  15  16
ENDBRANCH  14  15
BRANCH  14  18
ATOM     18  C   UNL     1       8.144   7.494  18.576  0.00  0.00    +0.000 C 
BRANCH  18  19
ATOM     19  C   UNL     1       8.243   8.932  18.061  0.00  0.00    +0.000 C 
ATOM     20 CL   UNL     1       9.221   9.907  19.196  0.00  0.00    +0.000 Cl
ENDBRANCH  18  19
ENDBRANCH  14  18
ENDBRANCH   1  14
TORSDOF 10
ENDMDL
MODEL 6
REMARK VINA RESULT:      -5.4      2.645      3.138
REMARK  Name = 
REMARK  12 active torsions:
REMARK  status: ('A' for Active; 'I' for Inactive)
REMARK    1  A    between atoms: C_1  and  C_2
REMARK    2  A    between atoms: C_2  and  C_3
REMARK    3  A    between atoms: C_2  and  O_8
REMARK    4  A    between atoms: C_3  and  S_4
REMARK    5  A    between atoms: S_4  and  C_5
REMARK    6  A    between atoms: O_8  and  P_9
REMARK    7  A    between atoms: P_9  and  N_10
REMARK    8  A    between atoms: P_9  and  N_12
REMARK    9  A    between atoms: N_12  and  C_13
REMARK   10  A    between atoms: N_12  and  C_16
REMARK   11  A    between atoms: C_13  and  C_14
REMARK   12  A    between atoms: C_16  and  C_17
REMARK                            x       y       z     vdW  Elec       q    Type
REMARK                         _______ _______ _______ _____ _____    ______ ____
ROOT
ATOM      1  P   UNL     1       2.728   5.348  18.820  0.00  0.00    +0.000 P 
ATOM      2  O   UNL     1       2.010   6.249  17.816  0.00  0.00    +0.000 OA
ENDROOT
BRANCH   1   3
ATOM      3  N   UNL     1       2.539   6.070  20.314  0.00  0.00    +0.000 NA
ATOM      4  H   UNL     1       1.717   5.614  20.726  0.00  0.00    +0.000 HD
ATOM      5  H   UNL     1       2.305   7.050  20.273  0.00  0.00    +0.000 HD
ENDBRANCH   1   3
BRANCH   1   6
ATOM      6  O   UNL     1       4.152   6.279  18.501  0.00  0.00    +0.000 OA
BRANCH   6   8
ATOM      7  C   UNL     1       5.439   4.387  19.359  0.00  0.00    +0.000 C 
ATOM      8  C   UNL     1       5.353   5.525  18.349  0.00  0.00    +0.000 C 
BRANCH   8   9
ATOM      9  C   UNL     1       5.525   5.107  16.890  0.00  0.00    +0.000 C 
BRANCH   9  10
ATOM     10  S   UNL     1       7.157   5.205  16.187  0.00  0.00    +0.000 S 
ATOM     11  C   UNL     1       6.963   4.818  14.456  0.00  0.00    +0.000 C 
ATOM     12  O   UNL     1       7.572   6.599  16.259  0.00  0.00    +0.000 OA
ATOM     13  O   UNL     1       7.992   4.188  16.787  0.00  0.00    +0.000 OA
ENDBRANCH   9  10
ENDBRANCH   8   9
ENDBRANCH   6   8
ENDBRANCH   1   6
BRANCH   1  14
ATOM     14  N   UNL     1       1.264   4.390  19.148  0.00  0.00    +0.000 NA
BRANCH  14  15
ATOM     15  C   UNL     1       1.332   3.047  18.470  0.00  0.00    +0.000 C 
BRANCH  15  16
ATOM     16  C   UNL     1       2.546   2.734  17.584  0.00  0.00    +0.000 C 
ATOM     17 CL   UNL     1       3.547   1.459  18.341  0.00  0.00    +0.000 Cl
ENDBRANCH  15  16
ENDBRANCH  14  15
BRANCH  14  18
ATOM     18  C   UNL     1       0.993   4.170  20.591  0.00  0.00    +0.000 C 
BRANCH  18  19
ATOM     19  C   UNL     1       1.211   2.748  21.112  0.00  0.00    +0.000 C 
ATOM     20 CL   UNL     1       2.912   2.553  21.625  0.00  0.00    +0.000 Cl
ENDBRANCH  18  19
ENDBRANCH  14  18
ENDBRANCH   1  14
TORSDOF 10
ENDMDL
MODEL 7
REMARK VINA RESULT:      -5.4      1.531      1.684
REMARK  Name = 
REMARK  12 active torsions:
REMARK  status: ('A' for Active; 'I' for Inactive)
REMARK    1  A    between atoms: C_1  and  C_2
REMARK    2  A    between atoms: C_2  and  C_3
REMARK    3  A    between atoms: C_2  and  O_8
REMARK    4  A    between atoms: C_3  and  S_4
REMARK    5  A    between atoms: S_4  and  C_5
REMARK    6  A    between atoms: O_8  and  P_9
REMARK    7  A    between atoms: P_9  and  N_10
REMARK    8  A    between atoms: P_9  and  N_12
REMARK    9  A    between atoms: N_12  and  C_13
REMARK   10  A    between atoms: N_12  and  C_16
REMARK   11  A    between atoms: C_13  and  C_14
REMARK   12  A    between atoms: C_16  and  C_17
REMARK                            x       y       z     vdW  Elec       q    Type
REMARK                         _______ _______ _______ _____ _____    ______ ____
ROOT
ATOM      1  P   UNL     1       4.623   4.611  19.411  0.00  0.00    +0.000 P 
ATOM      2  O   UNL     1       4.483   3.131  19.765  0.00  0.00    +0.000 OA
ENDROOT
BRANCH   1   3
ATOM      3  N   UNL     1       3.871   4.810  17.933  0.00  0.00    +0.000 NA
ATOM      4  H   UNL     1       3.245   5.612  18.061  0.00  0.00    +0.000 HD
ATOM      5  H   UNL     1       3.269   4.044  17.669  0.00  0.00    +0.000 HD
ENDBRANCH   1   3
BRANCH   1   6
ATOM      6  O   UNL     1       6.117   4.193  18.645  0.00  0.00    +0.000 OA
BRANCH   6   8
ATOM      7  C   UNL     1       7.580   6.111  18.253  0.00  0.00    +0.000 C 
ATOM      8  C   UNL     1       6.581   5.121  17.666  0.00  0.00    +0.000 C 
BRANCH   8   9
ATOM      9  C   UNL     1       7.069   4.372  16.427  0.00  0.00    +0.000 C 
BRANCH   9  10
ATOM     10  S   UNL     1       6.746   5.101  14.836  0.00  0.00    +0.000 S 
ATOM     11  C   UNL     1       6.211   3.761  13.788  0.00  0.00    +0.000 C 
ATOM     12  O   UNL     1       5.602   5.989  14.997  0.00  0.00    +0.000 OA
ATOM     13  O   UNL     1       7.981   5.631  14.300  0.00  0.00    +0.000 OA
ENDBRANCH   9  10
ENDBRANCH   8   9
ENDBRANCH   6   8
ENDBRANCH   1   6
BRANCH   1  14
ATOM     14  N   UNL     1       3.086   5.040  20.200  0.00  0.00    +0.000 NA
BRANCH  14  15
ATOM     15  C   UNL     1       2.243   5.911  19.305  0.00  0.00    +0.000 C 
BRANCH  15  16
ATOM     16  C   UNL     1       2.230   7.425  19.559  0.00  0.00    +0.000 C 
ATOM     17 CL   UNL     1       2.177   8.308  18.004  0.00  0.00    +0.000 Cl
ENDBRANCH  15  16
ENDBRANCH  14  15
BRANCH  14  18
ATOM     18  C   UNL     1       2.270   3.872  20.615  0.00  0.00    +0.000 C 
BRANCH  18  19
ATOM     19  C   UNL     1       0.944   3.674  19.876  0.00  0.00    +0.000 C 
ATOM     20 CL   UNL     1       1.068   2.257  18.793  0.00  0.00    +0.000 Cl
ENDBRANCH  18  19
ENDBRANCH  14  18
ENDBRANCH   1  14
TORSDOF 10
ENDMDL
MODEL 8
REMARK VINA RESULT:      -5.4      3.976      6.035
REMARK  Name = 
REMARK  12 active torsions:
REMARK  status: ('A' for Active; 'I' for Inactive)
REMARK    1  A    between atoms: C_1  and  C_2
REMARK    2  A    between atoms: C_2  and  C_3
REMARK    3  A    between atoms: C_2  and  O_8
REMARK    4  A    between atoms: C_3  and  S_4
REMARK    5  A    between atoms: S_4  and  C_5
REMARK    6  A    between atoms: O_8  and  P_9
REMARK    7  A    between atoms: P_9  and  N_10
REMARK    8  A    between atoms: P_9  and  N_12
REMARK    9  A    between atoms: N_12  and  C_13
REMARK   10  A    between atoms: N_12  and  C_16
REMARK   11  A    between atoms: C_13  and  C_14
REMARK   12  A    between atoms: C_16  and  C_17
REMARK                            x       y       z     vdW  Elec       q    Type
REMARK                         _______ _______ _______ _____ _____    ______ ____
ROOT
ATOM      1  P   UNL     1       5.775   4.561  18.134  0.00  0.00    +0.000 P 
ATOM      2  O   UNL     1       7.189   4.382  18.683  0.00  0.00    +0.000 OA
ENDROOT
BRANCH   1   3
ATOM      3  N   UNL     1       5.072   5.774  19.043  0.00  0.00    +0.000 NA
ATOM      4  H   UNL     1       4.062   5.616  18.960  0.00  0.00    +0.000 HD
ATOM      5  H   UNL     1       5.226   6.703  18.682  0.00  0.00    +0.000 HD
ENDBRANCH   1   3
BRANCH   1   6
ATOM      6  O   UNL     1       5.277   3.358  19.273  0.00  0.00    +0.000 OA
BRANCH   6   8
ATOM      7  C   UNL     1       3.714   1.945  18.036  0.00  0.00    +0.000 C 
ATOM      8  C   UNL     1       3.916   2.944  19.170  0.00  0.00    +0.000 C 
BRANCH   8   9
ATOM      9  C   UNL     1       3.405   2.484  20.533  0.00  0.00    +0.000 C 
BRANCH   9  10
ATOM     10  S   UNL     1       1.963   3.290  21.194  0.00  0.00    +0.000 S 
ATOM     11  C   UNL     1       0.729   3.208  19.909  0.00  0.00    +0.000 C 
ATOM     12  O   UNL     1       1.477   2.466  22.293  0.00  0.00    +0.000 OA
ATOM     13  O   UNL     1       2.270   4.682  21.438  0.00  0.00    +0.000 OA
ENDBRANCH   9  10
ENDBRANCH   8   9
ENDBRANCH   6   8
ENDBRANCH   1   6
BRANCH   1  14
ATOM     14  N   UNL     1       6.286   5.799  16.963  0.00  0.00    +0.000 NA
BRANCH  14  15
ATOM     15  C   UNL     1       7.461   6.586  17.484  0.00  0.00    +0.000 C 
BRANCH  15  16
ATOM     16  C   UNL     1       7.398   8.119  17.428  0.00  0.00    +0.000 C 
ATOM     17 CL   UNL     1       8.631   8.825  18.514  0.00  0.00    +0.000 Cl
ENDBRANCH  15  16
ENDBRANCH  14  15
BRANCH  14  18
ATOM     18  C   UNL     1       6.645   5.260  15.627  0.00  0.00    +0.000 C 
BRANCH  18  19
ATOM     19  C   UNL     1       5.614   4.340  14.969  0.00  0.00    +0.000 C 
ATOM     20 CL   UNL     1       6.226   3.796  13.379  0.00  0.00    +0.000 Cl
ENDBRANCH  18  19
ENDBRANCH  14  18
ENDBRANCH   1  14
TORSDOF 10
ENDMDL
MODEL 9
REMARK VINA RESULT:      -5.4      1.850      2.682
REMARK  Name = 
REMARK  12 active torsions:
REMARK  status: ('A' for Active; 'I' for Inactive)
REMARK    1  A    between atoms: C_1  and  C_2
REMARK    2  A    between atoms: C_2  and  C_3
REMARK    3  A    between atoms: C_2  and  O_8
REMARK    4  A    between atoms: C_3  and  S_4
REMARK    5  A    between atoms: S_4  and  C_5
REMARK    6  A    between atoms: O_8  and  P_9
REMARK    7  A    between atoms: P_9  and  N_10
REMARK    8  A    between atoms: P_9  and  N_12
REMARK    9  A    between atoms: N_12  and  C_13
REMARK   10  A    between atoms: N_12  and  C_16
REMARK   11  A    between atoms: C_13  and  C_14
REMARK   12  A    between atoms: C_16  and  C_17
REMARK                            x       y       z     vdW  Elec       q    Type
REMARK                         _______ _______ _______ _____ _____    ______ ____
ROOT
ATOM      1  P   UNL     1       3.612   3.849  17.701  0.00  0.00    +0.000 P 
ATOM      2  O   UNL     1       3.935   2.414  18.115  0.00  0.00    +0.000 OA
ENDROOT
BRANCH   1   3
ATOM      3  N   UNL     1       2.036   3.832  17.149  0.00  0.00    +0.000 NA
ATOM      4  H   UNL     1       1.813   4.814  16.955  0.00  0.00    +0.000 HD
ATOM      5  H   UNL     1       1.360   3.538  17.838  0.00  0.00    +0.000 HD
ENDBRANCH   1   3
BRANCH   1   6
ATOM      6  O   UNL     1       4.213   3.436  16.132  0.00  0.00    +0.000 OA
BRANCH   6   8
ATOM      7  C   UNL     1       5.564   4.226  14.255  0.00  0.00    +0.000 C 
ATOM      8  C   UNL     1       5.443   4.057  15.765  0.00  0.00    +0.000 C 
BRANCH   8   9
ATOM      9  C   UNL     1       5.644   5.336  16.575  0.00  0.00    +0.000 C 
BRANCH   9  10
ATOM     10  S   UNL     1       7.243   5.614  17.305  0.00  0.00    +0.000 S 
ATOM     11  C   UNL     1       6.967   5.677  19.066  0.00  0.00    +0.000 C 
ATOM     12  O   UNL     1       8.042   4.423  17.050  0.00  0.00    +0.000 OA
ATOM     13  O   UNL     1       7.740   6.903  16.878  0.00  0.00    +0.000 OA
ENDBRANCH   9  10
ENDBRANCH   8   9
ENDBRANCH   6   8
ENDBRANCH   1   6
BRANCH   1  14
ATOM     14  N   UNL     1       2.995   4.275  19.315  0.00  0.00    +0.000 NA
BRANCH  14  15
ATOM     15  C   UNL     1       3.376   5.684  19.687  0.00  0.00    +0.000 C 
BRANCH  15  16
ATOM     16  C   UNL     1       2.284   6.763  19.682  0.00  0.00    +0.000 C 
ATOM     17 CL   UNL     1       2.340   7.686  18.151  0.00  0.00    +0.000 Cl
ENDBRANCH  15  16
ENDBRANCH  14  15
BRANCH  14  18
ATOM     18  C   UNL     1       1.523   4.138  19.457  0.00  0.00    +0.000 C 
BRANCH  18  19
ATOM     19  C   UNL     1       1.032   3.035  20.398  0.00  0.00    +0.000 C 
ATOM     20 CL   UNL     1       2.067   2.989  21.854  0.00  0.00    +0.000 Cl
ENDBRANCH  18  19
ENDBRANCH  14  18
ENDBRANCH   1  14
TORSDOF 10
ENDMDL
