MODEL 1
REMARK VINA RESULT:      -6.9      0.000      0.000
REMARK  Name = 
REMARK  8 active torsions:
REMARK  status: ('A' for Active; 'I' for Inactive)
REMARK    1  A    between atoms: C_1  and  O_2
REMARK    2  A    between atoms: O_2  and  C_3
REMARK    3  A    between atoms: C_7  and  C_8
REMARK    4  A    between atoms: N_9  and  C_10
REMARK    5  A    between atoms: N_13  and  C_14
REMARK    6  A    between atoms: C_14  and  C_15
REMARK    7  A    between atoms: C_22  and  O_23
REMARK    8  A    between atoms: O_23  and  C_24
REMARK                            x       y       z     vdW  Elec       q    Type
REMARK                         _______ _______ _______ _____ _____    ______ ____
ROOT
ATOM      1  C   UNL     1       2.563   6.436  18.212  0.00  0.00    +0.000 C 
ATOM      2  N   UNL     1       3.538   6.923  17.495  0.00  0.00    +0.000 NA
ENDROOT
BRANCH   1   7
ATOM      3  C   UNL     1       2.362   3.103  20.041  0.00  0.00    +0.000 A 
ATOM      4  C   UNL     1       2.134   2.258  18.945  0.00  0.00    +0.000 A 
ATOM      5  C   UNL     1       1.896   2.786  17.682  0.00  0.00    +0.000 A 
ATOM      6  C   UNL     1       1.947   4.159  17.495  0.00  0.00    +0.000 A 
ATOM      7  C   UNL     1       2.277   5.016  18.546  0.00  0.00    +0.000 A 
ATOM      8  C   UNL     1       2.334   4.510  19.856  0.00  0.00    +0.000 A 
BRANCH   3  10
ATOM      9  C   UNL     1       1.456   2.430  22.135  0.00  0.00    +0.000 C 
ATOM     10  O   UNL     1       2.596   2.627  21.304  0.00  0.00    +0.000 OA
ENDBRANCH   3  10
BRANCH   8  11
ATOM     11  O   UNL     1       2.394   5.400  20.900  0.00  0.00    +0.000 OA
ATOM     12  C   UNL     1       1.232   6.239  21.005  0.00  0.00    +0.000 C 
ENDBRANCH   8  11
ENDBRANCH   1   7
BRANCH   2  13
ATOM     13  C   UNL     1       4.644   6.070  17.029  0.00  0.00    +0.000 C 
ATOM     14  C   UNL     1       5.672   5.898  18.144  0.00  0.00    +0.000 C 
ATOM     15  C   UNL     1       6.894   6.650  17.644  0.00  0.00    +0.000 C 
ATOM     16  N   UNL     1       6.888   6.460  16.182  0.00  0.00    +0.000 NA
ATOM     17  C   UNL     1       5.455   6.678  15.858  0.00  0.00    +0.000 C 
BRANCH  16  18
ATOM     18  C   UNL     1       7.364   5.096  15.864  0.00  0.00    +0.000 C 
BRANCH  18  19
ATOM     19  C   UNL     1       7.096   4.623  14.453  0.00  0.00    +0.000 A 
ATOM     20  C   UNL     1       6.071   3.708  14.185  0.00  0.00    +0.000 A 
ATOM     21  C   UNL     1       5.767   3.349  12.871  0.00  0.00    +0.000 A 
ATOM     22  C   UNL     1       6.483   3.905  11.812  0.00  0.00    +0.000 A 
ATOM     23  C   UNL     1       7.507   4.816  12.065  0.00  0.00    +0.000 A 
ATOM     24  C   UNL     1       7.812   5.176  13.378  0.00  0.00    +0.000 A 
ENDBRANCH  18  19
ENDBRANCH  16  18
ENDBRANCH   2  13
TORSDOF 6
ENDMDL
MODEL 2
REMARK VINA RESULT:      -6.9      3.209      5.302
REMARK  Name = 
REMARK  8 active torsions:
REMARK  status: ('A' for Active; 'I' for Inactive)
REMARK    1  A    between atoms: C_1  and  O_2
REMARK    2  A    between atoms: O_2  and  C_3
REMARK    3  A    between atoms: C_7  and  C_8
REMARK    4  A    between atoms: N_9  and  C_10
REMARK    5  A    between atoms: N_13  and  C_14
REMARK    6  A    between atoms: C_14  and  C_15
REMARK    7  A    between atoms: C_22  and  O_23
REMARK    8  A    between atoms: O_23  and  C_24
REMARK                            x       y       z     vdW  Elec       q    Type
REMARK                         _______ _______ _______ _____ _____    ______ ____
ROOT
ATOM      1  C   UNL     1       1.459   6.283  20.695  0.00  0.00    +0.000 C 
ATOM      2  N   UNL     1       1.952   5.100  20.457  0.00  0.00    +0.000 NA
ENDROOT
BRANCH   1   7
ATOM      3  C   UNL     1       1.011   9.802  19.311  0.00  0.00    +0.000 A 
ATOM      4  C   UNL     1       1.771   9.681  18.139  0.00  0.00    +0.000 A 
ATOM      5  C   UNL     1       2.528   8.542  17.900  0.00  0.00    +0.000 A 
ATOM      6  C   UNL     1       2.481   7.489  18.802  0.00  0.00    +0.000 A 
ATOM      7  C   UNL     1       1.650   7.540  19.922  0.00  0.00    +0.000 A 
ATOM      8  C   UNL     1       1.030   8.753  20.267  0.00  0.00    +0.000 A 
BRANCH   3  10
ATOM      9  C   UNL     1       0.953  12.140  19.743  0.00  0.00    +0.000 C 
ATOM     10  O   UNL     1       0.254  10.909  19.589  0.00  0.00    +0.000 OA
ENDBRANCH   3  10
BRANCH   8  11
ATOM     11  O   UNL     1       0.440   8.859  21.502  0.00  0.00    +0.000 OA
ATOM     12  C   UNL     1       1.322   9.366  22.518  0.00  0.00    +0.000 C 
ENDBRANCH   8  11
ENDBRANCH   1   7
BRANCH   2  13
ATOM     13  C   UNL     1       2.682   4.811  19.211  0.00  0.00    +0.000 C 
ATOM     14  C   UNL     1       1.823   3.942  18.296  0.00  0.00    +0.000 C 
ATOM     15  C   UNL     1       2.543   2.603  18.270  0.00  0.00    +0.000 C 
ATOM     16  N   UNL     1       3.977   2.939  18.360  0.00  0.00    +0.000 NA
ATOM     17  C   UNL     1       3.973   3.982  19.418  0.00  0.00    +0.000 C 
BRANCH  16  18
ATOM     18  C   UNL     1       4.447   3.431  17.047  0.00  0.00    +0.000 C 
BRANCH  18  19
ATOM     19  C   UNL     1       5.399   4.605  17.093  0.00  0.00    +0.000 A 
ATOM     20  C   UNL     1       5.006   5.866  16.628  0.00  0.00    +0.000 A 
ATOM     21  C   UNL     1       5.854   6.966  16.762  0.00  0.00    +0.000 A 
ATOM     22  C   UNL     1       7.103   6.816  17.362  0.00  0.00    +0.000 A 
ATOM     23  C   UNL     1       7.507   5.566  17.827  0.00  0.00    +0.000 A 
ATOM     24  C   UNL     1       6.660   4.465  17.695  0.00  0.00    +0.000 A 
ENDBRANCH  18  19
ENDBRANCH  16  18
ENDBRANCH   2  13
TORSDOF 6
ENDMDL
MODEL 3
REMARK VINA RESULT:      -6.8      0.593      1.150
REMARK  Name = 
REMARK  8 active torsions:
REMARK  status: ('A' for Active; 'I' for Inactive)
REMARK    1  A    between atoms: C_1  and  O_2
REMARK    2  A    between atoms: O_2  and  C_3
REMARK    3  A    between atoms: C_7  and  C_8
REMARK    4  A    between atoms: N_9  and  C_10
REMARK    5  A    between atoms: N_13  and  C_14
REMARK    6  A    between atoms: C_14  and  C_15
REMARK    7  A    between atoms: C_22  and  O_23
REMARK    8  A    between atoms: O_23  and  C_24
REMARK                            x       y       z     vdW  Elec       q    Type
REMARK                         _______ _______ _______ _____ _____    ______ ____
ROOT
ATOM      1  C   UNL     1       2.455   6.347  18.192  0.00  0.00    +0.000 C 
ATOM      2  N   UNL     1       3.471   6.878  17.570  0.00  0.00    +0.000 NA
ENDROOT
BRANCH   1   7
ATOM      3  C   UNL     1       1.500   2.988  19.710  0.00  0.00    +0.000 A 
ATOM      4  C   UNL     1       1.942   2.143  18.681  0.00  0.00    +0.000 A 
ATOM      5  C   UNL     1       2.386   2.668  17.475  0.00  0.00    +0.000 A 
ATOM      6  C   UNL     1       2.449   4.044  17.311  0.00  0.00    +0.000 A 
ATOM      7  C   UNL     1       2.117   4.908  18.356  0.00  0.00    +0.000 A 
ATOM      8  C   UNL     1       1.495   4.392  19.505  0.00  0.00    +0.000 A 
BRANCH   3  10
ATOM      9  C   UNL     1       2.002   2.446  21.971  0.00  0.00    +0.000 C 
ATOM     10  O   UNL     1       1.050   2.513  20.913  0.00  0.00    +0.000 OA
ENDBRANCH   3  10
BRANCH   8  11
ATOM     11  O   UNL     1       0.936   5.273  20.399  0.00  0.00    +0.000 OA
ATOM     12  C   UNL     1       1.907   6.035  21.136  0.00  0.00    +0.000 C 
ENDBRANCH   8  11
ENDBRANCH   1   7
BRANCH   2  13
ATOM     13  C   UNL     1       4.571   6.048  17.053  0.00  0.00    +0.000 C 
ATOM     14  C   UNL     1       5.606   5.814  18.152  0.00  0.00    +0.000 C 
ATOM     15  C   UNL     1       6.827   6.588  17.683  0.00  0.00    +0.000 C 
ATOM     16  N   UNL     1       6.811   6.474  16.213  0.00  0.00    +0.000 NA
ATOM     17  C   UNL     1       5.377   6.713  15.910  0.00  0.00    +0.000 C 
BRANCH  16  18
ATOM     18  C   UNL     1       7.280   5.127  15.823  0.00  0.00    +0.000 C 
BRANCH  18  19
ATOM     19  C   UNL     1       6.977   4.717  14.398  0.00  0.00    +0.000 A 
ATOM     20  C   UNL     1       7.751   5.196  13.334  0.00  0.00    +0.000 A 
ATOM     21  C   UNL     1       7.528   4.740  12.035  0.00  0.00    +0.000 A 
ATOM     22  C   UNL     1       6.529   3.798  11.787  0.00  0.00    +0.000 A 
ATOM     23  C   UNL     1       5.751   3.315  12.837  0.00  0.00    +0.000 A 
ATOM     24  C   UNL     1       5.974   3.770  14.137  0.00  0.00    +0.000 A 
ENDBRANCH  18  19
ENDBRANCH  16  18
ENDBRANCH   2  13
TORSDOF 6
ENDMDL
MODEL 4
REMARK VINA RESULT:      -6.8      3.216      5.313
REMARK  Name = 
REMARK  8 active torsions:
REMARK  status: ('A' for Active; 'I' for Inactive)
REMARK    1  A    between atoms: C_1  and  O_2
REMARK    2  A    between atoms: O_2  and  C_3
REMARK    3  A    between atoms: C_7  and  C_8
REMARK    4  A    between atoms: N_9  and  C_10
REMARK    5  A    between atoms: N_13  and  C_14
REMARK    6  A    between atoms: C_14  and  C_15
REMARK    7  A    between atoms: C_22  and  O_23
REMARK    8  A    between atoms: O_23  and  C_24
REMARK                            x       y       z     vdW  Elec       q    Type
REMARK                         _______ _______ _______ _____ _____    ______ ____
ROOT
ATOM      1  C   UNL     1       1.444   6.255  20.750  0.00  0.00    +0.000 C 
ATOM      2  N   UNL     1       1.929   5.064  20.530  0.00  0.00    +0.000 NA
ENDROOT
BRANCH   1   7
ATOM      3  C   UNL     1       1.021   9.751  19.302  0.00  0.00    +0.000 A 
ATOM      4  C   UNL     1       1.811   9.615  18.151  0.00  0.00    +0.000 A 
ATOM      5  C   UNL     1       2.578   8.474  17.949  0.00  0.00    +0.000 A 
ATOM      6  C   UNL     1       2.511   7.435  18.866  0.00  0.00    +0.000 A 
ATOM      7  C   UNL     1       1.651   7.500  19.963  0.00  0.00    +0.000 A 
ATOM      8  C   UNL     1       1.019   8.716  20.273  0.00  0.00    +0.000 A 
BRANCH   3  10
ATOM      9  C   UNL     1       0.766  12.105  19.081  0.00  0.00    +0.000 C 
ATOM     10  O   UNL     1       0.254  10.859  19.543  0.00  0.00    +0.000 OA
ENDBRANCH   3  10
BRANCH   8  11
ATOM     11  O   UNL     1       0.397   8.839  21.492  0.00  0.00    +0.000 OA
ATOM     12  C   UNL     1       1.251   9.364  22.521  0.00  0.00    +0.000 C 
ENDBRANCH   8  11
ENDBRANCH   1   7
BRANCH   2  13
ATOM     13  C   UNL     1       2.666   4.754  19.294  0.00  0.00    +0.000 C 
ATOM     14  C   UNL     1       1.780   3.945  18.350  0.00  0.00    +0.000 C 
ATOM     15  C   UNL     1       2.428   2.571  18.317  0.00  0.00    +0.000 C 
ATOM     16  N   UNL     1       3.875   2.828  18.438  0.00  0.00    +0.000 NA
ATOM     17  C   UNL     1       3.908   3.855  19.511  0.00  0.00    +0.000 C 
BRANCH  16  18
ATOM     18  C   UNL     1       4.396   3.312  17.142  0.00  0.00    +0.000 C 
BRANCH  18  19
ATOM     19  C   UNL     1       5.299   4.523  17.212  0.00  0.00    +0.000 A 
ATOM     20  C   UNL     1       6.575   4.435  17.782  0.00  0.00    +0.000 A 
ATOM     21  C   UNL     1       7.439   5.530  17.757  0.00  0.00    +0.000 A 
ATOM     22  C   UNL     1       7.036   6.724  17.160  0.00  0.00    +0.000 A 
ATOM     23  C   UNL     1       5.769   6.826  16.591  0.00  0.00    +0.000 A 
ATOM     24  C   UNL     1       4.904   5.731  16.614  0.00  0.00    +0.000 A 
ENDBRANCH  18  19
ENDBRANCH  16  18
ENDBRANCH   2  13
TORSDOF 6
ENDMDL
MODEL 5
REMARK VINA RESULT:      -6.5      2.831      5.137
REMARK  Name = 
REMARK  8 active torsions:
REMARK  status: ('A' for Active; 'I' for Inactive)
REMARK    1  A    between atoms: C_1  and  O_2
REMARK    2  A    between atoms: O_2  and  C_3
REMARK    3  A    between atoms: C_7  and  C_8
REMARK    4  A    between atoms: N_9  and  C_10
REMARK    5  A    between atoms: N_13  and  C_14
REMARK    6  A    between atoms: C_14  and  C_15
REMARK    7  A    between atoms: C_22  and  O_23
REMARK    8  A    between atoms: O_23  and  C_24
REMARK                            x       y       z     vdW  Elec       q    Type
REMARK                         _______ _______ _______ _____ _____    ______ ____
ROOT
ATOM      1  C   UNL     1       1.629   6.417  20.991  0.00  0.00    +0.000 C 
ATOM      2  N   UNL     1       1.950   5.177  20.746  0.00  0.00    +0.000 NA
ENDROOT
BRANCH   1   7
ATOM      3  C   UNL     1       1.093   9.837  19.407  0.00  0.00    +0.000 A 
ATOM      4  C   UNL     1       1.633   9.584  18.138  0.00  0.00    +0.000 A 
ATOM      5  C   UNL     1       2.290   8.390  17.873  0.00  0.00    +0.000 A 
ATOM      6  C   UNL     1       2.357   7.414  18.857  0.00  0.00    +0.000 A 
ATOM      7  C   UNL     1       1.735   7.597  20.093  0.00  0.00    +0.000 A 
ATOM      8  C   UNL     1       1.234   8.866  20.432  0.00  0.00    +0.000 A 
BRANCH   3  10
ATOM      9  C   UNL     1      -0.723  11.304  18.950  0.00  0.00    +0.000 C 
ATOM     10  O   UNL     1       0.441  11.003  19.713  0.00  0.00    +0.000 OA
ENDBRANCH   3  10
BRANCH   8  11
ATOM     11  O   UNL     1       0.871   9.100  21.736  0.00  0.00    +0.000 OA
ATOM     12  C   UNL     1      -0.528   8.891  21.988  0.00  0.00    +0.000 C 
ENDBRANCH   8  11
ENDBRANCH   1   7
BRANCH   2  13
ATOM     13  C   UNL     1       2.335   4.739  19.394  0.00  0.00    +0.000 C 
ATOM     14  C   UNL     1       1.363   3.672  18.897  0.00  0.00    +0.000 C 
ATOM     15  C   UNL     1       2.198   2.403  18.848  0.00  0.00    +0.000 C 
ATOM     16  N   UNL     1       3.551   2.850  18.469  0.00  0.00    +0.000 NA
ATOM     17  C   UNL     1       3.720   4.050  19.327  0.00  0.00    +0.000 C 
BRANCH  16  18
ATOM     18  C   UNL     1       3.580   3.150  17.022  0.00  0.00    +0.000 C 
BRANCH  18  19
ATOM     19  C   UNL     1       4.695   4.065  16.566  0.00  0.00    +0.000 A 
ATOM     20  C   UNL     1       5.832   3.550  15.933  0.00  0.00    +0.000 A 
ATOM     21  C   UNL     1       6.812   4.406  15.429  0.00  0.00    +0.000 A 
ATOM     22  C   UNL     1       6.663   5.787  15.553  0.00  0.00    +0.000 A 
ATOM     23  C   UNL     1       5.536   6.313  16.183  0.00  0.00    +0.000 A 
ATOM     24  C   UNL     1       4.556   5.457  16.686  0.00  0.00    +0.000 A 
ENDBRANCH  18  19
ENDBRANCH  16  18
ENDBRANCH   2  13
TORSDOF 6
ENDMDL
MODEL 6
REMARK VINA RESULT:      -6.4      3.515      6.428
REMARK  Name = 
REMARK  8 active torsions:
REMARK  status: ('A' for Active; 'I' for Inactive)
REMARK    1  A    between atoms: C_1  and  O_2
REMARK    2  A    between atoms: O_2  and  C_3
REMARK    3  A    between atoms: C_7  and  C_8
REMARK    4  A    between atoms: N_9  and  C_10
REMARK    5  A    between atoms: N_13  and  C_14
REMARK    6  A    between atoms: C_14  and  C_15
REMARK    7  A    between atoms: C_22  and  O_23
REMARK    8  A    between atoms: O_23  and  C_24
REMARK                            x       y       z     vdW  Elec       q    Type
REMARK                         _______ _______ _______ _____ _____    ______ ____
ROOT
ATOM      1  C   UNL     1       1.980   9.226  17.894  0.00  0.00    +0.000 C 
ATOM      2  N   UNL     1       2.702   8.355  17.245  0.00  0.00    +0.000 NA
ENDROOT
BRANCH   1   7
ATOM      3  C   UNL     1       0.689  10.178  21.347  0.00  0.00    +0.000 A 
ATOM      4  C   UNL     1       0.950   8.977  22.023  0.00  0.00    +0.000 A 
ATOM      5  C   UNL     1       1.381   7.853  21.330  0.00  0.00    +0.000 A 
ATOM      6  C   UNL     1       1.615   7.940  19.966  0.00  0.00    +0.000 A 
ATOM      7  C   UNL     1       1.467   9.151  19.287  0.00  0.00    +0.000 A 
ATOM      8  C   UNL     1       0.856  10.236  19.939  0.00  0.00    +0.000 A 
BRANCH   3  10
ATOM      9  C   UNL     1      -0.950  11.199  22.735  0.00  0.00    +0.000 C 
ATOM     10  O   UNL     1       0.258  11.308  21.989  0.00  0.00    +0.000 OA
ENDBRANCH   3  10
BRANCH   8  11
ATOM     11  O   UNL     1       0.476  11.321  19.188  0.00  0.00    +0.000 OA
ATOM     12  C   UNL     1      -0.894  11.270  18.757  0.00  0.00    +0.000 C 
ENDBRANCH   8  11
ENDBRANCH   1   7
BRANCH   2  13
ATOM     13  C   UNL     1       3.271   7.177  17.922  0.00  0.00    +0.000 C 
ATOM     14  C   UNL     1       4.764   7.076  17.619  0.00  0.00    +0.000 C 
ATOM     15  C   UNL     1       4.884   5.834  16.751  0.00  0.00    +0.000 C 
ATOM     16  N   UNL     1       3.850   4.913  17.256  0.00  0.00    +0.000 NA
ATOM     17  C   UNL     1       2.693   5.828  17.427  0.00  0.00    +0.000 C 
BRANCH  16  18
ATOM     18  C   UNL     1       4.313   4.303  18.521  0.00  0.00    +0.000 C 
BRANCH  18  19
ATOM     19  C   UNL     1       3.223   3.794  19.438  0.00  0.00    +0.000 A 
ATOM     20  C   UNL     1       2.554   2.595  19.161  0.00  0.00    +0.000 A 
ATOM     21  C   UNL     1       1.619   2.082  20.059  0.00  0.00    +0.000 A 
ATOM     22  C   UNL     1       1.343   2.762  21.246  0.00  0.00    +0.000 A 
ATOM     23  C   UNL     1       2.001   3.957  21.533  0.00  0.00    +0.000 A 
ATOM     24  C   UNL     1       2.937   4.471  20.635  0.00  0.00    +0.000 A 
ENDBRANCH  18  19
ENDBRANCH  16  18
ENDBRANCH   2  13
TORSDOF 6
ENDMDL
MODEL 7
REMARK VINA RESULT:      -6.4      3.450      6.034
REMARK  Name = 
REMARK  8 active torsions:
REMARK  status: ('A' for Active; 'I' for Inactive)
REMARK    1  A    between atoms: C_1  and  O_2
REMARK    2  A    between atoms: O_2  and  C_3
REMARK    3  A    between atoms: C_7  and  C_8
REMARK    4  A    between atoms: N_9  and  C_10
REMARK    5  A    between atoms: N_13  and  C_14
REMARK    6  A    between atoms: C_14  and  C_15
REMARK    7  A    between atoms: C_22  and  O_23
REMARK    8  A    between atoms: O_23  and  C_24
REMARK                            x       y       z     vdW  Elec       q    Type
REMARK                         _______ _______ _______ _____ _____    ______ ____
ROOT
ATOM      1  C   UNL     1       3.130   8.202  17.672  0.00  0.00    +0.000 C 
ATOM      2  N   UNL     1       3.888   7.225  17.258  0.00  0.00    +0.000 NA
ENDROOT
BRANCH   1   7
ATOM      3  C   UNL     1       0.736   9.384  20.386  0.00  0.00    +0.000 A 
ATOM      4  C   UNL     1       0.835   8.294  21.264  0.00  0.00    +0.000 A 
ATOM      5  C   UNL     1       1.534   7.152  20.898  0.00  0.00    +0.000 A 
ATOM      6  C   UNL     1       2.192   7.115  19.677  0.00  0.00    +0.000 A 
ATOM      7  C   UNL     1       2.199   8.226  18.831  0.00  0.00    +0.000 A 
ATOM      8  C   UNL     1       1.346   9.308  19.107  0.00  0.00    +0.000 A 
BRANCH   3  10
ATOM      9  C   UNL     1      -0.520  10.589  22.007  0.00  0.00    +0.000 C 
ATOM     10  O   UNL     1       0.053  10.528  20.705  0.00  0.00    +0.000 OA
ENDBRANCH   3  10
BRANCH   8  11
ATOM     11  O   UNL     1       1.165  10.263  18.137  0.00  0.00    +0.000 OA
ATOM     12  C   UNL     1       1.988  11.428  18.320  0.00  0.00    +0.000 C 
ENDBRANCH   8  11
ENDBRANCH   1   7
BRANCH   2  13
ATOM     13  C   UNL     1       4.041   5.989  18.043  0.00  0.00    +0.000 C 
ATOM     14  C   UNL     1       5.501   5.810  18.450  0.00  0.00    +0.000 C 
ATOM     15  C   UNL     1       5.963   4.599  17.656  0.00  0.00    +0.000 C 
ATOM     16  N   UNL     1       4.781   3.722  17.573  0.00  0.00    +0.000 NA
ATOM     17  C   UNL     1       3.707   4.699  17.255  0.00  0.00    +0.000 C 
BRANCH  16  18
ATOM     18  C   UNL     1       4.589   3.036  18.869  0.00  0.00    +0.000 C 
BRANCH  18  19
ATOM     19  C   UNL     1       3.158   2.937  19.350  0.00  0.00    +0.000 A 
ATOM     20  C   UNL     1       2.770   3.511  20.567  0.00  0.00    +0.000 A 
ATOM     21  C   UNL     1       1.431   3.501  20.959  0.00  0.00    +0.000 A 
ATOM     22  C   UNL     1       0.467   2.918  20.137  0.00  0.00    +0.000 A 
ATOM     23  C   UNL     1       0.840   2.343  18.925  0.00  0.00    +0.000 A 
ATOM     24  C   UNL     1       2.179   2.353  18.531  0.00  0.00    +0.000 A 
ENDBRANCH  18  19
ENDBRANCH  16  18
ENDBRANCH   2  13
TORSDOF 6
ENDMDL
MODEL 8
REMARK VINA RESULT:      -6.3      8.161     11.508
REMARK  Name = 
REMARK  8 active torsions:
REMARK  status: ('A' for Active; 'I' for Inactive)
REMARK    1  A    between atoms: C_1  and  O_2
REMARK    2  A    between atoms: O_2  and  C_3
REMARK    3  A    between atoms: C_7  and  C_8
REMARK    4  A    between atoms: N_9  and  C_10
REMARK    5  A    between atoms: N_13  and  C_14
REMARK    6  A    between atoms: C_14  and  C_15
REMARK    7  A    between atoms: C_22  and  O_23
REMARK    8  A    between atoms: O_23  and  C_24
REMARK                            x       y       z     vdW  Elec       q    Type
REMARK                         _______ _______ _______ _____ _____    ______ ____
ROOT
ATOM      1  C   UNL     1       0.373  10.345  19.140  0.00  0.00    +0.000 C 
ATOM      2  N   UNL     1      -0.267  10.368  18.004  0.00  0.00    +0.000 NA
ENDROOT
BRANCH   1   7
ATOM      3  C   UNL     1      -0.840  11.530  22.549  0.00  0.00    +0.000 A 
ATOM      4  C   UNL     1      -0.798  10.310  23.240  0.00  0.00    +0.000 A 
ATOM      5  C   UNL     1      -0.538   9.124  22.566  0.00  0.00    +0.000 A 
ATOM      6  C   UNL     1      -0.255   9.158  21.208  0.00  0.00    +0.000 A 
ATOM      7  C   UNL     1      -0.184  10.369  20.519  0.00  0.00    +0.000 A 
ATOM      8  C   UNL     1      -0.627  11.546  21.146  0.00  0.00    +0.000 A 
BRANCH   3  10
ATOM      9  C   UNL     1      -2.457  12.995  23.495  0.00  0.00    +0.000 C 
ATOM     10  O   UNL     1      -1.097  12.722  23.173  0.00  0.00    +0.000 OA
ENDBRANCH   3  10
BRANCH   8  11
ATOM     11  O   UNL     1      -0.803  12.671  20.378  0.00  0.00    +0.000 OA
ATOM     12  C   UNL     1       0.340  13.542  20.368  0.00  0.00    +0.000 C 
ENDBRANCH   8  11
ENDBRANCH   1   7
BRANCH   2  13
ATOM     13  C   UNL     1      -1.734  10.253  17.950  0.00  0.00    +0.000 C 
ATOM     14  C   UNL     1      -2.155   9.608  16.631  0.00  0.00    +0.000 C 
ATOM     15  C   UNL     1      -2.859  10.726  15.879  0.00  0.00    +0.000 C 
ATOM     16  N   UNL     1      -3.531  11.524  16.920  0.00  0.00    +0.000 NA
ATOM     17  C   UNL     1      -2.472  11.614  17.958  0.00  0.00    +0.000 C 
BRANCH  16  18
ATOM     18  C   UNL     1      -4.744  10.812  17.375  0.00  0.00    +0.000 C 
BRANCH  18  19
ATOM     19  C   UNL     1      -5.878  11.691  17.853  0.00  0.00    +0.000 A 
ATOM     20  C   UNL     1      -6.561  11.400  19.040  0.00  0.00    +0.000 A 
ATOM     21  C   UNL     1      -7.540  12.268  19.525  0.00  0.00    +0.000 A 
ATOM     22  C   UNL     1      -7.846  13.436  18.828  0.00  0.00    +0.000 A 
ATOM     23  C   UNL     1      -7.175  13.736  17.644  0.00  0.00    +0.000 A 
ATOM     24  C   UNL     1      -6.195  12.870  17.158  0.00  0.00    +0.000 A 
ENDBRANCH  18  19
ENDBRANCH  16  18
ENDBRANCH   2  13
TORSDOF 6
ENDMDL
MODEL 9
REMARK VINA RESULT:      -6.3      3.499      6.464
REMARK  Name = 
REMARK  8 active torsions:
REMARK  status: ('A' for Active; 'I' for Inactive)
REMARK    1  A    between atoms: C_1  and  O_2
REMARK    2  A    between atoms: O_2  and  C_3
REMARK    3  A    between atoms: C_7  and  C_8
REMARK    4  A    between atoms: N_9  and  C_10
REMARK    5  A    between atoms: N_13  and  C_14
REMARK    6  A    between atoms: C_14  and  C_15
REMARK    7  A    between atoms: C_22  and  O_23
REMARK    8  A    between atoms: O_23  and  C_24
REMARK                            x       y       z     vdW  Elec       q    Type
REMARK                         _______ _______ _______ _____ _____    ______ ____
ROOT
ATOM      1  C   UNL     1       2.002   9.207  17.852  0.00  0.00    +0.000 C 
ATOM      2  N   UNL     1       2.732   8.339  17.210  0.00  0.00    +0.000 NA
ENDROOT
BRANCH   1   7
ATOM      3  C   UNL     1       0.709  10.182  21.298  0.00  0.00    +0.000 A 
ATOM      4  C   UNL     1       1.000   8.998  21.991  0.00  0.00    +0.000 A 
ATOM      5  C   UNL     1       1.453   7.873  21.313  0.00  0.00    +0.000 A 
ATOM      6  C   UNL     1       1.677   7.945  19.945  0.00  0.00    +0.000 A 
ATOM      7  C   UNL     1       1.498   9.141  19.250  0.00  0.00    +0.000 A 
ATOM      8  C   UNL     1       0.867  10.222  19.888  0.00  0.00    +0.000 A 
BRANCH   3  10
ATOM      9  C   UNL     1      -0.863  11.157  22.793  0.00  0.00    +0.000 C 
ATOM     10  O   UNL     1       0.257  11.312  21.926  0.00  0.00    +0.000 OA
ENDBRANCH   3  10
BRANCH   8  11
ATOM     11  O   UNL     1       0.459  11.288  19.124  0.00  0.00    +0.000 OA
ATOM     12  C   UNL     1       1.430  12.344  19.048  0.00  0.00    +0.000 C 
ENDBRANCH   8  11
ENDBRANCH   1   7
BRANCH   2  13
ATOM     13  C   UNL     1       3.322   7.177  17.897  0.00  0.00    +0.000 C 
ATOM     14  C   UNL     1       4.791   7.035  17.507  0.00  0.00    +0.000 C 
ATOM     15  C   UNL     1       4.835   5.757  16.684  0.00  0.00    +0.000 C 
ATOM     16  N   UNL     1       3.819   4.877  17.289  0.00  0.00    +0.000 NA
ATOM     17  C   UNL     1       2.691   5.822  17.495  0.00  0.00    +0.000 C 
BRANCH  16  18
ATOM     18  C   UNL     1       4.350   4.309  18.547  0.00  0.00    +0.000 C 
BRANCH  18  19
ATOM     19  C   UNL     1       3.316   3.744  19.495  0.00  0.00    +0.000 A 
ATOM     20  C   UNL     1       3.004   4.402  20.691  0.00  0.00    +0.000 A 
ATOM     21  C   UNL     1       1.983   3.927  21.515  0.00  0.00    +0.000 A 
ATOM     22  C   UNL     1       1.262   2.790  21.150  0.00  0.00    +0.000 A 
ATOM     23  C   UNL     1       1.564   2.125  19.963  0.00  0.00    +0.000 A 
ATOM     24  C   UNL     1       2.585   2.600  19.138  0.00  0.00    +0.000 A 
ENDBRANCH  18  19
ENDBRANCH  16  18
ENDBRANCH   2  13
TORSDOF 6
ENDMDL
