MODEL 1
REMARK VINA RESULT:      -6.5      0.000      0.000
REMARK  Name = 
REMARK  3 active torsions:
REMARK  status: ('A' for Active; 'I' for Inactive)
REMARK    1  A    between atoms: C_2  and  C_3
REMARK    2  A    between atoms: N_14  and  C_15
REMARK    3  A    between atoms: C_15  and  C_16
REMARK                            x       y       z     vdW  Elec       q    Type
REMARK                         _______ _______ _______ _____ _____    ______ ____
ROOT
ATOM      1  O   UNL     1       2.392   6.323  21.481  0.00  0.00    +0.000 OA
ATOM      2  C   UNL     1       2.046   6.132  20.312  0.00  0.00    +0.000 C 
ATOM      3  N   UNL     1       1.681   4.830  19.906  0.00  0.00    +0.000 N 
ATOM      4  C   UNL     1       1.659   3.767  20.922  0.00  0.00    +0.000 C 
ATOM      5  C   UNL     1       2.166   2.380  20.486  0.00  0.00    +0.000 C 
ATOM      6  O   UNL     1       1.616   1.872  19.277  0.00  0.00    +0.000 OA
ATOM      7  C   UNL     1       2.184   2.311  18.044  0.00  0.00    +0.000 C 
ATOM      8  C   UNL     1       3.697   2.105  17.861  0.00  0.00    +0.000 C 
ATOM      9  N   UNL     1       4.344   3.422  17.758  0.00  0.00    +0.000 NA
ATOM     10  C   UNL     1       3.290   4.379  17.416  0.00  0.00    +0.000 C 
ATOM     11  C   UNL     1       1.908   3.765  17.679  0.00  0.00    +0.000 C 
ATOM     12  C   UNL     1       1.003   4.496  18.667  0.00  0.00    +0.000 C 
ENDROOT
BRANCH   2  13
ATOM     13  C   UNL     1       1.997   7.297  19.385  0.00  0.00    +0.000 A 
ATOM     14  C   UNL     1       2.616   7.564  18.106  0.00  0.00    +0.000 A 
ATOM     15  C   UNL     1       2.347   8.810  17.592  0.00  0.00    +0.000 A 
ATOM     16  S   UNL     1       1.322   9.701  18.613  0.00  0.00    +0.000 S 
ATOM     17  C   UNL     1       1.268   8.423  19.748  0.00  0.00    +0.000 A 
ENDBRANCH   2  13
BRANCH   9  18
ATOM     18  C   UNL     1       5.092   3.793  18.977  0.00  0.00    +0.000 C 
BRANCH  18  19
ATOM     19  C   UNL     1       6.166   4.844  18.796  0.00  0.00    +0.000 A 
ATOM     20  N   UNL     1       7.032   5.161  19.741  0.00  0.00    +0.000 NA
ATOM     21  C   UNL     1       7.893   6.136  19.287  0.00  0.00    +0.000 A 
ATOM     22  C   UNL     1       7.675   6.561  17.996  0.00  0.00    +0.000 A 
ATOM     23  S   UNL     1       6.353   5.701  17.317  0.00  0.00    +0.000 S 
ENDBRANCH  18  19
ENDBRANCH   9  18
TORSDOF 3
ENDMDL
MODEL 2
REMARK VINA RESULT:      -6.3      3.499      5.059
REMARK  Name = 
REMARK  3 active torsions:
REMARK  status: ('A' for Active; 'I' for Inactive)
REMARK    1  A    between atoms: C_2  and  C_3
REMARK    2  A    between atoms: N_14  and  C_15
REMARK    3  A    between atoms: C_15  and  C_16
REMARK                            x       y       z     vdW  Elec       q    Type
REMARK                         _______ _______ _______ _____ _____    ______ ____
ROOT
ATOM      1  O   UNL     1       2.201   6.726  17.317  0.00  0.00    +0.000 OA
ATOM      2  C   UNL     1       2.803   5.963  18.077  0.00  0.00    +0.000 C 
ATOM      3  N   UNL     1       4.164   6.207  18.362  0.00  0.00    +0.000 N 
ATOM      4  C   UNL     1       4.786   7.411  17.793  0.00  0.00    +0.000 C 
ATOM      5  C   UNL     1       6.236   7.273  17.294  0.00  0.00    +0.000 C 
ATOM      6  O   UNL     1       7.149   6.669  18.203  0.00  0.00    +0.000 OA
ATOM      7  C   UNL     1       7.186   5.244  18.270  0.00  0.00    +0.000 C 
ATOM      8  C   UNL     1       7.442   4.491  16.955  0.00  0.00    +0.000 C 
ATOM      9  N   UNL     1       6.251   3.691  16.629  0.00  0.00    +0.000 NA
ATOM     10  C   UNL     1       5.484   3.560  17.869  0.00  0.00    +0.000 C 
ATOM     11  C   UNL     1       5.963   4.589  18.902  0.00  0.00    +0.000 C 
ATOM     12  C   UNL     1       4.925   5.577  19.426  0.00  0.00    +0.000 C 
ENDROOT
BRANCH   2  13
ATOM     13  C   UNL     1       2.054   4.831  18.690  0.00  0.00    +0.000 A 
ATOM     14  C   UNL     1       1.511   4.610  20.011  0.00  0.00    +0.000 A 
ATOM     15  C   UNL     1       0.920   3.381  20.186  0.00  0.00    +0.000 A 
ATOM     16  S   UNL     1       0.974   2.451  18.765  0.00  0.00    +0.000 S 
ATOM     17  C   UNL     1       1.811   3.689  17.935  0.00  0.00    +0.000 A 
ENDBRANCH   2  13
BRANCH   9  18
ATOM     18  C   UNL     1       5.463   4.261  15.516  0.00  0.00    +0.000 C 
BRANCH  18  19
ATOM     19  C   UNL     1       6.194   4.403  14.197  0.00  0.00    +0.000 A 
ATOM     20  N   UNL     1       7.181   5.259  14.009  0.00  0.00    +0.000 NA
ATOM     21  C   UNL     1       7.659   5.156  12.721  0.00  0.00    +0.000 A 
ATOM     22  C   UNL     1       7.028   4.220  11.931  0.00  0.00    +0.000 A 
ATOM     23  S   UNL     1       5.801   3.430  12.835  0.00  0.00    +0.000 S 
ENDBRANCH  18  19
ENDBRANCH   9  18
TORSDOF 3
ENDMDL
MODEL 3
REMARK VINA RESULT:      -6.1      2.109      5.112
REMARK  Name = 
REMARK  3 active torsions:
REMARK  status: ('A' for Active; 'I' for Inactive)
REMARK    1  A    between atoms: C_2  and  C_3
REMARK    2  A    between atoms: N_14  and  C_15
REMARK    3  A    between atoms: C_15  and  C_16
REMARK                            x       y       z     vdW  Elec       q    Type
REMARK                         _______ _______ _______ _____ _____    ______ ____
ROOT
ATOM      1  O   UNL     1       4.967   5.301  15.651  0.00  0.00    +0.000 OA
ATOM      2  C   UNL     1       5.227   5.123  16.843  0.00  0.00    +0.000 C 
ATOM      3  N   UNL     1       4.467   4.190  17.582  0.00  0.00    +0.000 N 
ATOM      4  C   UNL     1       3.441   3.414  16.871  0.00  0.00    +0.000 C 
ATOM      5  C   UNL     1       2.122   3.156  17.622  0.00  0.00    +0.000 C 
ATOM      6  O   UNL     1       2.251   2.645  18.943  0.00  0.00    +0.000 OA
ATOM      7  C   UNL     1       2.507   3.570  19.999  0.00  0.00    +0.000 C 
ATOM      8  C   UNL     1       1.515   4.733  20.163  0.00  0.00    +0.000 C 
ATOM      9  N   UNL     1       2.221   5.996  19.901  0.00  0.00    +0.000 NA
ATOM     10  C   UNL     1       3.651   5.711  20.033  0.00  0.00    +0.000 C 
ATOM     11  C   UNL     1       3.897   4.197  19.995  0.00  0.00    +0.000 C 
ATOM     12  C   UNL     1       4.815   3.674  18.893  0.00  0.00    +0.000 C 
ENDROOT
BRANCH   2  13
ATOM     13  C   UNL     1       6.359   5.880  17.446  0.00  0.00    +0.000 A 
ATOM     14  C   UNL     1       7.348   5.542  18.446  0.00  0.00    +0.000 A 
ATOM     15  C   UNL     1       8.208   6.566  18.764  0.00  0.00    +0.000 A 
ATOM     16  S   UNL     1       7.878   7.967  17.860  0.00  0.00    +0.000 S 
ATOM     17  C   UNL     1       6.570   7.201  17.070  0.00  0.00    +0.000 A 
ENDBRANCH   2  13
BRANCH   9  18
ATOM     18  C   UNL     1       1.866   6.594  18.596  0.00  0.00    +0.000 C 
BRANCH  18  19
ATOM     19  C   UNL     1       1.759   8.104  18.571  0.00  0.00    +0.000 A 
ATOM     20  N   UNL     1       2.175   8.839  17.557  0.00  0.00    +0.000 NA
ATOM     21  C   UNL     1       1.939  10.173  17.809  0.00  0.00    +0.000 A 
ATOM     22  C   UNL     1       1.346  10.447  19.022  0.00  0.00    +0.000 A 
ATOM     23  S   UNL     1       1.060   8.983  19.873  0.00  0.00    +0.000 S 
ENDBRANCH  18  19
ENDBRANCH   9  18
TORSDOF 3
ENDMDL
MODEL 4
REMARK VINA RESULT:      -6.0      2.447      5.344
REMARK  Name = 
REMARK  3 active torsions:
REMARK  status: ('A' for Active; 'I' for Inactive)
REMARK    1  A    between atoms: C_2  and  C_3
REMARK    2  A    between atoms: N_14  and  C_15
REMARK    3  A    between atoms: C_15  and  C_16
REMARK                            x       y       z     vdW  Elec       q    Type
REMARK                         _______ _______ _______ _____ _____    ______ ____
ROOT
ATOM      1  O   UNL     1       5.834   6.337  15.413  0.00  0.00    +0.000 OA
ATOM      2  C   UNL     1       6.034   5.993  16.581  0.00  0.00    +0.000 C 
ATOM      3  N   UNL     1       5.372   4.854  17.087  0.00  0.00    +0.000 N 
ATOM      4  C   UNL     1       4.524   4.080  16.168  0.00  0.00    +0.000 C 
ATOM      5  C   UNL     1       3.209   3.522  16.741  0.00  0.00    +0.000 C 
ATOM      6  O   UNL     1       3.320   2.814  17.970  0.00  0.00    +0.000 OA
ATOM      7  C   UNL     1       3.362   3.570  19.179  0.00  0.00    +0.000 C 
ATOM      8  C   UNL     1       2.199   4.543  19.433  0.00  0.00    +0.000 C 
ATOM      9  N   UNL     1       2.725   5.916  19.443  0.00  0.00    +0.000 NA
ATOM     10  C   UNL     1       4.169   5.808  19.662  0.00  0.00    +0.000 C 
ATOM     11  C   UNL     1       4.639   4.370  19.405  0.00  0.00    +0.000 C 
ATOM     12  C   UNL     1       5.700   4.173  18.325  0.00  0.00    +0.000 C 
ENDROOT
BRANCH   2  13
ATOM     13  C   UNL     1       6.997   6.782  17.401  0.00  0.00    +0.000 A 
ATOM     14  C   UNL     1       7.837   6.444  18.527  0.00  0.00    +0.000 A 
ATOM     15  C   UNL     1       8.556   7.499  19.037  0.00  0.00    +0.000 A 
ATOM     16  S   UNL     1       8.269   8.931  18.170  0.00  0.00    +0.000 S 
ATOM     17  C   UNL     1       7.163   8.136  17.136  0.00  0.00    +0.000 A 
ENDBRANCH   2  13
BRANCH   9  18
ATOM     18  C   UNL     1       2.377   6.675  18.223  0.00  0.00    +0.000 C 
BRANCH  18  19
ATOM     19  C   UNL     1       1.976   8.119  18.439  0.00  0.00    +0.000 A 
ATOM     20  N   UNL     1       2.057   9.038  17.495  0.00  0.00    +0.000 NA
ATOM     21  C   UNL     1       1.614  10.252  17.975  0.00  0.00    +0.000 A 
ATOM     22  C   UNL     1       1.202  10.250  19.289  0.00  0.00    +0.000 A 
ATOM     23  S   UNL     1       1.360   8.672  19.946  0.00  0.00    +0.000 S 
ENDBRANCH  18  19
ENDBRANCH   9  18
TORSDOF 3
ENDMDL
MODEL 5
REMARK VINA RESULT:      -5.9      3.523      5.171
REMARK  Name = 
REMARK  3 active torsions:
REMARK  status: ('A' for Active; 'I' for Inactive)
REMARK    1  A    between atoms: C_2  and  C_3
REMARK    2  A    between atoms: N_14  and  C_15
REMARK    3  A    between atoms: C_15  and  C_16
REMARK                            x       y       z     vdW  Elec       q    Type
REMARK                         _______ _______ _______ _____ _____    ______ ____
ROOT
ATOM      1  O   UNL     1       2.085   6.620  17.401  0.00  0.00    +0.000 OA
ATOM      2  C   UNL     1       2.735   5.843  18.104  0.00  0.00    +0.000 C 
ATOM      3  N   UNL     1       4.094   6.123  18.365  0.00  0.00    +0.000 N 
ATOM      4  C   UNL     1       4.656   7.377  17.843  0.00  0.00    +0.000 C 
ATOM      5  C   UNL     1       6.095   7.320  17.299  0.00  0.00    +0.000 C 
ATOM      6  O   UNL     1       7.055   6.705  18.151  0.00  0.00    +0.000 OA
ATOM      7  C   UNL     1       7.145   5.281  18.143  0.00  0.00    +0.000 C 
ATOM      8  C   UNL     1       7.391   4.606  16.784  0.00  0.00    +0.000 C 
ATOM      9  N   UNL     1       6.221   3.780  16.449  0.00  0.00    +0.000 NA
ATOM     10  C   UNL     1       5.495   3.556  17.700  0.00  0.00    +0.000 C 
ATOM     11  C   UNL     1       5.966   4.548  18.772  0.00  0.00    +0.000 C 
ATOM     12  C   UNL     1       4.907   5.469  19.374  0.00  0.00    +0.000 C 
ENDROOT
BRANCH   2  13
ATOM     13  C   UNL     1       2.045   4.653  18.676  0.00  0.00    +0.000 A 
ATOM     14  C   UNL     1       1.545   3.429  18.092  0.00  0.00    +0.000 A 
ATOM     15  C   UNL     1       0.913   2.591  18.980  0.00  0.00    +0.000 A 
ATOM     16  S   UNL     1       0.915   3.230  20.555  0.00  0.00    +0.000 S 
ATOM     17  C   UNL     1       1.736   4.635  20.032  0.00  0.00    +0.000 A 
ENDBRANCH   2  13
BRANCH   9  18
ATOM     18  C   UNL     1       5.382   4.375  15.388  0.00  0.00    +0.000 C 
BRANCH  18  19
ATOM     19  C   UNL     1       5.825   4.101  13.966  0.00  0.00    +0.000 A 
ATOM     20  N   UNL     1       5.115   3.383  13.116  0.00  0.00    +0.000 NA
ATOM     21  C   UNL     1       5.760   3.314  11.900  0.00  0.00    +0.000 A 
ATOM     22  C   UNL     1       6.964   3.978  11.833  0.00  0.00    +0.000 A 
ATOM     23  S   UNL     1       7.298   4.729  13.340  0.00  0.00    +0.000 S 
ENDBRANCH  18  19
ENDBRANCH   9  18
TORSDOF 3
ENDMDL
MODEL 6
REMARK VINA RESULT:      -5.9      5.090      9.014
REMARK  Name = 
REMARK  3 active torsions:
REMARK  status: ('A' for Active; 'I' for Inactive)
REMARK    1  A    between atoms: C_2  and  C_3
REMARK    2  A    between atoms: N_14  and  C_15
REMARK    3  A    between atoms: C_15  and  C_16
REMARK                            x       y       z     vdW  Elec       q    Type
REMARK                         _______ _______ _______ _____ _____    ______ ____
ROOT
ATOM      1  O   UNL     1      -0.592   8.376  21.388  0.00  0.00    +0.000 OA
ATOM      2  C   UNL     1       0.210   9.196  20.934  0.00  0.00    +0.000 C 
ATOM      3  N   UNL     1       0.246  10.499  21.478  0.00  0.00    +0.000 N 
ATOM      4  C   UNL     1      -0.630  10.797  22.621  0.00  0.00    +0.000 C 
ATOM      5  C   UNL     1      -1.292  12.187  22.643  0.00  0.00    +0.000 C 
ATOM      6  O   UNL     1      -0.421  13.291  22.430  0.00  0.00    +0.000 OA
ATOM      7  C   UNL     1      -0.083  13.630  21.086  0.00  0.00    +0.000 C 
ATOM      8  C   UNL     1      -1.247  13.904  20.121  0.00  0.00    +0.000 C 
ATOM      9  N   UNL     1      -1.239  12.879  19.067  0.00  0.00    +0.000 NA
ATOM     10  C   UNL     1       0.099  12.284  19.074  0.00  0.00    +0.000 C 
ATOM     11  C   UNL     1       0.832  12.640  20.374  0.00  0.00    +0.000 C 
ATOM     12  C   UNL     1       1.294  11.476  21.247  0.00  0.00    +0.000 C 
ENDROOT
BRANCH   2  13
ATOM     13  C   UNL     1       1.132   8.764  19.847  0.00  0.00    +0.000 A 
ATOM     14  C   UNL     1       1.392   9.268  18.517  0.00  0.00    +0.000 A 
ATOM     15  C   UNL     1       2.305   8.534  17.798  0.00  0.00    +0.000 A 
ATOM     16  S   UNL     1       2.904   7.223  18.698  0.00  0.00    +0.000 S 
ATOM     17  C   UNL     1       1.917   7.632  20.033  0.00  0.00    +0.000 A 
ENDBRANCH   2  13
BRANCH   9  18
ATOM     18  C   UNL     1      -2.319  11.883  19.224  0.00  0.00    +0.000 C 
BRANCH  18  19
ATOM     19  C   UNL     1      -2.871  11.303  17.939  0.00  0.00    +0.000 A 
ATOM     20  N   UNL     1      -3.980  11.738  17.370  0.00  0.00    +0.000 NA
ATOM     21  C   UNL     1      -4.227  11.033  16.212  0.00  0.00    +0.000 A 
ATOM     22  C   UNL     1      -3.303  10.058  15.907  0.00  0.00    +0.000 A 
ATOM     23  S   UNL     1      -2.072  10.029  17.104  0.00  0.00    +0.000 S 
ENDBRANCH  18  19
ENDBRANCH   9  18
TORSDOF 3
ENDMDL
MODEL 7
REMARK VINA RESULT:      -5.7      7.215      9.142
REMARK  Name = 
REMARK  3 active torsions:
REMARK  status: ('A' for Active; 'I' for Inactive)
REMARK    1  A    between atoms: C_2  and  C_3
REMARK    2  A    between atoms: N_14  and  C_15
REMARK    3  A    between atoms: C_15  and  C_16
REMARK                            x       y       z     vdW  Elec       q    Type
REMARK                         _______ _______ _______ _____ _____    ______ ____
ROOT
ATOM      1  O   UNL     1      -0.346  10.690  23.368  0.00  0.00    +0.000 OA
ATOM      2  C   UNL     1      -0.949  11.454  22.611  0.00  0.00    +0.000 C 
ATOM      3  N   UNL     1      -0.855  11.258  21.216  0.00  0.00    +0.000 N 
ATOM      4  C   UNL     1      -0.096  10.097  20.729  0.00  0.00    +0.000 C 
ATOM      5  C   UNL     1       0.763  10.309  19.468  0.00  0.00    +0.000 C 
ATOM      6  O   UNL     1       0.105  10.923  18.367  0.00  0.00    +0.000 OA
ATOM      7  C   UNL     1      -0.005  12.346  18.359  0.00  0.00    +0.000 C 
ATOM      8  C   UNL     1       1.300  13.147  18.485  0.00  0.00    +0.000 C 
ATOM      9  N   UNL     1       1.269  13.906  19.745  0.00  0.00    +0.000 NA
ATOM     10  C   UNL     1      -0.134  13.970  20.159  0.00  0.00    +0.000 C 
ATOM     11  C   UNL     1      -0.963  12.932  19.390  0.00  0.00    +0.000 C 
ATOM     12  C   UNL     1      -1.703  11.887  20.220  0.00  0.00    +0.000 C 
ENDROOT
BRANCH   2  13
ATOM     13  C   UNL     1      -1.782  12.537  23.206  0.00  0.00    +0.000 A 
ATOM     14  C   UNL     1      -1.495  13.900  23.594  0.00  0.00    +0.000 A 
ATOM     15  C   UNL     1      -2.554  14.564  24.165  0.00  0.00    +0.000 A 
ATOM     16  S   UNL     1      -3.941  13.586  24.239  0.00  0.00    +0.000 S 
ATOM     17  C   UNL     1      -3.107  12.273  23.532  0.00  0.00    +0.000 A 
ENDBRANCH   2  13
BRANCH   9  18
ATOM     18  C   UNL     1       2.156  13.337  20.782  0.00  0.00    +0.000 C 
BRANCH  18  19
ATOM     19  C   UNL     1       3.313  14.215  21.211  0.00  0.00    +0.000 A 
ATOM     20  N   UNL     1       3.683  14.353  22.471  0.00  0.00    +0.000 NA
ATOM     21  C   UNL     1       4.767  15.200  22.556  0.00  0.00    +0.000 A 
ATOM     22  C   UNL     1       5.215  15.706  21.356  0.00  0.00    +0.000 A 
ATOM     23  S   UNL     1       4.255  15.092  20.071  0.00  0.00    +0.000 S 
ENDBRANCH  18  19
ENDBRANCH   9  18
TORSDOF 3
ENDMDL
MODEL 8
REMARK VINA RESULT:      -5.6      5.461      9.534
REMARK  Name = 
REMARK  3 active torsions:
REMARK  status: ('A' for Active; 'I' for Inactive)
REMARK    1  A    between atoms: C_2  and  C_3
REMARK    2  A    between atoms: N_14  and  C_15
REMARK    3  A    between atoms: C_15  and  C_16
REMARK                            x       y       z     vdW  Elec       q    Type
REMARK                         _______ _______ _______ _____ _____    ______ ____
ROOT
ATOM      1  O   UNL     1      -0.534   8.418  21.533  0.00  0.00    +0.000 OA
ATOM      2  C   UNL     1       0.193   9.275  21.025  0.00  0.00    +0.000 C 
ATOM      3  N   UNL     1       0.225  10.571  21.584  0.00  0.00    +0.000 N 
ATOM      4  C   UNL     1      -0.561  10.821  22.801  0.00  0.00    +0.000 C 
ATOM      5  C   UNL     1      -1.273  12.182  22.900  0.00  0.00    +0.000 C 
ATOM      6  O   UNL     1      -0.467  13.324  22.632  0.00  0.00    +0.000 OA
ATOM      7  C   UNL     1      -0.257  13.691  21.269  0.00  0.00    +0.000 C 
ATOM      8  C   UNL     1      -1.510  13.930  20.411  0.00  0.00    +0.000 C 
ATOM      9  N   UNL     1      -1.551  12.919  19.344  0.00  0.00    +0.000 NA
ATOM     10  C   UNL     1      -0.195  12.378  19.228  0.00  0.00    +0.000 C 
ATOM     11  C   UNL     1       0.631  12.747  20.467  0.00  0.00    +0.000 C 
ATOM     12  C   UNL     1       1.211  11.592  21.280  0.00  0.00    +0.000 C 
ENDROOT
BRANCH   2  13
ATOM     13  C   UNL     1       1.036   8.893  19.857  0.00  0.00    +0.000 A 
ATOM     14  C   UNL     1       1.169   9.429  18.522  0.00  0.00    +0.000 A 
ATOM     15  C   UNL     1       2.042   8.739  17.715  0.00  0.00    +0.000 A 
ATOM     16  S   UNL     1       2.753   7.432  18.535  0.00  0.00    +0.000 S 
ATOM     17  C   UNL     1       1.868   7.783  19.955  0.00  0.00    +0.000 A 
ENDBRANCH   2  13
BRANCH   9  18
ATOM     18  C   UNL     1      -2.575  11.878  19.577  0.00  0.00    +0.000 C 
BRANCH  18  19
ATOM     19  C   UNL     1      -3.705  11.829  18.570  0.00  0.00    +0.000 A 
ATOM     20  N   UNL     1      -3.533  11.471  17.311  0.00  0.00    +0.000 NA
ATOM     21  C   UNL     1      -4.736  11.510  16.639  0.00  0.00    +0.000 A 
ATOM     22  C   UNL     1      -5.819  11.903  17.393  0.00  0.00    +0.000 A 
ATOM     23  S   UNL     1      -5.321  12.223  19.005  0.00  0.00    +0.000 S 
ENDBRANCH  18  19
ENDBRANCH   9  18
TORSDOF 3
ENDMDL
MODEL 9
REMARK VINA RESULT:      -5.6      3.169      4.570
REMARK  Name = 
REMARK  3 active torsions:
REMARK  status: ('A' for Active; 'I' for Inactive)
REMARK    1  A    between atoms: C_2  and  C_3
REMARK    2  A    between atoms: N_14  and  C_15
REMARK    3  A    between atoms: C_15  and  C_16
REMARK                            x       y       z     vdW  Elec       q    Type
REMARK                         _______ _______ _______ _____ _____    ______ ____
ROOT
ATOM      1  O   UNL     1       5.421   6.255  19.087  0.00  0.00    +0.000 OA
ATOM      2  C   UNL     1       4.709   5.627  18.299  0.00  0.00    +0.000 C 
ATOM      3  N   UNL     1       3.414   5.234  18.703  0.00  0.00    +0.000 N 
ATOM      4  C   UNL     1       2.943   5.659  20.029  0.00  0.00    +0.000 C 
ATOM      5  C   UNL     1       2.114   4.639  20.831  0.00  0.00    +0.000 C 
ATOM      6  O   UNL     1       1.034   4.033  20.132  0.00  0.00    +0.000 OA
ATOM      7  C   UNL     1       1.322   2.922  19.285  0.00  0.00    +0.000 C 
ATOM      8  C   UNL     1       2.046   1.726  19.925  0.00  0.00    +0.000 C 
ATOM      9  N   UNL     1       3.368   1.583  19.295  0.00  0.00    +0.000 NA
ATOM     10  C   UNL     1       3.309   2.315  18.028  0.00  0.00    +0.000 C 
ATOM     11  C   UNL     1       2.094   3.253  18.013  0.00  0.00    +0.000 C 
ATOM     12  C   UNL     1       2.373   4.741  17.821  0.00  0.00    +0.000 C 
ENDROOT
BRANCH   2  13
ATOM     13  C   UNL     1       5.238   5.339  16.937  0.00  0.00    +0.000 A 
ATOM     14  C   UNL     1       5.155   6.046  15.678  0.00  0.00    +0.000 A 
ATOM     15  C   UNL     1       5.751   5.399  14.622  0.00  0.00    +0.000 A 
ATOM     16  S   UNL     1       6.452   3.928  15.102  0.00  0.00    +0.000 S 
ATOM     17  C   UNL     1       5.930   4.154  16.714  0.00  0.00    +0.000 A 
ENDBRANCH   2  13
BRANCH   9  18
ATOM     18  C   UNL     1       4.474   2.025  20.171  0.00  0.00    +0.000 C 
BRANCH  18  19
ATOM     19  C   UNL     1       5.272   0.921  20.831  0.00  0.00    +0.000 A 
ATOM     20  N   UNL     1       5.835   1.050  22.018  0.00  0.00    +0.000 NA
ATOM     21  C   UNL     1       6.482  -0.117  22.365  0.00  0.00    +0.000 A 
ATOM     22  C   UNL     1       6.411  -1.129  21.433  0.00  0.00    +0.000 A 
ATOM     23  S   UNL     1       5.491  -0.610  20.080  0.00  0.00    +0.000 S 
ENDBRANCH  18  19
ENDBRANCH   9  18
TORSDOF 3
ENDMDL
