MODEL 1
REMARK VINA RESULT:      -8.9      0.000      0.000
REMARK  Name = 
REMARK  6 active torsions:
REMARK  status: ('A' for Active; 'I' for Inactive)
REMARK    1  A    between atoms: C_2  and  O_3
REMARK    2  A    between atoms: O_3  and  C_4
REMARK    3  A    between atoms: C_4  and  C_5
REMARK    4  A    between atoms: C_14  and  C_15
REMARK    5  A    between atoms: C_15  and  N_16
REMARK    6  A    between atoms: C_21  and  N_22
REMARK                            x       y       z     vdW  Elec       q    Type
REMARK                         _______ _______ _______ _____ _____    ______ ____
ROOT
ATOM      1  C   UNL     1       2.270   8.510  18.766  0.00  0.00    +0.000 C 
ENDROOT
BRANCH   1   7
ATOM      2  O   UNL     1       6.362   4.310  17.766  0.00  0.00    +0.000 OA
ATOM      3  C   UNL     1       5.550   4.436  18.681  0.00  0.00    +0.000 C 
ATOM      4  N   UNL     1       4.681   5.523  18.778  0.00  0.00    +0.000 N 
ATOM      5  C   UNL     1       3.667   5.680  19.820  0.00  0.00    +0.000 C 
ATOM      6  C   UNL     1       2.282   5.908  19.204  0.00  0.00    +0.000 C 
ATOM      7  C   UNL     1       2.238   7.062  18.174  0.00  0.00    +0.000 C 
ATOM      8  C   UNL     1       3.369   6.824  17.144  0.00  0.00    +0.000 C 
ATOM      9  C   UNL     1       4.740   6.594  17.793  0.00  0.00    +0.000 C 
BRANCH   3  10
ATOM     10  O   UNL     1       5.391   3.513  19.671  0.00  0.00    +0.000 OA
BRANCH  10  11
ATOM     11  C   UNL     1       4.676   2.315  19.315  0.00  0.00    +0.000 C 
BRANCH  11  12
ATOM     12  C   UNL     1       3.188   2.410  19.571  0.00  0.00    +0.000 A 
ATOM     13  C   UNL     1       2.691   2.674  20.858  0.00  0.00    +0.000 A 
ATOM     14  C   UNL     1       1.317   2.823  21.076  0.00  0.00    +0.000 A 
ATOM     15  C   UNL     1       0.425   2.710  20.014  0.00  0.00    +0.000 A 
ATOM     16  C   UNL     1       0.905   2.448  18.731  0.00  0.00    +0.000 A 
ATOM     17  C   UNL     1       2.278   2.295  18.512  0.00  0.00    +0.000 A 
ENDBRANCH  11  12
ENDBRANCH  10  11
ENDBRANCH   3  10
ENDBRANCH   1   7
BRANCH   1  18
ATOM     18  N   UNL     1       1.674   8.552  20.100  0.00  0.00    +0.000 N 
ATOM     19  C   UNL     1       0.827   9.593  20.460  0.00  0.00    +0.000 A 
ATOM     20  N   UNL     1       0.976  10.052  21.705  0.00  0.00    +0.000 NA
ATOM     21  C   UNL     1       0.090  10.974  22.144  0.00  0.00    +0.000 A 
ATOM     22  C   UNL     1      -0.972  11.456  21.404  0.00  0.00    +0.000 A 
ATOM     23  C   UNL     1      -1.079  10.916  20.146  0.00  0.00    +0.000 A 
ATOM     24  N   UNL     1      -0.152  10.023  19.660  0.00  0.00    +0.000 NA
ATOM     25  H   UNL     1       2.346   8.499  20.860  0.00  0.00    +0.000 HD
BRANCH  23  26
ATOM     26  N   UNL     1      -2.161  11.223  19.252  0.00  0.00    +0.000 N 
ATOM     27  C   UNL     1      -3.075  12.202  19.597  0.00  0.00    +0.000 A 
ATOM     28  N   UNL     1      -4.108  12.263  18.799  0.00  0.00    +0.000 NA
ATOM     29  C   UNL     1      -3.767  11.460  17.755  0.00  0.00    +0.000 A 
ATOM     30  C   UNL     1      -4.472  11.330  16.549  0.00  0.00    +0.000 A 
ATOM     31  C   UNL     1      -3.889  10.632  15.499  0.00  0.00    +0.000 A 
ATOM     32  C   UNL     1      -2.658  10.000  15.681  0.00  0.00    +0.000 A 
ATOM     33  C   UNL     1      -1.978  10.034  16.921  0.00  0.00    +0.000 A 
ATOM     34  C   UNL     1      -2.537  10.808  17.964  0.00  0.00    +0.000 A 
ENDBRANCH  23  26
ENDBRANCH   1  18
TORSDOF 6
ENDMDL
MODEL 2
REMARK VINA RESULT:      -8.8      1.616      3.310
REMARK  Name = 
REMARK  6 active torsions:
REMARK  status: ('A' for Active; 'I' for Inactive)
REMARK    1  A    between atoms: C_2  and  O_3
REMARK    2  A    between atoms: O_3  and  C_4
REMARK    3  A    between atoms: C_4  and  C_5
REMARK    4  A    between atoms: C_14  and  C_15
REMARK    5  A    between atoms: C_15  and  N_16
REMARK    6  A    between atoms: C_21  and  N_22
REMARK                            x       y       z     vdW  Elec       q    Type
REMARK                         _______ _______ _______ _____ _____    ______ ____
ROOT
ATOM      1  C   UNL     1       0.750   7.200  20.762  0.00  0.00    +0.000 C 
ENDROOT
BRANCH   1   7
ATOM      2  O   UNL     1       2.679   2.230  18.122  0.00  0.00    +0.000 OA
ATOM      3  C   UNL     1       2.739   3.404  17.762  0.00  0.00    +0.000 C 
ATOM      4  N   UNL     1       2.189   4.452  18.500  0.00  0.00    +0.000 N 
ATOM      5  C   UNL     1       2.288   5.864  18.131  0.00  0.00    +0.000 C 
ATOM      6  C   UNL     1       2.874   6.689  19.282  0.00  0.00    +0.000 C 
ATOM      7  C   UNL     1       2.139   6.493  20.630  0.00  0.00    +0.000 C 
ATOM      8  C   UNL     1       2.053   4.972  20.908  0.00  0.00    +0.000 C 
ATOM      9  C   UNL     1       1.467   4.175  19.735  0.00  0.00    +0.000 C 
BRANCH   3  10
ATOM     10  O   UNL     1       3.379   3.805  16.628  0.00  0.00    +0.000 OA
BRANCH  10  11
ATOM     11  C   UNL     1       4.797   3.564  16.577  0.00  0.00    +0.000 C 
BRANCH  11  12
ATOM     12  C   UNL     1       5.615   4.680  17.188  0.00  0.00    +0.000 A 
ATOM     13  C   UNL     1       6.148   4.562  18.482  0.00  0.00    +0.000 A 
ATOM     14  C   UNL     1       6.957   5.570  19.017  0.00  0.00    +0.000 A 
ATOM     15  C   UNL     1       7.242   6.708  18.267  0.00  0.00    +0.000 A 
ATOM     16  C   UNL     1       6.719   6.838  16.981  0.00  0.00    +0.000 A 
ATOM     17  C   UNL     1       5.908   5.832  16.445  0.00  0.00    +0.000 A 
ENDBRANCH  11  12
ENDBRANCH  10  11
ENDBRANCH   3  10
ENDBRANCH   1   7
BRANCH   1  18
ATOM     18  N   UNL     1       0.838   8.390  21.605  0.00  0.00    +0.000 N 
ATOM     19  C   UNL     1       0.600   9.651  21.071  0.00  0.00    +0.000 A 
ATOM     20  N   UNL     1       1.409  10.621  21.502  0.00  0.00    +0.000 NA
ATOM     21  C   UNL     1       1.134  11.886  21.111  0.00  0.00    +0.000 A 
ATOM     22  C   UNL     1       0.063  12.247  20.317  0.00  0.00    +0.000 A 
ATOM     23  C   UNL     1      -0.741  11.200  19.939  0.00  0.00    +0.000 A 
ATOM     24  N   UNL     1      -0.443   9.901  20.275  0.00  0.00    +0.000 NA
ATOM     25  H   UNL     1       1.722   8.488  22.099  0.00  0.00    +0.000 HD
BRANCH  23  26
ATOM     26  N   UNL     1      -1.950  11.377  19.183  0.00  0.00    +0.000 N 
ATOM     27  C   UNL     1      -2.929  12.233  19.650  0.00  0.00    +0.000 A 
ATOM     28  N   UNL     1      -4.048  12.170  18.979  0.00  0.00    +0.000 NA
ATOM     29  C   UNL     1      -3.738  11.420  17.887  0.00  0.00    +0.000 A 
ATOM     30  C   UNL     1      -4.559  11.209  16.769  0.00  0.00    +0.000 A 
ATOM     31  C   UNL     1      -4.022  10.594  15.645  0.00  0.00    +0.000 A 
ATOM     32  C   UNL     1      -2.711  10.117  15.671  0.00  0.00    +0.000 A 
ATOM     33  C   UNL     1      -1.899  10.230  16.824  0.00  0.00    +0.000 A 
ATOM     34  C   UNL     1      -2.421  10.924  17.939  0.00  0.00    +0.000 A 
ENDBRANCH  23  26
ENDBRANCH   1  18
TORSDOF 6
ENDMDL
MODEL 3
REMARK VINA RESULT:      -8.7      0.930      1.585
REMARK  Name = 
REMARK  6 active torsions:
REMARK  status: ('A' for Active; 'I' for Inactive)
REMARK    1  A    between atoms: C_2  and  O_3
REMARK    2  A    between atoms: O_3  and  C_4
REMARK    3  A    between atoms: C_4  and  C_5
REMARK    4  A    between atoms: C_14  and  C_15
REMARK    5  A    between atoms: C_15  and  N_16
REMARK    6  A    between atoms: C_21  and  N_22
REMARK                            x       y       z     vdW  Elec       q    Type
REMARK                         _______ _______ _______ _____ _____    ______ ____
ROOT
ATOM      1  C   UNL     1       2.393   8.648  18.454  0.00  0.00    +0.000 C 
ENDROOT
BRANCH   1   7
ATOM      2  O   UNL     1       6.449   4.344  17.809  0.00  0.00    +0.000 OA
ATOM      3  C   UNL     1       5.607   4.527  18.686  0.00  0.00    +0.000 C 
ATOM      4  N   UNL     1       4.752   5.629  18.699  0.00  0.00    +0.000 N 
ATOM      5  C   UNL     1       3.704   5.851  19.694  0.00  0.00    +0.000 C 
ATOM      6  C   UNL     1       2.347   6.070  19.017  0.00  0.00    +0.000 C 
ATOM      7  C   UNL     1       2.358   7.173  17.932  0.00  0.00    +0.000 C 
ATOM      8  C   UNL     1       3.522   6.869  16.956  0.00  0.00    +0.000 C 
ATOM      9  C   UNL     1       4.865   6.651  17.666  0.00  0.00    +0.000 C 
BRANCH   3  10
ATOM     10  O   UNL     1       5.396   3.655  19.712  0.00  0.00    +0.000 OA
BRANCH  10  11
ATOM     11  C   UNL     1       4.712   2.433  19.380  0.00  0.00    +0.000 C 
BRANCH  11  12
ATOM     12  C   UNL     1       3.215   2.512  19.583  0.00  0.00    +0.000 A 
ATOM     13  C   UNL     1       2.667   2.698  20.863  0.00  0.00    +0.000 A 
ATOM     14  C   UNL     1       1.286   2.834  21.036  0.00  0.00    +0.000 A 
ATOM     15  C   UNL     1       0.436   2.787  19.935  0.00  0.00    +0.000 A 
ATOM     16  C   UNL     1       0.967   2.604  18.658  0.00  0.00    +0.000 A 
ATOM     17  C   UNL     1       2.348   2.464  18.483  0.00  0.00    +0.000 A 
ENDBRANCH  11  12
ENDBRANCH  10  11
ENDBRANCH   3  10
ENDBRANCH   1   7
BRANCH   1  18
ATOM     18  N   UNL     1       1.740   8.765  19.756  0.00  0.00    +0.000 N 
ATOM     19  C   UNL     1       0.812   9.773  19.991  0.00  0.00    +0.000 A 
ATOM     20  N   UNL     1       0.878  10.348  21.194  0.00  0.00    +0.000 NA
ATOM     21  C   UNL     1      -0.084  11.241  21.515  0.00  0.00    +0.000 A 
ATOM     22  C   UNL     1      -1.144  11.582  20.697  0.00  0.00    +0.000 A 
ATOM     23  C   UNL     1      -1.162  10.928  19.490  0.00  0.00    +0.000 A 
ATOM     24  N   UNL     1      -0.159  10.062  19.120  0.00  0.00    +0.000 NA
ATOM     25  H   UNL     1       2.382   8.825  20.542  0.00  0.00    +0.000 HD
BRANCH  23  26
ATOM     26  N   UNL     1      -2.223  11.080  18.533  0.00  0.00    +0.000 N 
ATOM     27  C   UNL     1      -2.111  10.489  17.289  0.00  0.00    +0.000 A 
ATOM     28  N   UNL     1      -3.045  10.848  16.449  0.00  0.00    +0.000 NA
ATOM     29  C   UNL     1      -3.942  11.520  17.220  0.00  0.00    +0.000 A 
ATOM     30  C   UNL     1      -5.213  11.959  16.816  0.00  0.00    +0.000 A 
ATOM     31  C   UNL     1      -6.094  12.445  17.774  0.00  0.00    +0.000 A 
ATOM     32  C   UNL     1      -5.679  12.573  19.100  0.00  0.00    +0.000 A 
ATOM     33  C   UNL     1      -4.368  12.232  19.508  0.00  0.00    +0.000 A 
ATOM     34  C   UNL     1      -3.500  11.667  18.548  0.00  0.00    +0.000 A 
ENDBRANCH  23  26
ENDBRANCH   1  18
TORSDOF 6
ENDMDL
MODEL 4
REMARK VINA RESULT:      -8.6      2.536      4.071
REMARK  Name = 
REMARK  6 active torsions:
REMARK  status: ('A' for Active; 'I' for Inactive)
REMARK    1  A    between atoms: C_2  and  O_3
REMARK    2  A    between atoms: O_3  and  C_4
REMARK    3  A    between atoms: C_4  and  C_5
REMARK    4  A    between atoms: C_14  and  C_15
REMARK    5  A    between atoms: C_15  and  N_16
REMARK    6  A    between atoms: C_21  and  N_22
REMARK                            x       y       z     vdW  Elec       q    Type
REMARK                         _______ _______ _______ _____ _____    ______ ____
ROOT
ATOM      1  C   UNL     1      -0.340  11.067  22.144  0.00  0.00    +0.000 C 
ENDROOT
BRANCH   1   7
ATOM      2  O   UNL     1       2.209   8.698  17.319  0.00  0.00    +0.000 OA
ATOM      3  C   UNL     1       2.203   8.321  18.489  0.00  0.00    +0.000 C 
ATOM      4  N   UNL     1       1.578   9.034  19.512  0.00  0.00    +0.000 N 
ATOM      5  C   UNL     1       1.504   8.591  20.904  0.00  0.00    +0.000 C 
ATOM      6  C   UNL     1       0.053   8.568  21.393  0.00  0.00    +0.000 C 
ATOM      7  C   UNL     1      -0.704   9.899  21.169  0.00  0.00    +0.000 C 
ATOM      8  C   UNL     1      -0.533  10.299  19.683  0.00  0.00    +0.000 C 
ATOM      9  C   UNL     1       0.931  10.307  19.224  0.00  0.00    +0.000 C 
BRANCH   3  10
ATOM     10  O   UNL     1       2.773   7.153  18.901  0.00  0.00    +0.000 OA
BRANCH  10  11
ATOM     11  C   UNL     1       2.392   5.969  18.177  0.00  0.00    +0.000 C 
BRANCH  11  12
ATOM     12  C   UNL     1       1.964   4.830  19.077  0.00  0.00    +0.000 A 
ATOM     13  C   UNL     1       1.389   3.665  18.546  0.00  0.00    +0.000 A 
ATOM     14  C   UNL     1       1.054   2.590  19.376  0.00  0.00    +0.000 A 
ATOM     15  C   UNL     1       1.289   2.667  20.746  0.00  0.00    +0.000 A 
ATOM     16  C   UNL     1       1.860   3.818  21.287  0.00  0.00    +0.000 A 
ATOM     17  C   UNL     1       2.193   4.895  20.458  0.00  0.00    +0.000 A 
ENDBRANCH  11  12
ENDBRANCH  10  11
ENDBRANCH   3  10
ENDBRANCH   1   7
BRANCH   1  18
ATOM     18  N   UNL     1      -1.359  11.232  23.178  0.00  0.00    +0.000 N 
ATOM     19  C   UNL     1      -2.365  12.180  23.031  0.00  0.00    +0.000 A 
ATOM     20  N   UNL     1      -2.693  12.849  24.139  0.00  0.00    +0.000 NA
ATOM     21  C   UNL     1      -3.752  13.686  24.075  0.00  0.00    +0.000 A 
ATOM     22  C   UNL     1      -4.533  13.880  22.952  0.00  0.00    +0.000 A 
ATOM     23  C   UNL     1      -4.154  13.136  21.862  0.00  0.00    +0.000 A 
ATOM     24  N   UNL     1      -3.043  12.326  21.890  0.00  0.00    +0.000 NA
ATOM     25  H   UNL     1      -0.987  11.402  24.109  0.00  0.00    +0.000 HD
BRANCH  23  26
ATOM     26  N   UNL     1      -4.886  13.132  20.626  0.00  0.00    +0.000 N 
ATOM     27  C   UNL     1      -5.974  13.971  20.473  0.00  0.00    +0.000 A 
ATOM     28  N   UNL     1      -6.664  13.747  19.386  0.00  0.00    +0.000 NA
ATOM     29  C   UNL     1      -5.885  12.890  18.672  0.00  0.00    +0.000 A 
ATOM     30  C   UNL     1      -6.105  12.484  17.346  0.00  0.00    +0.000 A 
ATOM     31  C   UNL     1      -5.112  11.771  16.687  0.00  0.00    +0.000 A 
ATOM     32  C   UNL     1      -3.955  11.394  17.369  0.00  0.00    +0.000 A 
ATOM     33  C   UNL     1      -3.759  11.705  18.735  0.00  0.00    +0.000 A 
ATOM     34  C   UNL     1      -4.736  12.495  19.382  0.00  0.00    +0.000 A 
ENDBRANCH  23  26
ENDBRANCH   1  18
TORSDOF 6
ENDMDL
MODEL 5
REMARK VINA RESULT:      -8.6      1.798      3.799
REMARK  Name = 
REMARK  6 active torsions:
REMARK  status: ('A' for Active; 'I' for Inactive)
REMARK    1  A    between atoms: C_2  and  O_3
REMARK    2  A    between atoms: O_3  and  C_4
REMARK    3  A    between atoms: C_4  and  C_5
REMARK    4  A    between atoms: C_14  and  C_15
REMARK    5  A    between atoms: C_15  and  N_16
REMARK    6  A    between atoms: C_21  and  N_22
REMARK                            x       y       z     vdW  Elec       q    Type
REMARK                         _______ _______ _______ _____ _____    ______ ____
ROOT
ATOM      1  C   UNL     1       0.939   7.009  20.526  0.00  0.00    +0.000 C 
ENDROOT
BRANCH   1   7
ATOM      2  O   UNL     1       3.739   2.453  17.919  0.00  0.00    +0.000 OA
ATOM      3  C   UNL     1       3.555   3.607  17.534  0.00  0.00    +0.000 C 
ATOM      4  N   UNL     1       2.829   4.544  18.270  0.00  0.00    +0.000 N 
ATOM      5  C   UNL     1       2.636   5.938  17.872  0.00  0.00    +0.000 C 
ATOM      6  C   UNL     1       3.079   6.891  18.987  0.00  0.00    +0.000 C 
ATOM      7  C   UNL     1       2.436   6.587  20.362  0.00  0.00    +0.000 C 
ATOM      8  C   UNL     1       2.661   5.087  20.671  0.00  0.00    +0.000 C 
ATOM      9  C   UNL     1       2.212   4.161  19.533  0.00  0.00    +0.000 C 
BRANCH   3  10
ATOM     10  O   UNL     1       4.070   4.099  16.372  0.00  0.00    +0.000 OA
BRANCH  10  11
ATOM     11  C   UNL     1       5.487   3.930  16.182  0.00  0.00    +0.000 C 
BRANCH  11  12
ATOM     12  C   UNL     1       6.315   4.961  16.917  0.00  0.00    +0.000 A 
ATOM     13  C   UNL     1       6.271   6.317  16.554  0.00  0.00    +0.000 A 
ATOM     14  C   UNL     1       6.989   7.274  17.277  0.00  0.00    +0.000 A 
ATOM     15  C   UNL     1       7.760   6.890  18.371  0.00  0.00    +0.000 A 
ATOM     16  C   UNL     1       7.813   5.546  18.743  0.00  0.00    +0.000 A 
ATOM     17  C   UNL     1       7.097   4.587  18.018  0.00  0.00    +0.000 A 
ENDBRANCH  11  12
ENDBRANCH  10  11
ENDBRANCH   3  10
ENDBRANCH   1   7
BRANCH   1  18
ATOM     18  N   UNL     1       0.812   8.201  21.362  0.00  0.00    +0.000 N 
ATOM     19  C   UNL     1       0.549   9.439  20.787  0.00  0.00    +0.000 A 
ATOM     20  N   UNL     1       1.208  10.471  21.317  0.00  0.00    +0.000 NA
ATOM     21  C   UNL     1       0.889  11.710  20.879  0.00  0.00    +0.000 A 
ATOM     22  C   UNL     1      -0.086  11.984  19.941  0.00  0.00    +0.000 A 
ATOM     23  C   UNL     1      -0.742  10.875  19.465  0.00  0.00    +0.000 A 
ATOM     24  N   UNL     1      -0.390   9.604  19.852  0.00  0.00    +0.000 NA
ATOM     25  H   UNL     1       1.607   8.370  21.973  0.00  0.00    +0.000 HD
BRANCH  23  26
ATOM     26  N   UNL     1      -1.844  10.954  18.546  0.00  0.00    +0.000 N 
ATOM     27  C   UNL     1      -1.799  10.240  17.363  0.00  0.00    +0.000 A 
ATOM     28  N   UNL     1      -2.765  10.532  16.533  0.00  0.00    +0.000 NA
ATOM     29  C   UNL     1      -3.615  11.295  17.272  0.00  0.00    +0.000 A 
ATOM     30  C   UNL     1      -4.897  11.716  16.884  0.00  0.00    +0.000 A 
ATOM     31  C   UNL     1      -5.724  12.311  17.827  0.00  0.00    +0.000 A 
ATOM     32  C   UNL     1      -5.247  12.562  19.114  0.00  0.00    +0.000 A 
ATOM     33  C   UNL     1      -3.924  12.238  19.495  0.00  0.00    +0.000 A 
ATOM     34  C   UNL     1      -3.109  11.564  18.558  0.00  0.00    +0.000 A 
ENDBRANCH  23  26
ENDBRANCH   1  18
TORSDOF 6
ENDMDL
MODEL 6
REMARK VINA RESULT:      -8.5      3.100      3.856
REMARK  Name = 
REMARK  6 active torsions:
REMARK  status: ('A' for Active; 'I' for Inactive)
REMARK    1  A    between atoms: C_2  and  O_3
REMARK    2  A    between atoms: O_3  and  C_4
REMARK    3  A    between atoms: C_4  and  C_5
REMARK    4  A    between atoms: C_14  and  C_15
REMARK    5  A    between atoms: C_15  and  N_16
REMARK    6  A    between atoms: C_21  and  N_22
REMARK                            x       y       z     vdW  Elec       q    Type
REMARK                         _______ _______ _______ _____ _____    ______ ____
ROOT
ATOM      1  C   UNL     1       2.647   8.634  17.991  0.00  0.00    +0.000 C 
ENDROOT
BRANCH   1   7
ATOM      2  O   UNL     1       6.796   4.377  18.225  0.00  0.00    +0.000 OA
ATOM      3  C   UNL     1       5.786   4.550  18.905  0.00  0.00    +0.000 C 
ATOM      4  N   UNL     1       4.936   5.643  18.735  0.00  0.00    +0.000 N 
ATOM      5  C   UNL     1       3.699   5.853  19.486  0.00  0.00    +0.000 C 
ATOM      6  C   UNL     1       2.512   6.056  18.539  0.00  0.00    +0.000 C 
ATOM      7  C   UNL     1       2.740   7.159  17.477  0.00  0.00    +0.000 C 
ATOM      8  C   UNL     1       4.085   6.867  16.769  0.00  0.00    +0.000 C 
ATOM      9  C   UNL     1       5.252   6.665  17.746  0.00  0.00    +0.000 C 
BRANCH   3  10
ATOM     10  O   UNL     1       5.374   3.677  19.867  0.00  0.00    +0.000 OA
BRANCH  10  11
ATOM     11  C   UNL     1       4.696   2.494  19.404  0.00  0.00    +0.000 C 
BRANCH  11  12
ATOM     12  C   UNL     1       3.198   2.548  19.603  0.00  0.00    +0.000 A 
ATOM     13  C   UNL     1       2.645   2.795  20.870  0.00  0.00    +0.000 A 
ATOM     14  C   UNL     1       1.261   2.908  21.036  0.00  0.00    +0.000 A 
ATOM     15  C   UNL     1       0.413   2.774  19.940  0.00  0.00    +0.000 A 
ATOM     16  C   UNL     1       0.949   2.529  18.676  0.00  0.00    +0.000 A 
ATOM     17  C   UNL     1       2.333   2.414  18.509  0.00  0.00    +0.000 A 
ENDBRANCH  11  12
ENDBRANCH  10  11
ENDBRANCH   3  10
ENDBRANCH   1   7
BRANCH   1  18
ATOM     18  N   UNL     1       1.296   8.953  18.448  0.00  0.00    +0.000 N 
ATOM     19  C   UNL     1       1.059  10.095  19.203  0.00  0.00    +0.000 A 
ATOM     20  N   UNL     1       0.187   9.954  20.203  0.00  0.00    +0.000 NA
ATOM     21  C   UNL     1      -0.173  11.066  20.882  0.00  0.00    +0.000 A 
ATOM     22  C   UNL     1       0.278  12.340  20.599  0.00  0.00    +0.000 A 
ATOM     23  C   UNL     1       1.148  12.410  19.538  0.00  0.00    +0.000 A 
ATOM     24  N   UNL     1       1.573  11.283  18.875  0.00  0.00    +0.000 NA
ATOM     25  H   UNL     1       0.844   8.207  18.970  0.00  0.00    +0.000 HD
BRANCH  23  26
ATOM     26  N   UNL     1       1.666  13.652  19.033  0.00  0.00    +0.000 N 
ATOM     27  C   UNL     1       2.967  13.711  18.572  0.00  0.00    +0.000 A 
ATOM     28  N   UNL     1       3.380  14.924  18.312  0.00  0.00    +0.000 NA
ATOM     29  C   UNL     1       2.250  15.678  18.380  0.00  0.00    +0.000 A 
ATOM     30  C   UNL     1       2.133  17.027  18.007  0.00  0.00    +0.000 A 
ATOM     31  C   UNL     1       0.870  17.599  17.937  0.00  0.00    +0.000 A 
ATOM     32  C   UNL     1      -0.251  16.862  18.318  0.00  0.00    +0.000 A 
ATOM     33  C   UNL     1      -0.145  15.534  18.793  0.00  0.00    +0.000 A 
ATOM     34  C   UNL     1       1.132  14.929  18.792  0.00  0.00    +0.000 A 
ENDBRANCH  23  26
ENDBRANCH   1  18
TORSDOF 6
ENDMDL
MODEL 7
REMARK VINA RESULT:      -8.5      1.626      3.502
REMARK  Name = 
REMARK  6 active torsions:
REMARK  status: ('A' for Active; 'I' for Inactive)
REMARK    1  A    between atoms: C_2  and  O_3
REMARK    2  A    between atoms: O_3  and  C_4
REMARK    3  A    between atoms: C_4  and  C_5
REMARK    4  A    between atoms: C_14  and  C_15
REMARK    5  A    between atoms: C_15  and  N_16
REMARK    6  A    between atoms: C_21  and  N_22
REMARK                            x       y       z     vdW  Elec       q    Type
REMARK                         _______ _______ _______ _____ _____    ______ ____
ROOT
ATOM      1  C   UNL     1       1.618   7.801  19.479  0.00  0.00    +0.000 C 
ENDROOT
BRANCH   1   7
ATOM      2  O   UNL     1       3.745   2.641  17.417  0.00  0.00    +0.000 OA
ATOM      3  C   UNL     1       3.929   3.795  17.032  0.00  0.00    +0.000 C 
ATOM      4  N   UNL     1       3.307   4.897  17.619  0.00  0.00    +0.000 N 
ATOM      5  C   UNL     1       3.542   6.286  17.225  0.00  0.00    +0.000 C 
ATOM      6  C   UNL     1       3.948   7.135  18.434  0.00  0.00    +0.000 C 
ATOM      7  C   UNL     1       2.972   7.030  19.630  0.00  0.00    +0.000 C 
ATOM      8  C   UNL     1       2.761   5.528  19.941  0.00  0.00    +0.000 C 
ATOM      9  C   UNL     1       2.359   4.706  18.709  0.00  0.00    +0.000 C 
BRANCH   3  10
ATOM     10  O   UNL     1       4.784   4.119  16.022  0.00  0.00    +0.000 OA
BRANCH  10  11
ATOM     11  C   UNL     1       6.180   3.867  16.264  0.00  0.00    +0.000 C 
BRANCH  11  12
ATOM     12  C   UNL     1       6.857   4.966  17.053  0.00  0.00    +0.000 A 
ATOM     13  C   UNL     1       7.000   6.257  16.519  0.00  0.00    +0.000 A 
ATOM     14  C   UNL     1       7.569   7.285  17.278  0.00  0.00    +0.000 A 
ATOM     15  C   UNL     1       8.002   7.037  18.577  0.00  0.00    +0.000 A 
ATOM     16  C   UNL     1       7.864   5.760  19.120  0.00  0.00    +0.000 A 
ATOM     17  C   UNL     1       7.299   4.730  18.362  0.00  0.00    +0.000 A 
ENDBRANCH  11  12
ENDBRANCH  10  11
ENDBRANCH   3  10
ENDBRANCH   1   7
BRANCH   1  18
ATOM     18  N   UNL     1       1.224   8.431  20.737  0.00  0.00    +0.000 N 
ATOM     19  C   UNL     1       0.621   9.683  20.738  0.00  0.00    +0.000 A 
ATOM     20  N   UNL     1       1.011  10.510  21.710  0.00  0.00    +0.000 NA
ATOM     21  C   UNL     1       0.359  11.688  21.830  0.00  0.00    +0.000 A 
ATOM     22  C   UNL     1      -0.697  12.086  21.035  0.00  0.00    +0.000 A 
ATOM     23  C   UNL     1      -1.062  11.171  20.078  0.00  0.00    +0.000 A 
ATOM     24  N   UNL     1      -0.372   9.995  19.900  0.00  0.00    +0.000 NA
ATOM     25  H   UNL     1       1.975   8.513  21.417  0.00  0.00    +0.000 HD
BRANCH  23  26
ATOM     26  N   UNL     1      -2.188  11.359  19.205  0.00  0.00    +0.000 N 
ATOM     27  C   UNL     1      -3.177  12.261  19.551  0.00  0.00    +0.000 A 
ATOM     28  N   UNL     1      -4.230  12.210  18.780  0.00  0.00    +0.000 NA
ATOM     29  C   UNL     1      -3.844  11.415  17.745  0.00  0.00    +0.000 A 
ATOM     30  C   UNL     1      -4.563  11.192  16.561  0.00  0.00    +0.000 A 
ATOM     31  C   UNL     1      -3.945  10.523  15.513  0.00  0.00    +0.000 A 
ATOM     32  C   UNL     1      -2.659  10.007  15.678  0.00  0.00    +0.000 A 
ATOM     33  C   UNL     1      -1.955  10.133  16.898  0.00  0.00    +0.000 A 
ATOM     34  C   UNL     1      -2.556  10.880  17.937  0.00  0.00    +0.000 A 
ENDBRANCH  23  26
ENDBRANCH   1  18
TORSDOF 6
ENDMDL
MODEL 8
REMARK VINA RESULT:      -8.4      3.056      4.447
REMARK  Name = 
REMARK  6 active torsions:
REMARK  status: ('A' for Active; 'I' for Inactive)
REMARK    1  A    between atoms: C_2  and  O_3
REMARK    2  A    between atoms: O_3  and  C_4
REMARK    3  A    between atoms: C_4  and  C_5
REMARK    4  A    between atoms: C_14  and  C_15
REMARK    5  A    between atoms: C_15  and  N_16
REMARK    6  A    between atoms: C_21  and  N_22
REMARK                            x       y       z     vdW  Elec       q    Type
REMARK                         _______ _______ _______ _____ _____    ______ ____
ROOT
ATOM      1  C   UNL     1      -0.242  12.092  20.183  0.00  0.00    +0.000 C 
ENDROOT
BRANCH   1   7
ATOM      2  O   UNL     1       2.520   7.519  17.563  0.00  0.00    +0.000 OA
ATOM      3  C   UNL     1       2.280   7.738  18.749  0.00  0.00    +0.000 C 
ATOM      4  N   UNL     1       1.649   8.900  19.194  0.00  0.00    +0.000 N 
ATOM      5  C   UNL     1       1.299   9.170  20.588  0.00  0.00    +0.000 C 
ATOM      6  C   UNL     1      -0.189   9.509  20.721  0.00  0.00    +0.000 C 
ATOM      7  C   UNL     1      -0.661  10.640  19.776  0.00  0.00    +0.000 C 
ATOM      8  C   UNL     1      -0.210  10.279  18.340  0.00  0.00    +0.000 C 
ATOM      9  C   UNL     1       1.284   9.941  18.242  0.00  0.00    +0.000 C 
BRANCH   3  10
ATOM     10  O   UNL     1       2.571   6.855  19.746  0.00  0.00    +0.000 OA
BRANCH  10  11
ATOM     11  C   UNL     1       3.375   5.719  19.376  0.00  0.00    +0.000 C 
BRANCH  11  12
ATOM     12  C   UNL     1       2.565   4.462  19.148  0.00  0.00    +0.000 A 
ATOM     13  C   UNL     1       2.986   3.487  18.230  0.00  0.00    +0.000 A 
ATOM     14  C   UNL     1       2.267   2.298  18.070  0.00  0.00    +0.000 A 
ATOM     15  C   UNL     1       1.120   2.069  18.825  0.00  0.00    +0.000 A 
ATOM     16  C   UNL     1       0.691   3.029  19.741  0.00  0.00    +0.000 A 
ATOM     17  C   UNL     1       1.407   4.220  19.899  0.00  0.00    +0.000 A 
ENDBRANCH  11  12
ENDBRANCH  10  11
ENDBRANCH   3  10
ENDBRANCH   1   7
BRANCH   1  18
ATOM     18  N   UNL     1      -0.160  12.234  21.634  0.00  0.00    +0.000 N 
ATOM     19  C   UNL     1      -1.144  12.925  22.331  0.00  0.00    +0.000 A 
ATOM     20  N   UNL     1      -0.708  13.701  23.326  0.00  0.00    +0.000 NA
ATOM     21  C   UNL     1      -1.635  14.290  24.114  0.00  0.00    +0.000 A 
ATOM     22  C   UNL     1      -3.000  14.126  23.977  0.00  0.00    +0.000 A 
ATOM     23  C   UNL     1      -3.371  13.290  22.953  0.00  0.00    +0.000 A 
ATOM     24  N   UNL     1      -2.445  12.732  22.103  0.00  0.00    +0.000 NA
ATOM     25  H   UNL     1       0.714  12.635  21.967  0.00  0.00    +0.000 HD
BRANCH  23  26
ATOM     26  N   UNL     1      -4.737  12.926  22.698  0.00  0.00    +0.000 N 
ATOM     27  C   UNL     1      -5.653  12.940  23.733  0.00  0.00    +0.000 A 
ATOM     28  N   UNL     1      -6.808  12.416  23.422  0.00  0.00    +0.000 NA
ATOM     29  C   UNL     1      -6.746  12.257  22.072  0.00  0.00    +0.000 A 
ATOM     30  C   UNL     1      -7.810  11.890  21.233  0.00  0.00    +0.000 A 
ATOM     31  C   UNL     1      -7.642  11.971  19.857  0.00  0.00    +0.000 A 
ATOM     32  C   UNL     1      -6.402  12.329  19.327  0.00  0.00    +0.000 A 
ATOM     33  C   UNL     1      -5.288  12.604  20.154  0.00  0.00    +0.000 A 
ATOM     34  C   UNL     1      -5.482  12.595  21.553  0.00  0.00    +0.000 A 
ENDBRANCH  23  26
ENDBRANCH   1  18
TORSDOF 6
ENDMDL
MODEL 9
REMARK VINA RESULT:      -8.3      1.689      3.594
REMARK  Name = 
REMARK  6 active torsions:
REMARK  status: ('A' for Active; 'I' for Inactive)
REMARK    1  A    between atoms: C_2  and  O_3
REMARK    2  A    between atoms: O_3  and  C_4
REMARK    3  A    between atoms: C_4  and  C_5
REMARK    4  A    between atoms: C_14  and  C_15
REMARK    5  A    between atoms: C_15  and  N_16
REMARK    6  A    between atoms: C_21  and  N_22
REMARK                            x       y       z     vdW  Elec       q    Type
REMARK                         _______ _______ _______ _____ _____    ______ ____
ROOT
ATOM      1  C   UNL     1       2.334   8.634  18.484  0.00  0.00    +0.000 C 
ENDROOT
BRANCH   1   7
ATOM      2  O   UNL     1       6.436   4.373  17.838  0.00  0.00    +0.000 OA
ATOM      3  C   UNL     1       5.605   4.558  18.726  0.00  0.00    +0.000 C 
ATOM      4  N   UNL     1       4.736   5.650  18.736  0.00  0.00    +0.000 N 
ATOM      5  C   UNL     1       3.700   5.873  19.744  0.00  0.00    +0.000 C 
ATOM      6  C   UNL     1       2.330   6.065  19.085  0.00  0.00    +0.000 C 
ATOM      7  C   UNL     1       2.311   7.152  17.984  0.00  0.00    +0.000 C 
ATOM      8  C   UNL     1       3.463   6.848  16.995  0.00  0.00    +0.000 C 
ATOM      9  C   UNL     1       4.820   6.658  17.687  0.00  0.00    +0.000 C 
BRANCH   3  10
ATOM     10  O   UNL     1       5.421   3.699  19.768  0.00  0.00    +0.000 OA
BRANCH  10  11
ATOM     11  C   UNL     1       4.752   2.462  19.463  0.00  0.00    +0.000 C 
BRANCH  11  12
ATOM     12  C   UNL     1       3.251   2.536  19.635  0.00  0.00    +0.000 A 
ATOM     13  C   UNL     1       2.677   2.736  20.901  0.00  0.00    +0.000 A 
ATOM     14  C   UNL     1       1.292   2.867  21.045  0.00  0.00    +0.000 A 
ATOM     15  C   UNL     1       0.464   2.800  19.927  0.00  0.00    +0.000 A 
ATOM     16  C   UNL     1       1.022   2.603  18.664  0.00  0.00    +0.000 A 
ATOM     17  C   UNL     1       2.406   2.468  18.519  0.00  0.00    +0.000 A 
ENDBRANCH  11  12
ENDBRANCH  10  11
ENDBRANCH   3  10
ENDBRANCH   1   7
BRANCH   1  18
ATOM     18  N   UNL     1       1.486   9.488  17.655  0.00  0.00    +0.000 N 
ATOM     19  C   UNL     1       0.271   9.957  18.140  0.00  0.00    +0.000 A 
ATOM     20  N   UNL     1      -0.734   9.968  17.262  0.00  0.00    +0.000 NA
ATOM     21  C   UNL     1      -1.899  10.535  17.649  0.00  0.00    +0.000 A 
ATOM     22  C   UNL     1      -2.113  11.125  18.879  0.00  0.00    +0.000 A 
ATOM     23  C   UNL     1      -1.025  11.103  19.717  0.00  0.00    +0.000 A 
ATOM     24  N   UNL     1       0.147  10.477  19.364  0.00  0.00    +0.000 NA
ATOM     25  H   UNL     1       1.259   9.095  16.745  0.00  0.00    +0.000 HD
BRANCH  23  26
ATOM     26  N   UNL     1      -1.018  11.737  21.006  0.00  0.00    +0.000 N 
ATOM     27  C   UNL     1      -0.428  11.096  22.079  0.00  0.00    +0.000 A 
ATOM     28  N   UNL     1      -0.645  11.680  23.227  0.00  0.00    +0.000 NA
ATOM     29  C   UNL     1      -1.201  12.875  22.890  0.00  0.00    +0.000 A 
ATOM     30  C   UNL     1      -1.457  13.943  23.764  0.00  0.00    +0.000 A 
ATOM     31  C   UNL     1      -1.835  15.170  23.234  0.00  0.00    +0.000 A 
ATOM     32  C   UNL     1      -2.039  15.304  21.861  0.00  0.00    +0.000 A 
ATOM     33  C   UNL     1      -1.885  14.212  20.974  0.00  0.00    +0.000 A 
ATOM     34  C   UNL     1      -1.427  12.985  21.505  0.00  0.00    +0.000 A 
ENDBRANCH  23  26
ENDBRANCH   1  18
TORSDOF 6
ENDMDL
