MODEL 1
REMARK VINA RESULT:      -6.3      0.000      0.000
REMARK  Name = 
REMARK  11 active torsions:
REMARK  status: ('A' for Active; 'I' for Inactive)
REMARK    1  A    between atoms: C_1  and  N_2
REMARK    2  A    between atoms: N_2  and  C_3
REMARK    3  A    between atoms: C_3  and  C_4
REMARK    4  A    between atoms: C_5  and  C_6
REMARK    5  A    between atoms: C_6  and  N_7
REMARK    6  A    between atoms: C_12  and  C_14
REMARK    7  A    between atoms: C_14  and  C_15
REMARK    8  A    between atoms: C_15  and  C_16
REMARK    9  A    between atoms: C_16  and  N_17
REMARK   10  A    between atoms: C_18  and  C_20
REMARK   11  A    between atoms: C_20  and  N_21
REMARK                            x       y       z     vdW  Elec       q    Type
REMARK                         _______ _______ _______ _____ _____    ______ ____
ROOT
ATOM      1  C   UNL     1       7.852   5.759  19.264  0.00  0.00    +0.000 C 
ATOM      2  N   UNL     1       6.845   5.992  18.240  0.00  0.00    +0.000 N 
ATOM      3  C   UNL     1       5.722   5.176  18.276  0.00  0.00    +0.000 C 
ATOM      4  O   UNL     1       5.583   4.312  19.144  0.00  0.00    +0.000 OA
ENDROOT
BRANCH   2   5
ATOM      5  C   UNL     1       7.126   7.021  17.240  0.00  0.00    +0.000 C 
BRANCH   5   6
ATOM      6  C   UNL     1       7.881   8.187  17.857  0.00  0.00    +0.000 C 
ATOM      7  C   UNL     1       8.528   9.187  18.386  0.00  0.00    +0.000 C 
BRANCH   7   8
ATOM      8  C   UNL     1       9.244  10.348  18.942  0.00  0.00    +0.000 C 
BRANCH   8   9
ATOM      9  N   UNL     1       9.596  11.312  17.888  0.00  0.00    +0.000 NA
ATOM     10  C   UNL     1      10.773  12.110  18.269  0.00  0.00    +0.000 C 
ATOM     11  C   UNL     1      10.215  13.289  19.040  0.00  0.00    +0.000 C 
ATOM     12  C   UNL     1       8.941  13.610  18.286  0.00  0.00    +0.000 C 
ATOM     13  C   UNL     1       8.520  12.293  17.646  0.00  0.00    +0.000 C 
ENDBRANCH   8   9
ENDBRANCH   7   8
ENDBRANCH   5   6
ENDBRANCH   2   5
BRANCH   3  14
ATOM     14  C   UNL     1       4.665   5.374  17.201  0.00  0.00    +0.000 C 
BRANCH  14  15
ATOM     15  C   UNL     1       3.576   4.296  17.261  0.00  0.00    +0.000 C 
BRANCH  15  16
ATOM     16  C   UNL     1       2.401   4.748  18.117  0.00  0.00    +0.000 C 
BRANCH  16  17
ATOM     17  N   UNL     1       2.370   4.104  19.411  0.00  0.00    +0.000 N 
ATOM     18  C   UNL     1       1.561   3.015  19.649  0.00  0.00    +0.000 C 
ATOM     19  O   UNL     1       0.796   2.546  18.806  0.00  0.00    +0.000 OA
ATOM     20  H   UNL     1       2.990   4.382  20.170  0.00  0.00    +0.000 HD
BRANCH  18  21
ATOM     21  C   UNL     1       1.645   2.456  21.072  0.00  0.00    +0.000 C 
BRANCH  21  22
ATOM     22  N   UNL     1       2.181   3.455  22.017  0.00  0.00    +0.000 NA
ATOM     23  H   UNL     1       2.791   2.968  22.678  0.00  0.00    +0.000 HD
ATOM     24  H   UNL     1       1.403   3.803  22.578  0.00  0.00    +0.000 HD
ENDBRANCH  21  22
ENDBRANCH  18  21
ENDBRANCH  16  17
ENDBRANCH  15  16
ENDBRANCH  14  15
ENDBRANCH   3  14
TORSDOF 10
ENDMDL
MODEL 2
REMARK VINA RESULT:      -6.3      1.189      1.502
REMARK  Name = 
REMARK  11 active torsions:
REMARK  status: ('A' for Active; 'I' for Inactive)
REMARK    1  A    between atoms: C_1  and  N_2
REMARK    2  A    between atoms: N_2  and  C_3
REMARK    3  A    between atoms: C_3  and  C_4
REMARK    4  A    between atoms: C_5  and  C_6
REMARK    5  A    between atoms: C_6  and  N_7
REMARK    6  A    between atoms: C_12  and  C_14
REMARK    7  A    between atoms: C_14  and  C_15
REMARK    8  A    between atoms: C_15  and  C_16
REMARK    9  A    between atoms: C_16  and  N_17
REMARK   10  A    between atoms: C_18  and  C_20
REMARK   11  A    between atoms: C_20  and  N_21
REMARK                            x       y       z     vdW  Elec       q    Type
REMARK                         _______ _______ _______ _____ _____    ______ ____
ROOT
ATOM      1  C   UNL     1       7.991   6.007  19.349  0.00  0.00    +0.000 C 
ATOM      2  N   UNL     1       7.097   5.911  18.205  0.00  0.00    +0.000 N 
ATOM      3  C   UNL     1       6.104   4.943  18.272  0.00  0.00    +0.000 C 
ATOM      4  O   UNL     1       5.980   4.217  19.260  0.00  0.00    +0.000 OA
ENDROOT
BRANCH   2   5
ATOM      5  C   UNL     1       7.353   6.800  17.072  0.00  0.00    +0.000 C 
BRANCH   5   6
ATOM      6  C   UNL     1       7.839   8.159  17.547  0.00  0.00    +0.000 C 
ATOM      7  C   UNL     1       8.257   9.325  17.955  0.00  0.00    +0.000 C 
BRANCH   7   8
ATOM      8  C   UNL     1       8.781  10.621  18.417  0.00  0.00    +0.000 C 
BRANCH   8   9
ATOM      9  N   UNL     1       9.789  10.445  19.473  0.00  0.00    +0.000 NA
ATOM     10  C   UNL     1       9.240  10.788  20.795  0.00  0.00    +0.000 C 
ATOM     11  C   UNL     1       9.474  12.278  20.943  0.00  0.00    +0.000 C 
ATOM     12  C   UNL     1      10.832  12.469  20.300  0.00  0.00    +0.000 C 
ATOM     13  C   UNL     1      10.953  11.333  19.290  0.00  0.00    +0.000 C 
ENDBRANCH   8   9
ENDBRANCH   7   8
ENDBRANCH   5   6
ENDBRANCH   2   5
BRANCH   3  14
ATOM     14  C   UNL     1       5.172   4.797  17.079  0.00  0.00    +0.000 C 
BRANCH  14  15
ATOM     15  C   UNL     1       4.281   3.553  17.195  0.00  0.00    +0.000 C 
BRANCH  15  16
ATOM     16  C   UNL     1       2.874   3.924  17.640  0.00  0.00    +0.000 C 
BRANCH  16  17
ATOM     17  N   UNL     1       2.767   4.101  19.072  0.00  0.00    +0.000 N 
ATOM     18  C   UNL     1       2.262   3.106  19.879  0.00  0.00    +0.000 C 
ATOM     19  O   UNL     1       1.841   2.034  19.445  0.00  0.00    +0.000 OA
ATOM     20  H   UNL     1       3.122   4.931  19.543  0.00  0.00    +0.000 HD
BRANCH  18  21
ATOM     21  C   UNL     1       2.215   3.456  21.369  0.00  0.00    +0.000 C 
BRANCH  21  22
ATOM     22  N   UNL     1       1.551   2.398  22.155  0.00  0.00    +0.000 NA
ATOM     23  H   UNL     1       0.824   1.980  21.571  0.00  0.00    +0.000 HD
ATOM     24  H   UNL     1       1.050   2.847  22.923  0.00  0.00    +0.000 HD
ENDBRANCH  21  22
ENDBRANCH  18  21
ENDBRANCH  16  17
ENDBRANCH  15  16
ENDBRANCH  14  15
ENDBRANCH   3  14
TORSDOF 10
ENDMDL
MODEL 3
REMARK VINA RESULT:      -6.3      1.975      2.352
REMARK  Name = 
REMARK  11 active torsions:
REMARK  status: ('A' for Active; 'I' for Inactive)
REMARK    1  A    between atoms: C_1  and  N_2
REMARK    2  A    between atoms: N_2  and  C_3
REMARK    3  A    between atoms: C_3  and  C_4
REMARK    4  A    between atoms: C_5  and  C_6
REMARK    5  A    between atoms: C_6  and  N_7
REMARK    6  A    between atoms: C_12  and  C_14
REMARK    7  A    between atoms: C_14  and  C_15
REMARK    8  A    between atoms: C_15  and  C_16
REMARK    9  A    between atoms: C_16  and  N_17
REMARK   10  A    between atoms: C_18  and  C_20
REMARK   11  A    between atoms: C_20  and  N_21
REMARK                            x       y       z     vdW  Elec       q    Type
REMARK                         _______ _______ _______ _____ _____    ______ ____
ROOT
ATOM      1  C   UNL     1       8.022   6.195  19.271  0.00  0.00    +0.000 C 
ATOM      2  N   UNL     1       7.517   6.253  17.907  0.00  0.00    +0.000 N 
ATOM      3  C   UNL     1       7.493   5.058  17.202  0.00  0.00    +0.000 C 
ATOM      4  O   UNL     1       7.865   4.001  17.715  0.00  0.00    +0.000 OA
ENDROOT
BRANCH   2   5
ATOM      5  C   UNL     1       7.130   7.564  17.387  0.00  0.00    +0.000 C 
BRANCH   5   6
ATOM      6  C   UNL     1       8.019   8.658  17.954  0.00  0.00    +0.000 C 
ATOM      7  C   UNL     1       8.782   9.596  18.441  0.00  0.00    +0.000 C 
BRANCH   7   8
ATOM      8  C   UNL     1       9.609  10.694  18.971  0.00  0.00    +0.000 C 
BRANCH   8   9
ATOM      9  N   UNL     1       8.894  11.978  18.910  0.00  0.00    +0.000 NA
ATOM     10  C   UNL     1       8.953  12.555  17.557  0.00  0.00    +0.000 C 
ATOM     11  C   UNL     1      10.233  13.366  17.532  0.00  0.00    +0.000 C 
ATOM     12  C   UNL     1      10.276  13.968  18.921  0.00  0.00    +0.000 C 
ATOM     13  C   UNL     1       9.494  12.995  19.796  0.00  0.00    +0.000 C 
ENDBRANCH   8   9
ENDBRANCH   7   8
ENDBRANCH   5   6
ENDBRANCH   2   5
BRANCH   3  14
ATOM     14  C   UNL     1       6.999   5.091  15.764  0.00  0.00    +0.000 C 
BRANCH  14  15
ATOM     15  C   UNL     1       5.767   4.201  15.559  0.00  0.00    +0.000 C 
BRANCH  15  16
ATOM     16  C   UNL     1       4.641   4.593  16.507  0.00  0.00    +0.000 C 
BRANCH  16  17
ATOM     17  N   UNL     1       4.182   3.488  17.320  0.00  0.00    +0.000 N 
ATOM     18  C   UNL     1       4.332   3.497  18.689  0.00  0.00    +0.000 C 
ATOM     19  O   UNL     1       4.890   4.408  19.300  0.00  0.00    +0.000 OA
ATOM     20  H   UNL     1       3.671   2.701  16.924  0.00  0.00    +0.000 HD
BRANCH  18  21
ATOM     21  C   UNL     1       3.795   2.250  19.397  0.00  0.00    +0.000 C 
BRANCH  21  22
ATOM     22  N   UNL     1       3.154   1.319  18.447  0.00  0.00    +0.000 NA
ATOM     23  H   UNL     1       2.916   1.844  17.603  0.00  0.00    +0.000 HD
ATOM     24  H   UNL     1       2.258   1.034  18.845  0.00  0.00    +0.000 HD
ENDBRANCH  21  22
ENDBRANCH  18  21
ENDBRANCH  16  17
ENDBRANCH  15  16
ENDBRANCH  14  15
ENDBRANCH   3  14
TORSDOF 10
ENDMDL
MODEL 4
REMARK VINA RESULT:      -6.2      1.203      1.536
REMARK  Name = 
REMARK  11 active torsions:
REMARK  status: ('A' for Active; 'I' for Inactive)
REMARK    1  A    between atoms: C_1  and  N_2
REMARK    2  A    between atoms: N_2  and  C_3
REMARK    3  A    between atoms: C_3  and  C_4
REMARK    4  A    between atoms: C_5  and  C_6
REMARK    5  A    between atoms: C_6  and  N_7
REMARK    6  A    between atoms: C_12  and  C_14
REMARK    7  A    between atoms: C_14  and  C_15
REMARK    8  A    between atoms: C_15  and  C_16
REMARK    9  A    between atoms: C_16  and  N_17
REMARK   10  A    between atoms: C_18  and  C_20
REMARK   11  A    between atoms: C_20  and  N_21
REMARK                            x       y       z     vdW  Elec       q    Type
REMARK                         _______ _______ _______ _____ _____    ______ ____
ROOT
ATOM      1  C   UNL     1       7.972   5.791  19.437  0.00  0.00    +0.000 C 
ATOM      2  N   UNL     1       6.980   6.195  18.452  0.00  0.00    +0.000 N 
ATOM      3  C   UNL     1       5.674   5.784  18.681  0.00  0.00    +0.000 C 
ATOM      4  O   UNL     1       5.372   5.126  19.678  0.00  0.00    +0.000 OA
ENDROOT
BRANCH   2   5
ATOM      5  C   UNL     1       7.451   6.948  17.290  0.00  0.00    +0.000 C 
BRANCH   5   6
ATOM      6  C   UNL     1       7.989   8.307  17.706  0.00  0.00    +0.000 C 
ATOM      7  C   UNL     1       8.449   9.474  18.063  0.00  0.00    +0.000 C 
BRANCH   7   8
ATOM      8  C   UNL     1       8.933  10.815  18.432  0.00  0.00    +0.000 C 
BRANCH   8   9
ATOM      9  N   UNL     1       9.927  10.744  19.514  0.00  0.00    +0.000 NA
ATOM     10  C   UNL     1       9.428  11.393  20.737  0.00  0.00    +0.000 C 
ATOM     11  C   UNL     1       9.817  12.851  20.594  0.00  0.00    +0.000 C 
ATOM     12  C   UNL     1      11.182  12.772  19.941  0.00  0.00    +0.000 C 
ATOM     13  C   UNL     1      11.175  11.455  19.174  0.00  0.00    +0.000 C 
ENDBRANCH   8   9
ENDBRANCH   7   8
ENDBRANCH   5   6
ENDBRANCH   2   5
BRANCH   3  14
ATOM     14  C   UNL     1       4.619   6.165  17.653  0.00  0.00    +0.000 C 
BRANCH  14  15
ATOM     15  C   UNL     1       3.244   6.386  18.296  0.00  0.00    +0.000 C 
BRANCH  15  16
ATOM     16  C   UNL     1       2.283   5.261  17.940  0.00  0.00    +0.000 C 
BRANCH  16  17
ATOM     17  N   UNL     1       1.823   4.526  19.098  0.00  0.00    +0.000 N 
ATOM     18  C   UNL     1       2.350   3.295  19.419  0.00  0.00    +0.000 C 
ATOM     19  O   UNL     1       3.202   2.727  18.736  0.00  0.00    +0.000 OA
ATOM     20  H   UNL     1       1.151   4.918  19.756  0.00  0.00    +0.000 HD
BRANCH  18  21
ATOM     21  C   UNL     1       1.751   2.652  20.673  0.00  0.00    +0.000 C 
BRANCH  21  22
ATOM     22  N   UNL     1       2.275   3.274  21.905  0.00  0.00    +0.000 NA
ATOM     23  H   UNL     1       1.490   3.420  22.543  0.00  0.00    +0.000 HD
ATOM     24  H   UNL     1       2.603   4.211  21.667  0.00  0.00    +0.000 HD
ENDBRANCH  21  22
ENDBRANCH  18  21
ENDBRANCH  16  17
ENDBRANCH  15  16
ENDBRANCH  14  15
ENDBRANCH   3  14
TORSDOF 10
ENDMDL
MODEL 5
REMARK VINA RESULT:      -6.1      1.224      1.333
REMARK  Name = 
REMARK  11 active torsions:
REMARK  status: ('A' for Active; 'I' for Inactive)
REMARK    1  A    between atoms: C_1  and  N_2
REMARK    2  A    between atoms: N_2  and  C_3
REMARK    3  A    between atoms: C_3  and  C_4
REMARK    4  A    between atoms: C_5  and  C_6
REMARK    5  A    between atoms: C_6  and  N_7
REMARK    6  A    between atoms: C_12  and  C_14
REMARK    7  A    between atoms: C_14  and  C_15
REMARK    8  A    between atoms: C_15  and  C_16
REMARK    9  A    between atoms: C_16  and  N_17
REMARK   10  A    between atoms: C_18  and  C_20
REMARK   11  A    between atoms: C_20  and  N_21
REMARK                            x       y       z     vdW  Elec       q    Type
REMARK                         _______ _______ _______ _____ _____    ______ ____
ROOT
ATOM      1  C   UNL     1       8.277   6.019  19.338  0.00  0.00    +0.000 C 
ATOM      2  N   UNL     1       7.221   6.318  18.383  0.00  0.00    +0.000 N 
ATOM      3  C   UNL     1       6.084   5.523  18.446  0.00  0.00    +0.000 C 
ATOM      4  O   UNL     1       5.974   4.623  19.281  0.00  0.00    +0.000 OA
ENDROOT
BRANCH   2   5
ATOM      5  C   UNL     1       7.467   7.388  17.417  0.00  0.00    +0.000 C 
BRANCH   5   6
ATOM      6  C   UNL     1       8.141   8.576  18.082  0.00  0.00    +0.000 C 
ATOM      7  C   UNL     1       8.720   9.595  18.652  0.00  0.00    +0.000 C 
BRANCH   7   8
ATOM      8  C   UNL     1       9.378  10.717  19.343  0.00  0.00    +0.000 C 
BRANCH   8   9
ATOM      9  N   UNL     1      10.682  11.027  18.736  0.00  0.00    +0.000 NA
ATOM     10  C   UNL     1      11.544  11.763  19.676  0.00  0.00    +0.000 C 
ATOM     11  C   UNL     1      11.197  13.223  19.465  0.00  0.00    +0.000 C 
ATOM     12  C   UNL     1      10.985  13.303  17.966  0.00  0.00    +0.000 C 
ATOM     13  C   UNL     1      10.555  11.901  17.554  0.00  0.00    +0.000 C 
ENDBRANCH   8   9
ENDBRANCH   7   8
ENDBRANCH   5   6
ENDBRANCH   2   5
BRANCH   3  14
ATOM     14  C   UNL     1       4.973   5.791  17.442  0.00  0.00    +0.000 C 
BRANCH  14  15
ATOM     15  C   UNL     1       4.732   4.590  16.519  0.00  0.00    +0.000 C 
BRANCH  15  16
ATOM     16  C   UNL     1       3.581   3.731  17.024  0.00  0.00    +0.000 C 
BRANCH  16  17
ATOM     17  N   UNL     1       3.108   4.137  18.329  0.00  0.00    +0.000 N 
ATOM     18  C   UNL     1       1.808   3.909  18.722  0.00  0.00    +0.000 C 
ATOM     19  O   UNL     1       0.964   3.390  17.991  0.00  0.00    +0.000 OA
ATOM     20  H   UNL     1       3.730   4.539  19.029  0.00  0.00    +0.000 HD
BRANCH  18  21
ATOM     21  C   UNL     1       1.471   4.404  20.131  0.00  0.00    +0.000 C 
BRANCH  21  22
ATOM     22  N   UNL     1       2.549   5.250  20.682  0.00  0.00    +0.000 NA
ATOM     23  H   UNL     1       2.909   4.794  21.523  0.00  0.00    +0.000 HD
ATOM     24  H   UNL     1       2.126   6.119  21.010  0.00  0.00    +0.000 HD
ENDBRANCH  21  22
ENDBRANCH  18  21
ENDBRANCH  16  17
ENDBRANCH  15  16
ENDBRANCH  14  15
ENDBRANCH   3  14
TORSDOF 10
ENDMDL
MODEL 6
REMARK VINA RESULT:      -6.1      1.696      2.075
REMARK  Name = 
REMARK  11 active torsions:
REMARK  status: ('A' for Active; 'I' for Inactive)
REMARK    1  A    between atoms: C_1  and  N_2
REMARK    2  A    between atoms: N_2  and  C_3
REMARK    3  A    between atoms: C_3  and  C_4
REMARK    4  A    between atoms: C_5  and  C_6
REMARK    5  A    between atoms: C_6  and  N_7
REMARK    6  A    between atoms: C_12  and  C_14
REMARK    7  A    between atoms: C_14  and  C_15
REMARK    8  A    between atoms: C_15  and  C_16
REMARK    9  A    between atoms: C_16  and  N_17
REMARK   10  A    between atoms: C_18  and  C_20
REMARK   11  A    between atoms: C_20  and  N_21
REMARK                            x       y       z     vdW  Elec       q    Type
REMARK                         _______ _______ _______ _____ _____    ______ ____
ROOT
ATOM      1  C   UNL     1       8.043   6.221  19.173  0.00  0.00    +0.000 C 
ATOM      2  N   UNL     1       7.502   6.250  17.822  0.00  0.00    +0.000 N 
ATOM      3  C   UNL     1       7.475   5.042  17.138  0.00  0.00    +0.000 C 
ATOM      4  O   UNL     1       7.873   3.999  17.659  0.00  0.00    +0.000 OA
ENDROOT
BRANCH   2   5
ATOM      5  C   UNL     1       7.086   7.547  17.290  0.00  0.00    +0.000 C 
BRANCH   5   6
ATOM      6  C   UNL     1       7.932   8.669  17.868  0.00  0.00    +0.000 C 
ATOM      7  C   UNL     1       8.659   9.631  18.363  0.00  0.00    +0.000 C 
BRANCH   7   8
ATOM      8  C   UNL     1       9.523  10.697  18.896  0.00  0.00    +0.000 C 
BRANCH   8   9
ATOM      9  N   UNL     1      10.063  11.537  17.816  0.00  0.00    +0.000 NA
ATOM     10  C   UNL     1      11.432  11.985  18.124  0.00  0.00    +0.000 C 
ATOM     11  C   UNL     1      11.257  13.266  18.915  0.00  0.00    +0.000 C 
ATOM     12  C   UNL     1      10.077  13.924  18.228  0.00  0.00    +0.000 C 
ATOM     13  C   UNL     1       9.281  12.774  17.625  0.00  0.00    +0.000 C 
ENDBRANCH   8   9
ENDBRANCH   7   8
ENDBRANCH   5   6
ENDBRANCH   2   5
BRANCH   3  14
ATOM     14  C   UNL     1       6.943   5.044  15.713  0.00  0.00    +0.000 C 
BRANCH  14  15
ATOM     15  C   UNL     1       5.409   5.048  15.672  0.00  0.00    +0.000 C 
BRANCH  15  16
ATOM     16  C   UNL     1       4.832   3.991  16.603  0.00  0.00    +0.000 C 
BRANCH  16  17
ATOM     17  N   UNL     1       3.991   4.553  17.637  0.00  0.00    +0.000 N 
ATOM     18  C   UNL     1       4.252   4.332  18.971  0.00  0.00    +0.000 C 
ATOM     19  O   UNL     1       5.178   3.624  19.368  0.00  0.00    +0.000 OA
ATOM     20  H   UNL     1       3.221   5.186  17.424  0.00  0.00    +0.000 HD
BRANCH  18  21
ATOM     21  C   UNL     1       3.263   4.994  19.933  0.00  0.00    +0.000 C 
BRANCH  21  22
ATOM     22  N   UNL     1       2.163   4.079  20.297  0.00  0.00    +0.000 NA
ATOM     23  H   UNL     1       2.468   3.522  21.098  0.00  0.00    +0.000 HD
ATOM     24  H   UNL     1       2.048   3.410  19.535  0.00  0.00    +0.000 HD
ENDBRANCH  21  22
ENDBRANCH  18  21
ENDBRANCH  16  17
ENDBRANCH  15  16
ENDBRANCH  14  15
ENDBRANCH   3  14
TORSDOF 10
ENDMDL
MODEL 7
REMARK VINA RESULT:      -6.1      1.782      2.309
REMARK  Name = 
REMARK  11 active torsions:
REMARK  status: ('A' for Active; 'I' for Inactive)
REMARK    1  A    between atoms: C_1  and  N_2
REMARK    2  A    between atoms: N_2  and  C_3
REMARK    3  A    between atoms: C_3  and  C_4
REMARK    4  A    between atoms: C_5  and  C_6
REMARK    5  A    between atoms: C_6  and  N_7
REMARK    6  A    between atoms: C_12  and  C_14
REMARK    7  A    between atoms: C_14  and  C_15
REMARK    8  A    between atoms: C_15  and  C_16
REMARK    9  A    between atoms: C_16  and  N_17
REMARK   10  A    between atoms: C_18  and  C_20
REMARK   11  A    between atoms: C_20  and  N_21
REMARK                            x       y       z     vdW  Elec       q    Type
REMARK                         _______ _______ _______ _____ _____    ______ ____
ROOT
ATOM      1  C   UNL     1       8.090   6.178  19.214  0.00  0.00    +0.000 C 
ATOM      2  N   UNL     1       7.480   6.120  17.894  0.00  0.00    +0.000 N 
ATOM      3  C   UNL     1       7.623   4.928  17.197  0.00  0.00    +0.000 C 
ATOM      4  O   UNL     1       8.221   3.966  17.682  0.00  0.00    +0.000 OA
ENDROOT
BRANCH   2   5
ATOM      5  C   UNL     1       6.820   7.329  17.401  0.00  0.00    +0.000 C 
BRANCH   5   6
ATOM      6  C   UNL     1       7.658   8.562  17.694  0.00  0.00    +0.000 C 
ATOM      7  C   UNL     1       8.376   9.621  17.946  0.00  0.00    +0.000 C 
BRANCH   7   8
ATOM      8  C   UNL     1       9.141  10.845  18.237  0.00  0.00    +0.000 C 
BRANCH   8   9
ATOM      9  N   UNL     1      10.025  10.659  19.398  0.00  0.00    +0.000 NA
ATOM     10  C   UNL     1       9.341  11.022  20.650  0.00  0.00    +0.000 C 
ATOM     11  C   UNL     1       9.585  12.509  20.813  0.00  0.00    +0.000 C 
ATOM     12  C   UNL     1      11.009  12.671  20.321  0.00  0.00    +0.000 C 
ATOM     13  C   UNL     1      11.218  11.526  19.337  0.00  0.00    +0.000 C 
ENDBRANCH   8   9
ENDBRANCH   7   8
ENDBRANCH   5   6
ENDBRANCH   2   5
BRANCH   3  14
ATOM     14  C   UNL     1       7.023   4.845  15.801  0.00  0.00    +0.000 C 
BRANCH  14  15
ATOM     15  C   UNL     1       5.883   3.822  15.726  0.00  0.00    +0.000 C 
BRANCH  15  16
ATOM     16  C   UNL     1       4.553   4.450  16.121  0.00  0.00    +0.000 C 
BRANCH  16  17
ATOM     17  N   UNL     1       4.335   4.451  17.551  0.00  0.00    +0.000 N 
ATOM     18  C   UNL     1       3.110   4.125  18.087  0.00  0.00    +0.000 C 
ATOM     19  O   UNL     1       2.124   3.853  17.402  0.00  0.00    +0.000 OA
ATOM     20  H   UNL     1       5.090   4.622  18.213  0.00  0.00    +0.000 HD
BRANCH  18  21
ATOM     21  C   UNL     1       3.048   4.179  19.616  0.00  0.00    +0.000 C 
BRANCH  21  22
ATOM     22  N   UNL     1       3.267   5.549  20.121  0.00  0.00    +0.000 NA
ATOM     23  H   UNL     1       2.442   5.822  20.660  0.00  0.00    +0.000 HD
ATOM     24  H   UNL     1       3.282   6.179  19.318  0.00  0.00    +0.000 HD
ENDBRANCH  21  22
ENDBRANCH  18  21
ENDBRANCH  16  17
ENDBRANCH  15  16
ENDBRANCH  14  15
ENDBRANCH   3  14
TORSDOF 10
ENDMDL
MODEL 8
REMARK VINA RESULT:      -6.1      1.327      1.567
REMARK  Name = 
REMARK  11 active torsions:
REMARK  status: ('A' for Active; 'I' for Inactive)
REMARK    1  A    between atoms: C_1  and  N_2
REMARK    2  A    between atoms: N_2  and  C_3
REMARK    3  A    between atoms: C_3  and  C_4
REMARK    4  A    between atoms: C_5  and  C_6
REMARK    5  A    between atoms: C_6  and  N_7
REMARK    6  A    between atoms: C_12  and  C_14
REMARK    7  A    between atoms: C_14  and  C_15
REMARK    8  A    between atoms: C_15  and  C_16
REMARK    9  A    between atoms: C_16  and  N_17
REMARK   10  A    between atoms: C_18  and  C_20
REMARK   11  A    between atoms: C_20  and  N_21
REMARK                            x       y       z     vdW  Elec       q    Type
REMARK                         _______ _______ _______ _____ _____    ______ ____
ROOT
ATOM      1  C   UNL     1       8.276   6.133  19.344  0.00  0.00    +0.000 C 
ATOM      2  N   UNL     1       7.343   6.362  18.252  0.00  0.00    +0.000 N 
ATOM      3  C   UNL     1       6.332   5.424  18.092  0.00  0.00    +0.000 C 
ATOM      4  O   UNL     1       6.226   4.458  18.849  0.00  0.00    +0.000 OA
ENDROOT
BRANCH   2   5
ATOM      5  C   UNL     1       7.579   7.524  17.395  0.00  0.00    +0.000 C 
BRANCH   5   6
ATOM      6  C   UNL     1       8.269   8.637  18.166  0.00  0.00    +0.000 C 
ATOM      7  C   UNL     1       8.861   9.591  18.828  0.00  0.00    +0.000 C 
BRANCH   7   8
ATOM      8  C   UNL     1       9.518  10.643  19.622  0.00  0.00    +0.000 C 
BRANCH   8   9
ATOM      9  N   UNL     1      10.120  11.668  18.756  0.00  0.00    +0.000 NA
ATOM     10  C   UNL     1      11.566  11.445  18.592  0.00  0.00    +0.000 C 
ATOM     11  C   UNL     1      12.209  12.173  19.755  0.00  0.00    +0.000 C 
ATOM     12  C   UNL     1      11.358  13.420  19.881  0.00  0.00    +0.000 C 
ATOM     13  C   UNL     1       9.995  13.024  19.325  0.00  0.00    +0.000 C 
ENDBRANCH   8   9
ENDBRANCH   7   8
ENDBRANCH   5   6
ENDBRANCH   2   5
BRANCH   3  14
ATOM     14  C   UNL     1       5.357   5.619  16.941  0.00  0.00    +0.000 C 
BRANCH  14  15
ATOM     15  C   UNL     1       3.934   5.187  17.314  0.00  0.00    +0.000 C 
BRANCH  15  16
ATOM     16  C   UNL     1       3.705   3.716  16.998  0.00  0.00    +0.000 C 
BRANCH  16  17
ATOM     17  N   UNL     1       2.882   3.051  17.984  0.00  0.00    +0.000 N 
ATOM     18  C   UNL     1       1.525   3.277  18.053  0.00  0.00    +0.000 C 
ATOM     19  O   UNL     1       0.936   4.072  17.320  0.00  0.00    +0.000 OA
ATOM     20  H   UNL     1       3.256   2.344  18.614  0.00  0.00    +0.000 HD
BRANCH  18  21
ATOM     21  C   UNL     1       0.803   2.497  19.156  0.00  0.00    +0.000 C 
BRANCH  21  22
ATOM     22  N   UNL     1       0.578   3.332  20.353  0.00  0.00    +0.000 NA
ATOM     23  H   UNL     1       1.040   4.231  20.201  0.00  0.00    +0.000 HD
ATOM     24  H   UNL     1       1.080   2.902  21.131  0.00  0.00    +0.000 HD
ENDBRANCH  21  22
ENDBRANCH  18  21
ENDBRANCH  16  17
ENDBRANCH  15  16
ENDBRANCH  14  15
ENDBRANCH   3  14
TORSDOF 10
ENDMDL
MODEL 9
REMARK VINA RESULT:      -6.1      1.243      1.370
REMARK  Name = 
REMARK  11 active torsions:
REMARK  status: ('A' for Active; 'I' for Inactive)
REMARK    1  A    between atoms: C_1  and  N_2
REMARK    2  A    between atoms: N_2  and  C_3
REMARK    3  A    between atoms: C_3  and  C_4
REMARK    4  A    between atoms: C_5  and  C_6
REMARK    5  A    between atoms: C_6  and  N_7
REMARK    6  A    between atoms: C_12  and  C_14
REMARK    7  A    between atoms: C_14  and  C_15
REMARK    8  A    between atoms: C_15  and  C_16
REMARK    9  A    between atoms: C_16  and  N_17
REMARK   10  A    between atoms: C_18  and  C_20
REMARK   11  A    between atoms: C_20  and  N_21
REMARK                            x       y       z     vdW  Elec       q    Type
REMARK                         _______ _______ _______ _____ _____    ______ ____
ROOT
ATOM      1  C   UNL     1       7.973   5.678  19.525  0.00  0.00    +0.000 C 
ATOM      2  N   UNL     1       7.011   6.089  18.514  0.00  0.00    +0.000 N 
ATOM      3  C   UNL     1       5.691   5.713  18.725  0.00  0.00    +0.000 C 
ATOM      4  O   UNL     1       5.354   5.080  19.727  0.00  0.00    +0.000 OA
ENDROOT
BRANCH   2   5
ATOM      5  C   UNL     1       7.522   6.810  17.349  0.00  0.00    +0.000 C 
BRANCH   5   6
ATOM      6  C   UNL     1       7.951   8.218  17.728  0.00  0.00    +0.000 C 
ATOM      7  C   UNL     1       8.319   9.426  18.052  0.00  0.00    +0.000 C 
BRANCH   7   8
ATOM      8  C   UNL     1       8.778  10.786  18.384  0.00  0.00    +0.000 C 
BRANCH   8   9
ATOM      9  N   UNL     1      10.221  10.808  18.667  0.00  0.00    +0.000 NA
ATOM     10  C   UNL     1      10.486  11.244  20.048  0.00  0.00    +0.000 C 
ATOM     11  C   UNL     1      10.565  12.756  19.974  0.00  0.00    +0.000 C 
ATOM     12  C   UNL     1      11.275  12.990  18.656  0.00  0.00    +0.000 C 
ATOM     13  C   UNL     1      10.944  11.767  17.808  0.00  0.00    +0.000 C 
ENDBRANCH   8   9
ENDBRANCH   7   8
ENDBRANCH   5   6
ENDBRANCH   2   5
BRANCH   3  14
ATOM     14  C   UNL     1       4.665   6.102  17.671  0.00  0.00    +0.000 C 
BRANCH  14  15
ATOM     15  C   UNL     1       3.676   4.965  17.385  0.00  0.00    +0.000 C 
BRANCH  15  16
ATOM     16  C   UNL     1       2.360   5.182  18.118  0.00  0.00    +0.000 C 
BRANCH  16  17
ATOM     17  N   UNL     1       2.016   4.082  18.991  0.00  0.00    +0.000 N 
ATOM     18  C   UNL     1       1.687   4.292  20.312  0.00  0.00    +0.000 C 
ATOM     19  O   UNL     1       1.700   5.404  20.841  0.00  0.00    +0.000 OA
ATOM     20  H   UNL     1       1.934   3.125  18.650  0.00  0.00    +0.000 HD
BRANCH  18  21
ATOM     21  C   UNL     1       1.352   3.021  21.096  0.00  0.00    +0.000 C 
BRANCH  21  22
ATOM     22  N   UNL     1       2.354   2.751  22.147  0.00  0.00    +0.000 NA
ATOM     23  H   UNL     1       3.282   2.845  21.728  0.00  0.00    +0.000 HD
ATOM     24  H   UNL     1       2.277   1.766  22.406  0.00  0.00    +0.000 HD
ENDBRANCH  21  22
ENDBRANCH  18  21
ENDBRANCH  16  17
ENDBRANCH  15  16
ENDBRANCH  14  15
ENDBRANCH   3  14
TORSDOF 10
ENDMDL
