MODEL 1
REMARK VINA RESULT:      -4.4      0.000      0.000
REMARK  Name = 
REMARK  8 active torsions:
REMARK  status: ('A' for Active; 'I' for Inactive)
REMARK    1  A    between atoms: C_1  and  C_2
REMARK    2  A    between atoms: C_2  and  C_3
REMARK    3  A    between atoms: C_2  and  N_4
REMARK    4  A    between atoms: N_4  and  CA_5
REMARK    5  A    between atoms: CA_5  and  CB_6
REMARK    6  A    between atoms: CA_5  and  C_8
REMARK    7  A    between atoms: CB_6  and  SG_7
REMARK    8  A    between atoms: C_8  and  OXT_10
REMARK                            x       y       z     vdW  Elec       q    Type
REMARK                         _______ _______ _______ _____ _____    ______ ____
ROOT
ATOM      1  CA  CYS A   1       6.374   5.327  15.791  0.00  0.00    +0.000 C 
ENDROOT
BRANCH   1   2
ATOM      2  N   CYS A   1       7.555   5.975  16.452  0.00  0.00    +0.000 NA
ATOM      3  H   CYS A   1       8.193   5.238  16.764  0.00  0.00    +0.000 HD
BRANCH   2   5
ATOM      4  C   UNK A   0       7.779   6.069  18.868  0.00  0.00    +0.000 C 
ATOM      5  C   UNK A   0       7.219   6.791  17.637  0.00  0.00    +0.000 C 
ATOM      6  C   UNK A   0       7.778   8.213  17.587  0.00  0.00    +0.000 C 
ENDBRANCH   2   5
ENDBRANCH   1   2
BRANCH   1   7
ATOM      7  C   CYS A   1       6.816   4.821  14.404  0.00  0.00    +0.000 C 
ATOM      8  O   CYS A   1       6.286   3.923  13.771  0.00  0.00    +0.000 OA
BRANCH   7   9
ATOM      9  OXT CYS A   1       7.862   5.546  13.923  0.00  0.00    +0.000 OA
ATOM     10  HXT CYS A   1       7.787   5.538  12.940  0.00  0.00    +0.000 HD
ENDBRANCH   7   9
ENDBRANCH   1   7
BRANCH   1  11
ATOM     11  CB  CYS A   1       5.661   4.220  16.585  0.00  0.00    +0.000 C 
BRANCH  11  12
ATOM     12  SG  CYS A   1       4.064   4.664  17.356  0.00  0.00    +0.000 S 
ATOM     13  HG  CYS A   1       4.132   3.884  18.439  0.00  0.00    +0.000 HD
ENDBRANCH  11  12
ENDBRANCH   1  11
TORSDOF 6
ENDMDL
MODEL 2
REMARK VINA RESULT:      -4.4      2.843      3.765
REMARK  Name = 
REMARK  8 active torsions:
REMARK  status: ('A' for Active; 'I' for Inactive)
REMARK    1  A    between atoms: C_1  and  C_2
REMARK    2  A    between atoms: C_2  and  C_3
REMARK    3  A    between atoms: C_2  and  N_4
REMARK    4  A    between atoms: N_4  and  CA_5
REMARK    5  A    between atoms: CA_5  and  CB_6
REMARK    6  A    between atoms: CA_5  and  C_8
REMARK    7  A    between atoms: CB_6  and  SG_7
REMARK    8  A    between atoms: C_8  and  OXT_10
REMARK                            x       y       z     vdW  Elec       q    Type
REMARK                         _______ _______ _______ _____ _____    ______ ____
ROOT
ATOM      1  CA  CYS A   1       5.768   4.677  17.212  0.00  0.00    +0.000 C 
ENDROOT
BRANCH   1   2
ATOM      2  N   CYS A   1       5.786   3.676  18.329  0.00  0.00    +0.000 NA
ATOM      3  H   CYS A   1       5.688   2.740  17.925  0.00  0.00    +0.000 HD
BRANCH   2   5
ATOM      4  C   UNK A   0       4.336   5.329  19.358  0.00  0.00    +0.000 C 
ATOM      5  C   UNK A   0       4.696   3.840  19.314  0.00  0.00    +0.000 C 
ATOM      6  C   UNK A   0       3.444   3.026  18.991  0.00  0.00    +0.000 C 
ENDBRANCH   2   5
ENDBRANCH   1   2
BRANCH   1   7
ATOM      7  C   CYS A   1       7.216   5.138  16.955  0.00  0.00    +0.000 C 
ATOM      8  O   CYS A   1       7.551   6.237  16.545  0.00  0.00    +0.000 OA
BRANCH   7   9
ATOM      9  OXT CYS A   1       8.111   4.173  17.301  0.00  0.00    +0.000 OA
ATOM     10  HXT CYS A   1       7.632   3.312  17.259  0.00  0.00    +0.000 HD
ENDBRANCH   7   9
ENDBRANCH   1   7
BRANCH   1  11
ATOM     11  CB  CYS A   1       5.084   4.239  15.905  0.00  0.00    +0.000 C 
BRANCH  11  12
ATOM     12  SG  CYS A   1       6.164   4.030  14.446  0.00  0.00    +0.000 S 
ATOM     13  HG  CYS A   1       6.533   2.761  14.640  0.00  0.00    +0.000 HD
ENDBRANCH  11  12
ENDBRANCH   1  11
TORSDOF 6
ENDMDL
MODEL 3
REMARK VINA RESULT:      -4.3      4.149      5.019
REMARK  Name = 
REMARK  8 active torsions:
REMARK  status: ('A' for Active; 'I' for Inactive)
REMARK    1  A    between atoms: C_1  and  C_2
REMARK    2  A    between atoms: C_2  and  C_3
REMARK    3  A    between atoms: C_2  and  N_4
REMARK    4  A    between atoms: N_4  and  CA_5
REMARK    5  A    between atoms: CA_5  and  CB_6
REMARK    6  A    between atoms: CA_5  and  C_8
REMARK    7  A    between atoms: CB_6  and  SG_7
REMARK    8  A    between atoms: C_8  and  OXT_10
REMARK                            x       y       z     vdW  Elec       q    Type
REMARK                         _______ _______ _______ _____ _____    ______ ____
ROOT
ATOM      1  CA  CYS A   1       4.303   3.634  19.054  0.00  0.00    +0.000 C 
ENDROOT
BRANCH   1   2
ATOM      2  N   CYS A   1       5.733   3.580  18.603  0.00  0.00    +0.000 NA
ATOM      3  H   CYS A   1       6.332   3.776  19.410  0.00  0.00    +0.000 HD
BRANCH   2   5
ATOM      4  C   UNK A   0       7.607   4.698  17.539  0.00  0.00    +0.000 C 
ATOM      5  C   UNK A   0       6.081   4.560  17.554  0.00  0.00    +0.000 C 
ATOM      6  C   UNK A   0       5.595   4.169  16.159  0.00  0.00    +0.000 C 
ENDBRANCH   2   5
ENDBRANCH   1   2
BRANCH   1   7
ATOM      7  C   CYS A   1       4.102   2.570  20.150  0.00  0.00    +0.000 C 
ATOM      8  O   CYS A   1       3.181   2.536  20.950  0.00  0.00    +0.000 OA
BRANCH   7   9
ATOM      9  OXT CYS A   1       5.065   1.611  20.090  0.00  0.00    +0.000 OA
ATOM     10  HXT CYS A   1       4.632   0.793  19.747  0.00  0.00    +0.000 HD
ENDBRANCH   7   9
ENDBRANCH   1   7
BRANCH   1  11
ATOM     11  CB  CYS A   1       3.775   5.006  19.507  0.00  0.00    +0.000 C 
BRANCH  11  12
ATOM     12  SG  CYS A   1       2.576   5.829  18.400  0.00  0.00    +0.000 S 
ATOM     13  HG  CYS A   1       1.587   6.027  19.276  0.00  0.00    +0.000 HD
ENDBRANCH  11  12
ENDBRANCH   1  11
TORSDOF 6
ENDMDL
MODEL 4
REMARK VINA RESULT:      -4.3      0.753      1.373
REMARK  Name = 
REMARK  8 active torsions:
REMARK  status: ('A' for Active; 'I' for Inactive)
REMARK    1  A    between atoms: C_1  and  C_2
REMARK    2  A    between atoms: C_2  and  C_3
REMARK    3  A    between atoms: C_2  and  N_4
REMARK    4  A    between atoms: N_4  and  CA_5
REMARK    5  A    between atoms: CA_5  and  CB_6
REMARK    6  A    between atoms: CA_5  and  C_8
REMARK    7  A    between atoms: CB_6  and  SG_7
REMARK    8  A    between atoms: C_8  and  OXT_10
REMARK                            x       y       z     vdW  Elec       q    Type
REMARK                         _______ _______ _______ _____ _____    ______ ____
ROOT
ATOM      1  CA  CYS A   1       6.357   4.867  16.113  0.00  0.00    +0.000 C 
ENDROOT
BRANCH   1   2
ATOM      2  N   CYS A   1       7.548   4.754  17.018  0.00  0.00    +0.000 NA
ATOM      3  H   CYS A   1       7.478   3.871  17.533  0.00  0.00    +0.000 HD
BRANCH   2   5
ATOM      4  C   UNK A   0       7.021   7.090  17.415  0.00  0.00    +0.000 C 
ATOM      5  C   UNK A   0       7.659   5.835  18.019  0.00  0.00    +0.000 C 
ATOM      6  C   UNK A   0       6.984   5.514  19.352  0.00  0.00    +0.000 C 
ENDBRANCH   2   5
ENDBRANCH   1   2
BRANCH   1   7
ATOM      7  C   CYS A   1       6.827   4.626  14.664  0.00  0.00    +0.000 C 
ATOM      8  O   CYS A   1       6.348   3.818  13.886  0.00  0.00    +0.000 OA
BRANCH   7   9
ATOM      9  OXT CYS A   1       7.828   5.480  14.322  0.00  0.00    +0.000 OA
ATOM     10  HXT CYS A   1       8.552   5.349  14.979  0.00  0.00    +0.000 HD
ENDBRANCH   7   9
ENDBRANCH   1   7
BRANCH   1  11
ATOM     11  CB  CYS A   1       5.143   3.987  16.457  0.00  0.00    +0.000 C 
BRANCH  11  12
ATOM     12  SG  CYS A   1       3.852   4.746  17.505  0.00  0.00    +0.000 S 
ATOM     13  HG  CYS A   1       4.249   4.282  18.693  0.00  0.00    +0.000 HD
ENDBRANCH  11  12
ENDBRANCH   1  11
TORSDOF 6
ENDMDL
MODEL 5
REMARK VINA RESULT:      -4.3      3.999      4.748
REMARK  Name = 
REMARK  8 active torsions:
REMARK  status: ('A' for Active; 'I' for Inactive)
REMARK    1  A    between atoms: C_1  and  C_2
REMARK    2  A    between atoms: C_2  and  C_3
REMARK    3  A    between atoms: C_2  and  N_4
REMARK    4  A    between atoms: N_4  and  CA_5
REMARK    5  A    between atoms: CA_5  and  CB_6
REMARK    6  A    between atoms: CA_5  and  C_8
REMARK    7  A    between atoms: CB_6  and  SG_7
REMARK    8  A    between atoms: C_8  and  OXT_10
REMARK                            x       y       z     vdW  Elec       q    Type
REMARK                         _______ _______ _______ _____ _____    ______ ____
ROOT
ATOM      1  CA  CYS A   1       4.584   3.827  18.978  0.00  0.00    +0.000 C 
ENDROOT
BRANCH   1   2
ATOM      2  N   CYS A   1       6.075   3.856  18.813  0.00  0.00    +0.000 NA
ATOM      3  H   CYS A   1       6.501   3.901  19.743  0.00  0.00    +0.000 HD
BRANCH   2   5
ATOM      4  C   UNK A   0       7.630   5.717  18.912  0.00  0.00    +0.000 C 
ATOM      5  C   UNK A   0       6.582   5.011  18.045  0.00  0.00    +0.000 C 
ATOM      6  C   UNK A   0       7.207   4.634  16.703  0.00  0.00    +0.000 C 
ENDBRANCH   2   5
ENDBRANCH   1   2
BRANCH   1   7
ATOM      7  C   CYS A   1       4.222   2.639  19.891  0.00  0.00    +0.000 C 
ATOM      8  O   CYS A   1       5.018   1.892  20.437  0.00  0.00    +0.000 OA
BRANCH   7   9
ATOM      9  OXT CYS A   1       2.877   2.546  20.071  0.00  0.00    +0.000 OA
ATOM     10  HXT CYS A   1       2.495   2.243  19.214  0.00  0.00    +0.000 HD
ENDBRANCH   7   9
ENDBRANCH   1   7
BRANCH   1  11
ATOM     11  CB  CYS A   1       3.919   5.126  19.466  0.00  0.00    +0.000 C 
BRANCH  11  12
ATOM     12  SG  CYS A   1       2.759   5.936  18.310  0.00  0.00    +0.000 S 
ATOM     13  HG  CYS A   1       1.610   5.630  18.920  0.00  0.00    +0.000 HD
ENDBRANCH  11  12
ENDBRANCH   1  11
TORSDOF 6
ENDMDL
MODEL 6
REMARK VINA RESULT:      -4.3      3.127      4.356
REMARK  Name = 
REMARK  8 active torsions:
REMARK  status: ('A' for Active; 'I' for Inactive)
REMARK    1  A    between atoms: C_1  and  C_2
REMARK    2  A    between atoms: C_2  and  C_3
REMARK    3  A    between atoms: C_2  and  N_4
REMARK    4  A    between atoms: N_4  and  CA_5
REMARK    5  A    between atoms: CA_5  and  CB_6
REMARK    6  A    between atoms: CA_5  and  C_8
REMARK    7  A    between atoms: CB_6  and  SG_7
REMARK    8  A    between atoms: C_8  and  OXT_10
REMARK                            x       y       z     vdW  Elec       q    Type
REMARK                         _______ _______ _______ _____ _____    ______ ____
ROOT
ATOM      1  CA  CYS A   1       5.761   4.700  16.901  0.00  0.00    +0.000 C 
ENDROOT
BRANCH   1   2
ATOM      2  N   CYS A   1       5.026   3.395  16.990  0.00  0.00    +0.000 NA
ATOM      3  H   CYS A   1       4.615   3.194  16.074  0.00  0.00    +0.000 HD
BRANCH   2   5
ATOM      4  C   UNK A   0       3.290   4.777  17.976  0.00  0.00    +0.000 C 
ATOM      5  C   UNK A   0       3.923   3.381  17.974  0.00  0.00    +0.000 C 
ATOM      6  C   UNK A   0       2.847   2.337  17.680  0.00  0.00    +0.000 C 
ENDBRANCH   2   5
ENDBRANCH   1   2
BRANCH   1   7
ATOM      7  C   CYS A   1       7.093   4.556  17.664  0.00  0.00    +0.000 C 
ATOM      8  O   CYS A   1       8.162   4.230  17.175  0.00  0.00    +0.000 OA
BRANCH   7   9
ATOM      9  OXT CYS A   1       6.951   4.898  18.973  0.00  0.00    +0.000 OA
ATOM     10  HXT CYS A   1       7.663   4.428  19.469  0.00  0.00    +0.000 HD
ENDBRANCH   7   9
ENDBRANCH   1   7
BRANCH   1  11
ATOM     11  CB  CYS A   1       5.988   5.269  15.489  0.00  0.00    +0.000 C 
BRANCH  11  12
ATOM     12  SG  CYS A   1       6.186   4.053  14.139  0.00  0.00    +0.000 S 
ATOM     13  HG  CYS A   1       5.652   2.986  14.740  0.00  0.00    +0.000 HD
ENDBRANCH  11  12
ENDBRANCH   1  11
TORSDOF 6
ENDMDL
MODEL 7
REMARK VINA RESULT:      -4.2      3.072      3.930
REMARK  Name = 
REMARK  8 active torsions:
REMARK  status: ('A' for Active; 'I' for Inactive)
REMARK    1  A    between atoms: C_1  and  C_2
REMARK    2  A    between atoms: C_2  and  C_3
REMARK    3  A    between atoms: C_2  and  N_4
REMARK    4  A    between atoms: N_4  and  CA_5
REMARK    5  A    between atoms: CA_5  and  CB_6
REMARK    6  A    between atoms: CA_5  and  C_8
REMARK    7  A    between atoms: CB_6  and  SG_7
REMARK    8  A    between atoms: C_8  and  OXT_10
REMARK                            x       y       z     vdW  Elec       q    Type
REMARK                         _______ _______ _______ _____ _____    ______ ____
ROOT
ATOM      1  CA  CYS A   1       5.784   4.718  17.481  0.00  0.00    +0.000 C 
ENDROOT
BRANCH   1   2
ATOM      2  N   CYS A   1       5.706   3.652  18.534  0.00  0.00    +0.000 NA
ATOM      3  H   CYS A   1       6.080   2.783  18.142  0.00  0.00    +0.000 HD
BRANCH   2   5
ATOM      4  C   UNK A   0       4.441   2.256  20.065  0.00  0.00    +0.000 C 
ATOM      5  C   UNK A   0       4.337   3.363  19.010  0.00  0.00    +0.000 C 
ATOM      6  C   UNK A   0       3.624   4.572  19.613  0.00  0.00    +0.000 C 
ENDBRANCH   2   5
ENDBRANCH   1   2
BRANCH   1   7
ATOM      7  C   CYS A   1       7.266   5.096  17.287  0.00  0.00    +0.000 C 
ATOM      8  O   CYS A   1       7.681   6.183  16.920  0.00  0.00    +0.000 OA
BRANCH   7   9
ATOM      9  OXT CYS A   1       8.087   4.069  17.634  0.00  0.00    +0.000 OA
ATOM     10  HXT CYS A   1       8.433   4.274  18.536  0.00  0.00    +0.000 HD
ENDBRANCH   7   9
ENDBRANCH   1   7
BRANCH   1  11
ATOM     11  CB  CYS A   1       5.109   4.406  16.134  0.00  0.00    +0.000 C 
BRANCH  11  12
ATOM     12  SG  CYS A   1       6.216   4.032  14.730  0.00  0.00    +0.000 S 
ATOM     13  HG  CYS A   1       5.844   5.014  13.904  0.00  0.00    +0.000 HD
ENDBRANCH  11  12
ENDBRANCH   1  11
TORSDOF 6
ENDMDL
MODEL 8
REMARK VINA RESULT:      -4.2      4.250      5.200
REMARK  Name = 
REMARK  8 active torsions:
REMARK  status: ('A' for Active; 'I' for Inactive)
REMARK    1  A    between atoms: C_1  and  C_2
REMARK    2  A    between atoms: C_2  and  C_3
REMARK    3  A    between atoms: C_2  and  N_4
REMARK    4  A    between atoms: N_4  and  CA_5
REMARK    5  A    between atoms: CA_5  and  CB_6
REMARK    6  A    between atoms: CA_5  and  C_8
REMARK    7  A    between atoms: CB_6  and  SG_7
REMARK    8  A    between atoms: C_8  and  OXT_10
REMARK                            x       y       z     vdW  Elec       q    Type
REMARK                         _______ _______ _______ _____ _____    ______ ____
ROOT
ATOM      1  CA  CYS A   1       3.462   3.458  18.779  0.00  0.00    +0.000 C 
ENDROOT
BRANCH   1   2
ATOM      2  N   CYS A   1       4.674   3.315  17.906  0.00  0.00    +0.000 NA
ATOM      3  H   CYS A   1       5.494   3.612  18.443  0.00  0.00    +0.000 HD
BRANCH   2   5
ATOM      4  C   UNK A   0       4.652   5.605  17.100  0.00  0.00    +0.000 C 
ATOM      5  C   UNK A   0       4.640   4.132  16.676  0.00  0.00    +0.000 C 
ATOM      6  C   UNK A   0       5.809   3.869  15.728  0.00  0.00    +0.000 C 
ENDBRANCH   2   5
ENDBRANCH   1   2
BRANCH   1   7
ATOM      7  C   CYS A   1       2.235   2.970  17.984  0.00  0.00    +0.000 C 
ATOM      8  O   CYS A   1       1.332   3.675  17.563  0.00  0.00    +0.000 OA
BRANCH   7   9
ATOM      9  OXT CYS A   1       2.300   1.632  17.746  0.00  0.00    +0.000 OA
ATOM     10  HXT CYS A   1       3.250   1.415  17.595  0.00  0.00    +0.000 HD
ENDBRANCH   7   9
ENDBRANCH   1   7
BRANCH   1  11
ATOM     11  CB  CYS A   1       3.527   2.791  20.164  0.00  0.00    +0.000 C 
BRANCH  11  12
ATOM     12  SG  CYS A   1       2.152   3.152  21.312  0.00  0.00    +0.000 S 
ATOM     13  HG  CYS A   1       2.484   2.318  22.302  0.00  0.00    +0.000 HD
ENDBRANCH  11  12
ENDBRANCH   1  11
TORSDOF 6
ENDMDL
MODEL 9
REMARK VINA RESULT:      -4.2      4.052      4.922
REMARK  Name = 
REMARK  8 active torsions:
REMARK  status: ('A' for Active; 'I' for Inactive)
REMARK    1  A    between atoms: C_1  and  C_2
REMARK    2  A    between atoms: C_2  and  C_3
REMARK    3  A    between atoms: C_2  and  N_4
REMARK    4  A    between atoms: N_4  and  CA_5
REMARK    5  A    between atoms: CA_5  and  CB_6
REMARK    6  A    between atoms: CA_5  and  C_8
REMARK    7  A    between atoms: CB_6  and  SG_7
REMARK    8  A    between atoms: C_8  and  OXT_10
REMARK                            x       y       z     vdW  Elec       q    Type
REMARK                         _______ _______ _______ _____ _____    ______ ____
ROOT
ATOM      1  CA  CYS A   1       4.309   3.674  19.180  0.00  0.00    +0.000 C 
ENDROOT
BRANCH   1   2
ATOM      2  N   CYS A   1       5.662   4.321  19.171  0.00  0.00    +0.000 NA
ATOM      3  H   CYS A   1       5.663   5.076  19.863  0.00  0.00    +0.000 HD
BRANCH   2   5
ATOM      4  C   UNK A   0       7.534   4.625  17.655  0.00  0.00    +0.000 C 
ATOM      5  C   UNK A   0       6.046   4.918  17.875  0.00  0.00    +0.000 C 
ATOM      6  C   UNK A   0       5.244   4.384  16.689  0.00  0.00    +0.000 C 
ENDBRANCH   2   5
ENDBRANCH   1   2
BRANCH   1   7
ATOM      7  C   CYS A   1       4.477   2.211  19.635  0.00  0.00    +0.000 C 
ATOM      8  O   CYS A   1       4.935   1.846  20.705  0.00  0.00    +0.000 OA
BRANCH   7   9
ATOM      9  OXT CYS A   1       3.990   1.345  18.705  0.00  0.00    +0.000 OA
ATOM     10  HXT CYS A   1       3.138   1.724  18.381  0.00  0.00    +0.000 HD
ENDBRANCH   7   9
ENDBRANCH   1   7
BRANCH   1  11
ATOM     11  CB  CYS A   1       3.210   4.385  19.989  0.00  0.00    +0.000 C 
BRANCH  11  12
ATOM     12  SG  CYS A   1       1.489   3.856  19.674  0.00  0.00    +0.000 S 
ATOM     13  HG  CYS A   1       0.852   4.777  20.402  0.00  0.00    +0.000 HD
ENDBRANCH  11  12
ENDBRANCH   1  11
TORSDOF 6
ENDMDL
