MODEL 1
REMARK VINA RESULT:      -8.1      0.000      0.000
REMARK  Name = 
REMARK  14 active torsions:
REMARK  status: ('A' for Active; 'I' for Inactive)
REMARK    1  A    between atoms: C_1  and  O_2
REMARK    2  A    between atoms: O_2  and  C_3
REMARK    3  A    between atoms: C_5  and  O_6
REMARK    4  A    between atoms: O_6  and  C_7
REMARK    5  A    between atoms: C_9  and  N_10
REMARK    6  A    between atoms: N_10  and  C_11
REMARK    7  A    between atoms: N_10  and  C_19
REMARK    8  A    between atoms: C_11  and  C_12
REMARK    9  A    between atoms: C_12  and  C_13
REMARK   10  A    between atoms: N_15  and  C_16
REMARK   11  A    between atoms: C_16  and  C_17
REMARK   12  A    between atoms: C_16  and  C_18
REMARK   13  A    between atoms: C_25  and  C_26
REMARK   14  A    between atoms: N_29  and  C_30
REMARK                            x       y       z     vdW  Elec       q    Type
REMARK                         _______ _______ _______ _____ _____    ______ ____
ROOT
ATOM      1  N   UNL     1       0.205  10.603  19.118  0.00  0.00    +0.000 N 
ENDROOT
BRANCH   1   2
ATOM      2  C   UNL     1       1.017   9.448  19.365  0.00  0.00    +0.000 A 
ATOM      3  C   UNL     1       0.971   8.820  20.615  0.00  0.00    +0.000 A 
ATOM      4  C   UNL     1       1.573   7.584  20.826  0.00  0.00    +0.000 A 
ATOM      5  C   UNL     1       2.293   6.962  19.832  0.00  0.00    +0.000 A 
ATOM      6  N   UNL     1       2.730   5.726  20.095  0.00  0.00    +0.000 NA
ATOM      7  C   UNL     1       3.454   5.134  19.126  0.00  0.00    +0.000 A 
ATOM      8  C   UNL     1       3.807   5.763  17.944  0.00  0.00    +0.000 A 
ATOM      9  N   UNL     1       3.345   7.021  17.665  0.00  0.00    +0.000 NA
ATOM     10  C   UNL     1       2.535   7.618  18.601  0.00  0.00    +0.000 A 
ATOM     11  C   UNL     1       1.866   8.852  18.397  0.00  0.00    +0.000 A 
BRANCH   8  12
ATOM     12  C   UNL     1       4.725   5.110  17.019  0.00  0.00    +0.000 A 
ATOM     13  C   UNL     1       4.947   3.745  16.726  0.00  0.00    +0.000 A 
ATOM     14  N   UNL     1       5.808   3.556  15.714  0.00  0.00    +0.000 NA
ATOM     15  N   UNL     1       6.137   4.803  15.345  0.00  0.00    +0.000 N 
ATOM     16  C   UNL     1       6.976   5.039  14.189  0.00  0.00    +0.000 C 
ATOM     17  C   UNL     1       5.545   5.764  16.113  0.00  0.00    +0.000 A 
ENDBRANCH   8  12
ENDBRANCH   1   2
BRANCH   1  22
ATOM     18  C   UNL     1      -3.375  11.493  18.316  0.00  0.00    +0.000 A 
ATOM     19  C   UNL     1      -3.544  10.884  17.079  0.00  0.00    +0.000 A 
ATOM     20  C   UNL     1      -2.521  10.123  16.532  0.00  0.00    +0.000 A 
ATOM     21  C   UNL     1      -1.297  10.023  17.210  0.00  0.00    +0.000 A 
ATOM     22  C   UNL     1      -1.053  10.673  18.441  0.00  0.00    +0.000 A 
ATOM     23  C   UNL     1      -2.149  11.370  18.989  0.00  0.00    +0.000 A 
BRANCH  18  25
ATOM     24  C   UNL     1      -4.404  12.754  20.055  0.00  0.00    +0.000 C 
ATOM     25  O   UNL     1      -4.483  12.157  18.768  0.00  0.00    +0.000 OA
ENDBRANCH  18  25
BRANCH  20  26
ATOM     26  O   UNL     1      -2.805   9.548  15.323  0.00  0.00    +0.000 OA
ATOM     27  C   UNL     1      -3.788  10.209  14.533  0.00  0.00    +0.000 C 
ENDBRANCH  20  26
ENDBRANCH   1  22
BRANCH   1  28
ATOM     28  C   UNL     1       0.817  11.896  19.605  0.00  0.00    +0.000 C 
BRANCH  28  29
ATOM     29  C   UNL     1       1.703  12.577  18.554  0.00  0.00    +0.000 C 
BRANCH  29  30
ATOM     30  C   UNL     1       2.684  13.567  19.163  0.00  0.00    +0.000 C 
ATOM     31  O   UNL     1       2.646  13.955  20.323  0.00  0.00    +0.000 OA
ATOM     32  N   UNL     1       3.626  13.989  18.240  0.00  0.00    +0.000 N 
ATOM     33  H   UNL     1       3.658  13.506  17.346  0.00  0.00    +0.000 HD
BRANCH  32  34
ATOM     34  C   UNL     1       4.695  14.945  18.509  0.00  0.00    +0.000 C 
ATOM     35  C   UNL     1       5.962  14.598  17.730  0.00  0.00    +0.000 C 
ATOM     36  C   UNL     1       4.223  16.350  18.135  0.00  0.00    +0.000 C 
ENDBRANCH  32  34
ENDBRANCH  29  30
ENDBRANCH  28  29
ENDBRANCH   1  28
TORSDOF 9
ENDMDL
MODEL 2
REMARK VINA RESULT:      -8.1      2.117      4.430
REMARK  Name = 
REMARK  14 active torsions:
REMARK  status: ('A' for Active; 'I' for Inactive)
REMARK    1  A    between atoms: C_1  and  O_2
REMARK    2  A    between atoms: O_2  and  C_3
REMARK    3  A    between atoms: C_5  and  O_6
REMARK    4  A    between atoms: O_6  and  C_7
REMARK    5  A    between atoms: C_9  and  N_10
REMARK    6  A    between atoms: N_10  and  C_11
REMARK    7  A    between atoms: N_10  and  C_19
REMARK    8  A    between atoms: C_11  and  C_12
REMARK    9  A    between atoms: C_12  and  C_13
REMARK   10  A    between atoms: N_15  and  C_16
REMARK   11  A    between atoms: C_16  and  C_17
REMARK   12  A    between atoms: C_16  and  C_18
REMARK   13  A    between atoms: C_25  and  C_26
REMARK   14  A    between atoms: N_29  and  C_30
REMARK                            x       y       z     vdW  Elec       q    Type
REMARK                         _______ _______ _______ _____ _____    ______ ____
ROOT
ATOM      1  N   UNL     1       0.790   9.402  20.709  0.00  0.00    +0.000 N 
ENDROOT
BRANCH   1   2
ATOM      2  C   UNL     1       1.473   8.196  20.340  0.00  0.00    +0.000 A 
ATOM      3  C   UNL     1       1.193   7.004  21.018  0.00  0.00    +0.000 A 
ATOM      4  C   UNL     1       1.667   5.781  20.556  0.00  0.00    +0.000 A 
ATOM      5  C   UNL     1       2.486   5.705  19.451  0.00  0.00    +0.000 A 
ATOM      6  N   UNL     1       2.790   4.477  19.017  0.00  0.00    +0.000 NA
ATOM      7  C   UNL     1       3.608   4.411  17.951  0.00  0.00    +0.000 A 
ATOM      8  C   UNL     1       4.181   5.523  17.357  0.00  0.00    +0.000 A 
ATOM      9  N   UNL     1       3.856   6.781  17.788  0.00  0.00    +0.000 NA
ATOM     10  C   UNL     1       2.957   6.882  18.822  0.00  0.00    +0.000 A 
ATOM     11  C   UNL     1       2.416   8.109  19.284  0.00  0.00    +0.000 A 
BRANCH   8  12
ATOM     12  C   UNL     1       5.181   5.355  16.310  0.00  0.00    +0.000 A 
ATOM     13  C   UNL     1       6.540   5.739  16.241  0.00  0.00    +0.000 A 
ATOM     14  N   UNL     1       7.159   5.291  15.139  0.00  0.00    +0.000 NA
ATOM     15  N   UNL     1       6.201   4.608  14.495  0.00  0.00    +0.000 N 
ATOM     16  C   UNL     1       6.500   3.861  13.292  0.00  0.00    +0.000 C 
ATOM     17  C   UNL     1       4.996   4.644  15.135  0.00  0.00    +0.000 A 
ENDBRANCH   8  12
ENDBRANCH   1   2
BRANCH   1  22
ATOM     18  C   UNL     1       0.326  12.594  18.749  0.00  0.00    +0.000 A 
ATOM     19  C   UNL     1      -0.877  12.349  18.098  0.00  0.00    +0.000 A 
ATOM     20  C   UNL     1      -1.577  11.178  18.347  0.00  0.00    +0.000 A 
ATOM     21  C   UNL     1      -1.034  10.219  19.214  0.00  0.00    +0.000 A 
ATOM     22  C   UNL     1       0.215  10.392  19.853  0.00  0.00    +0.000 A 
ATOM     23  C   UNL     1       0.849  11.630  19.626  0.00  0.00    +0.000 A 
BRANCH  18  25
ATOM     24  C   UNL     1       2.141  14.107  19.044  0.00  0.00    +0.000 C 
ATOM     25  O   UNL     1       0.878  13.813  18.463  0.00  0.00    +0.000 OA
ENDBRANCH  18  25
BRANCH  20  26
ATOM     26  O   UNL     1      -2.761  11.053  17.672  0.00  0.00    +0.000 OA
ATOM     27  C   UNL     1      -3.259   9.728  17.523  0.00  0.00    +0.000 C 
ENDBRANCH  20  26
ENDBRANCH   1  22
BRANCH   1  28
ATOM     28  C   UNL     1       0.741   9.644  22.201  0.00  0.00    +0.000 C 
BRANCH  28  29
ATOM     29  C   UNL     1      -0.688   9.785  22.741  0.00  0.00    +0.000 C 
BRANCH  29  30
ATOM     30  C   UNL     1      -1.094  11.234  22.961  0.00  0.00    +0.000 C 
ATOM     31  O   UNL     1      -0.333  12.188  22.867  0.00  0.00    +0.000 OA
ATOM     32  N   UNL     1      -2.434  11.347  23.290  0.00  0.00    +0.000 N 
ATOM     33  H   UNL     1      -3.011  10.514  23.205  0.00  0.00    +0.000 HD
BRANCH  32  34
ATOM     34  C   UNL     1      -3.127  12.600  23.572  0.00  0.00    +0.000 C 
ATOM     35  C   UNL     1      -3.700  13.219  22.299  0.00  0.00    +0.000 C 
ATOM     36  C   UNL     1      -4.250  12.341  24.576  0.00  0.00    +0.000 C 
ENDBRANCH  32  34
ENDBRANCH  29  30
ENDBRANCH  28  29
ENDBRANCH   1  28
TORSDOF 9
ENDMDL
MODEL 3
REMARK VINA RESULT:      -8.1      4.414     10.247
REMARK  Name = 
REMARK  14 active torsions:
REMARK  status: ('A' for Active; 'I' for Inactive)
REMARK    1  A    between atoms: C_1  and  O_2
REMARK    2  A    between atoms: O_2  and  C_3
REMARK    3  A    between atoms: C_5  and  O_6
REMARK    4  A    between atoms: O_6  and  C_7
REMARK    5  A    between atoms: C_9  and  N_10
REMARK    6  A    between atoms: N_10  and  C_11
REMARK    7  A    between atoms: N_10  and  C_19
REMARK    8  A    between atoms: C_11  and  C_12
REMARK    9  A    between atoms: C_12  and  C_13
REMARK   10  A    between atoms: N_15  and  C_16
REMARK   11  A    between atoms: C_16  and  C_17
REMARK   12  A    between atoms: C_16  and  C_18
REMARK   13  A    between atoms: C_25  and  C_26
REMARK   14  A    between atoms: N_29  and  C_30
REMARK                            x       y       z     vdW  Elec       q    Type
REMARK                         _______ _______ _______ _____ _____    ______ ____
ROOT
ATOM      1  N   UNL     1       2.474   6.366  19.172  0.00  0.00    +0.000 N 
ENDROOT
BRANCH   1   2
ATOM      2  C   UNL     1       2.059   7.738  19.166  0.00  0.00    +0.000 A 
ATOM      3  C   UNL     1       2.229   8.511  18.012  0.00  0.00    +0.000 A 
ATOM      4  C   UNL     1       1.652   9.770  17.892  0.00  0.00    +0.000 A 
ATOM      5  C   UNL     1       0.945  10.332  18.932  0.00  0.00    +0.000 A 
ATOM      6  N   UNL     1       0.329  11.491  18.677  0.00  0.00    +0.000 NA
ATOM      7  C   UNL     1      -0.340  12.045  19.705  0.00  0.00    +0.000 A 
ATOM      8  C   UNL     1      -0.352  11.514  20.984  0.00  0.00    +0.000 A 
ATOM      9  N   UNL     1       0.262  10.318  21.242  0.00  0.00    +0.000 NA
ATOM     10  C   UNL     1       0.884   9.688  20.191  0.00  0.00    +0.000 A 
ATOM     11  C   UNL     1       1.438   8.384  20.265  0.00  0.00    +0.000 A 
BRANCH   8  12
ATOM     12  C   UNL     1      -0.966  12.259  22.076  0.00  0.00    +0.000 A 
ATOM     13  C   UNL     1      -0.592  13.462  22.717  0.00  0.00    +0.000 A 
ATOM     14  N   UNL     1      -1.497  13.888  23.610  0.00  0.00    +0.000 NA
ATOM     15  N   UNL     1      -2.466  12.962  23.542  0.00  0.00    +0.000 N 
ATOM     16  C   UNL     1      -3.698  13.118  24.285  0.00  0.00    +0.000 C 
ATOM     17  C   UNL     1      -2.182  11.953  22.668  0.00  0.00    +0.000 A 
ENDBRANCH   8  12
ENDBRANCH   1   2
BRANCH   1  22
ATOM     18  C   UNL     1       5.024   4.761  16.898  0.00  0.00    +0.000 A 
ATOM     19  C   UNL     1       6.156   4.759  17.705  0.00  0.00    +0.000 A 
ATOM     20  C   UNL     1       6.077   5.212  19.014  0.00  0.00    +0.000 A 
ATOM     21  C   UNL     1       4.865   5.726  19.495  0.00  0.00    +0.000 A 
ATOM     22  C   UNL     1       3.702   5.809  18.697  0.00  0.00    +0.000 A 
ATOM     23  C   UNL     1       3.814   5.265  17.401  0.00  0.00    +0.000 A 
BRANCH  18  25
ATOM     24  C   UNL     1       6.536   4.309  15.114  0.00  0.00    +0.000 C 
ATOM     25  O   UNL     1       5.224   4.227  15.654  0.00  0.00    +0.000 OA
ENDBRANCH  18  25
BRANCH  20  26
ATOM     26  O   UNL     1       7.244   5.140  19.725  0.00  0.00    +0.000 OA
ATOM     27  C   UNL     1       8.280   6.028  19.319  0.00  0.00    +0.000 C 
ENDBRANCH  20  26
ENDBRANCH   1  22
BRANCH   1  28
ATOM     28  C   UNL     1       1.429   5.414  19.709  0.00  0.00    +0.000 C 
BRANCH  28  29
ATOM     29  C   UNL     1       1.741   4.913  21.125  0.00  0.00    +0.000 C 
BRANCH  29  30
ATOM     30  C   UNL     1       2.225   3.471  21.146  0.00  0.00    +0.000 C 
ATOM     31  O   UNL     1       2.084   2.707  22.092  0.00  0.00    +0.000 OA
ATOM     32  N   UNL     1       2.857   3.126  19.963  0.00  0.00    +0.000 N 
ATOM     33  H   UNL     1       2.799   3.783  19.190  0.00  0.00    +0.000 HD
BRANCH  32  34
ATOM     34  C   UNL     1       3.441   1.820  19.674  0.00  0.00    +0.000 C 
ATOM     35  C   UNL     1       3.514   1.562  18.170  0.00  0.00    +0.000 C 
ATOM     36  C   UNL     1       4.842   1.748  20.282  0.00  0.00    +0.000 C 
ENDBRANCH  32  34
ENDBRANCH  29  30
ENDBRANCH  28  29
ENDBRANCH   1  28
TORSDOF 9
ENDMDL
MODEL 4
REMARK VINA RESULT:      -8.0      1.025      1.209
REMARK  Name = 
REMARK  14 active torsions:
REMARK  status: ('A' for Active; 'I' for Inactive)
REMARK    1  A    between atoms: C_1  and  O_2
REMARK    2  A    between atoms: O_2  and  C_3
REMARK    3  A    between atoms: C_5  and  O_6
REMARK    4  A    between atoms: O_6  and  C_7
REMARK    5  A    between atoms: C_9  and  N_10
REMARK    6  A    between atoms: N_10  and  C_11
REMARK    7  A    between atoms: N_10  and  C_19
REMARK    8  A    between atoms: C_11  and  C_12
REMARK    9  A    between atoms: C_12  and  C_13
REMARK   10  A    between atoms: N_15  and  C_16
REMARK   11  A    between atoms: C_16  and  C_17
REMARK   12  A    between atoms: C_16  and  C_18
REMARK   13  A    between atoms: C_25  and  C_26
REMARK   14  A    between atoms: N_29  and  C_30
REMARK                            x       y       z     vdW  Elec       q    Type
REMARK                         _______ _______ _______ _____ _____    ______ ____
ROOT
ATOM      1  N   UNL     1      -0.503  10.989  19.177  0.00  0.00    +0.000 N 
ENDROOT
BRANCH   1   2
ATOM      2  C   UNL     1       0.445   9.940  19.412  0.00  0.00    +0.000 A 
ATOM      3  C   UNL     1       0.421   9.239  20.623  0.00  0.00    +0.000 A 
ATOM      4  C   UNL     1       1.173   8.084  20.805  0.00  0.00    +0.000 A 
ATOM      5  C   UNL     1       2.022   7.623  19.824  0.00  0.00    +0.000 A 
ATOM      6  N   UNL     1       2.608   6.442  20.048  0.00  0.00    +0.000 NA
ATOM      7  C   UNL     1       3.454   6.010  19.095  0.00  0.00    +0.000 A 
ATOM      8  C   UNL     1       3.778   6.748  17.969  0.00  0.00    +0.000 A 
ATOM      9  N   UNL     1       3.165   7.948  17.729  0.00  0.00    +0.000 NA
ATOM     10  C   UNL     1       2.234   8.376  18.645  0.00  0.00    +0.000 A 
ATOM     11  C   UNL     1       1.416   9.520  18.466  0.00  0.00    +0.000 A 
BRANCH   8  12
ATOM     12  C   UNL     1       4.823   6.279  17.067  0.00  0.00    +0.000 A 
ATOM     13  C   UNL     1       6.172   6.669  16.912  0.00  0.00    +0.000 A 
ATOM     14  N   UNL     1       6.846   5.903  16.041  0.00  0.00    +0.000 NA
ATOM     15  N   UNL     1       5.933   5.008  15.637  0.00  0.00    +0.000 N 
ATOM     16  C   UNL     1       6.298   3.915  14.762  0.00  0.00    +0.000 C 
ATOM     17  C   UNL     1       4.703   5.209  16.193  0.00  0.00    +0.000 A 
ENDBRANCH   8  12
ENDBRANCH   1   2
BRANCH   1  22
ATOM     18  C   UNL     1      -4.048  11.647  18.060  0.00  0.00    +0.000 A 
ATOM     19  C   UNL     1      -4.116  10.898  16.891  0.00  0.00    +0.000 A 
ATOM     20  C   UNL     1      -3.036  10.121  16.499  0.00  0.00    +0.000 A 
ATOM     21  C   UNL     1      -1.857  10.144  17.258  0.00  0.00    +0.000 A 
ATOM     22  C   UNL     1      -1.715  10.935  18.420  0.00  0.00    +0.000 A 
ATOM     23  C   UNL     1      -2.866  11.646  18.817  0.00  0.00    +0.000 A 
BRANCH  18  25
ATOM     24  C   UNL     1      -6.062  12.654  17.284  0.00  0.00    +0.000 C 
ATOM     25  O   UNL     1      -5.204  12.314  18.364  0.00  0.00    +0.000 OA
ENDBRANCH  18  25
BRANCH  20  26
ATOM     26  O   UNL     1      -3.222   9.405  15.348  0.00  0.00    +0.000 OA
ATOM     27  C   UNL     1      -3.045  10.122  14.130  0.00  0.00    +0.000 C 
ENDBRANCH  20  26
ENDBRANCH   1  22
BRANCH   1  28
ATOM     28  C   UNL     1      -0.106  12.317  19.781  0.00  0.00    +0.000 C 
BRANCH  28  29
ATOM     29  C   UNL     1       0.808  13.145  18.869  0.00  0.00    +0.000 C 
BRANCH  29  30
ATOM     30  C   UNL     1       2.129  13.506  19.530  0.00  0.00    +0.000 C 
ATOM     31  O   UNL     1       2.452  13.168  20.662  0.00  0.00    +0.000 OA
ATOM     32  N   UNL     1       2.925  14.276  18.699  0.00  0.00    +0.000 N 
ATOM     33  H   UNL     1       2.629  14.385  17.733  0.00  0.00    +0.000 HD
BRANCH  32  34
ATOM     34  C   UNL     1       4.245  14.792  19.044  0.00  0.00    +0.000 C 
ATOM     35  C   UNL     1       5.151  14.871  17.817  0.00  0.00    +0.000 C 
ATOM     36  C   UNL     1       4.097  16.179  19.671  0.00  0.00    +0.000 C 
ENDBRANCH  32  34
ENDBRANCH  29  30
ENDBRANCH  28  29
ENDBRANCH   1  28
TORSDOF 9
ENDMDL
MODEL 5
REMARK VINA RESULT:      -7.9      4.403     10.109
REMARK  Name = 
REMARK  14 active torsions:
REMARK  status: ('A' for Active; 'I' for Inactive)
REMARK    1  A    between atoms: C_1  and  O_2
REMARK    2  A    between atoms: O_2  and  C_3
REMARK    3  A    between atoms: C_5  and  O_6
REMARK    4  A    between atoms: O_6  and  C_7
REMARK    5  A    between atoms: C_9  and  N_10
REMARK    6  A    between atoms: N_10  and  C_11
REMARK    7  A    between atoms: N_10  and  C_19
REMARK    8  A    between atoms: C_11  and  C_12
REMARK    9  A    between atoms: C_12  and  C_13
REMARK   10  A    between atoms: N_15  and  C_16
REMARK   11  A    between atoms: C_16  and  C_17
REMARK   12  A    between atoms: C_16  and  C_18
REMARK   13  A    between atoms: C_25  and  C_26
REMARK   14  A    between atoms: N_29  and  C_30
REMARK                            x       y       z     vdW  Elec       q    Type
REMARK                         _______ _______ _______ _____ _____    ______ ____
ROOT
ATOM      1  N   UNL     1       2.451   6.524  19.133  0.00  0.00    +0.000 N 
ENDROOT
BRANCH   1   2
ATOM      2  C   UNL     1       2.002   7.885  19.156  0.00  0.00    +0.000 A 
ATOM      3  C   UNL     1       2.158   8.688  18.020  0.00  0.00    +0.000 A 
ATOM      4  C   UNL     1       1.550   9.934  17.926  0.00  0.00    +0.000 A 
ATOM      5  C   UNL     1       0.824  10.455  18.974  0.00  0.00    +0.000 A 
ATOM      6  N   UNL     1       0.180  11.604  18.743  0.00  0.00    +0.000 NA
ATOM      7  C   UNL     1      -0.507  12.117  19.779  0.00  0.00    +0.000 A 
ATOM      8  C   UNL     1      -0.512  11.557  21.046  0.00  0.00    +0.000 A 
ATOM      9  N   UNL     1       0.130  10.371  21.280  0.00  0.00    +0.000 NA
ATOM     10  C   UNL     1       0.773   9.781  20.218  0.00  0.00    +0.000 A 
ATOM     11  C   UNL     1       1.359   8.491  20.266  0.00  0.00    +0.000 A 
BRANCH   8  12
ATOM     12  C   UNL     1      -1.151  12.262  22.150  0.00  0.00    +0.000 A 
ATOM     13  C   UNL     1      -0.833  13.479  22.794  0.00  0.00    +0.000 A 
ATOM     14  N   UNL     1      -1.747  13.850  23.703  0.00  0.00    +0.000 NA
ATOM     15  N   UNL     1      -2.665  12.874  23.642  0.00  0.00    +0.000 N 
ATOM     16  C   UNL     1      -3.893  12.959  24.402  0.00  0.00    +0.000 C 
ATOM     17  C   UNL     1      -2.340  11.887  22.757  0.00  0.00    +0.000 A 
ENDBRANCH   8  12
ENDBRANCH   1   2
BRANCH   1  22
ATOM     18  C   UNL     1       6.005   5.258  19.014  0.00  0.00    +0.000 A 
ATOM     19  C   UNL     1       6.134   4.913  17.674  0.00  0.00    +0.000 A 
ATOM     20  C   UNL     1       5.093   5.155  16.790  0.00  0.00    +0.000 A 
ATOM     21  C   UNL     1       3.891   5.695  17.270  0.00  0.00    +0.000 A 
ATOM     22  C   UNL     1       3.687   6.006  18.633  0.00  0.00    +0.000 A 
ATOM     23  C   UNL     1       4.801   5.813  19.475  0.00  0.00    +0.000 A 
BRANCH  18  25
ATOM     24  C   UNL     1       8.281   5.800  19.461  0.00  0.00    +0.000 C 
ATOM     25  O   UNL     1       7.128   5.026  19.762  0.00  0.00    +0.000 OA
ENDBRANCH  18  25
BRANCH  20  26
ATOM     26  O   UNL     1       5.338   4.800  15.491  0.00  0.00    +0.000 OA
ATOM     27  C   UNL     1       6.212   3.693  15.300  0.00  0.00    +0.000 C 
ENDBRANCH  20  26
ENDBRANCH   1  22
BRANCH   1  28
ATOM     28  C   UNL     1       1.437   5.537  19.666  0.00  0.00    +0.000 C 
BRANCH  28  29
ATOM     29  C   UNL     1       1.761   5.047  21.083  0.00  0.00    +0.000 C 
BRANCH  29  30
ATOM     30  C   UNL     1       2.247   3.606  21.110  0.00  0.00    +0.000 C 
ATOM     31  O   UNL     1       2.158   2.863  22.080  0.00  0.00    +0.000 OA
ATOM     32  N   UNL     1       2.816   3.234  19.904  0.00  0.00    +0.000 N 
ATOM     33  H   UNL     1       2.716   3.873  19.120  0.00  0.00    +0.000 HD
BRANCH  32  34
ATOM     34  C   UNL     1       3.385   1.922  19.614  0.00  0.00    +0.000 C 
ATOM     35  C   UNL     1       3.487   1.679  18.109  0.00  0.00    +0.000 C 
ATOM     36  C   UNL     1       4.771   1.821  20.252  0.00  0.00    +0.000 C 
ENDBRANCH  32  34
ENDBRANCH  29  30
ENDBRANCH  28  29
ENDBRANCH   1  28
TORSDOF 9
ENDMDL
MODEL 6
REMARK VINA RESULT:      -7.8      2.013      4.484
REMARK  Name = 
REMARK  14 active torsions:
REMARK  status: ('A' for Active; 'I' for Inactive)
REMARK    1  A    between atoms: C_1  and  O_2
REMARK    2  A    between atoms: O_2  and  C_3
REMARK    3  A    between atoms: C_5  and  O_6
REMARK    4  A    between atoms: O_6  and  C_7
REMARK    5  A    between atoms: C_9  and  N_10
REMARK    6  A    between atoms: N_10  and  C_11
REMARK    7  A    between atoms: N_10  and  C_19
REMARK    8  A    between atoms: C_11  and  C_12
REMARK    9  A    between atoms: C_12  and  C_13
REMARK   10  A    between atoms: N_15  and  C_16
REMARK   11  A    between atoms: C_16  and  C_17
REMARK   12  A    between atoms: C_16  and  C_18
REMARK   13  A    between atoms: C_25  and  C_26
REMARK   14  A    between atoms: N_29  and  C_30
REMARK                            x       y       z     vdW  Elec       q    Type
REMARK                         _______ _______ _______ _____ _____    ______ ____
ROOT
ATOM      1  N   UNL     1       0.165   9.231  20.454  0.00  0.00    +0.000 N 
ENDROOT
BRANCH   1   2
ATOM      2  C   UNL     1       1.094   8.157  20.255  0.00  0.00    +0.000 A 
ATOM      3  C   UNL     1       1.078   7.055  21.117  0.00  0.00    +0.000 A 
ATOM      4  C   UNL     1       1.809   5.906  20.836  0.00  0.00    +0.000 A 
ATOM      5  C   UNL     1       2.628   5.834  19.732  0.00  0.00    +0.000 A 
ATOM      6  N   UNL     1       3.193   4.647  19.484  0.00  0.00    +0.000 NA
ATOM      7  C   UNL     1       4.010   4.592  18.416  0.00  0.00    +0.000 A 
ATOM      8  C   UNL     1       4.329   5.693  17.640  0.00  0.00    +0.000 A 
ATOM      9  N   UNL     1       3.737   6.903  17.880  0.00  0.00    +0.000 NA
ATOM     10  C   UNL     1       2.834   6.970  18.914  0.00  0.00    +0.000 A 
ATOM     11  C   UNL     1       2.037   8.109  19.196  0.00  0.00    +0.000 A 
BRANCH   8  12
ATOM     12  C   UNL     1       5.345   5.581  16.601  0.00  0.00    +0.000 A 
ATOM     13  C   UNL     1       6.702   5.975  16.570  0.00  0.00    +0.000 A 
ATOM     14  N   UNL     1       7.341   5.584  15.458  0.00  0.00    +0.000 NA
ATOM     15  N   UNL     1       6.397   4.927  14.768  0.00  0.00    +0.000 N 
ATOM     16  C   UNL     1       6.718   4.240  13.535  0.00  0.00    +0.000 C 
ATOM     17  C   UNL     1       5.182   4.926  15.390  0.00  0.00    +0.000 A 
ENDBRANCH   8  12
ENDBRANCH   1   2
BRANCH   1  22
ATOM     18  C   UNL     1      -1.583  11.527  18.021  0.00  0.00    +0.000 A 
ATOM     19  C   UNL     1      -0.681  12.582  17.935  0.00  0.00    +0.000 A 
ATOM     20  C   UNL     1       0.529  12.519  18.610  0.00  0.00    +0.000 A 
ATOM     21  C   UNL     1       0.808  11.412  19.425  0.00  0.00    +0.000 A 
ATOM     22  C   UNL     1      -0.101  10.343  19.596  0.00  0.00    +0.000 A 
ATOM     23  C   UNL     1      -1.281  10.420  18.829  0.00  0.00    +0.000 A 
BRANCH  18  25
ATOM     24  C   UNL     1      -2.742  11.016  16.004  0.00  0.00    +0.000 C 
ATOM     25  O   UNL     1      -2.706  11.689  17.255  0.00  0.00    +0.000 OA
ENDBRANCH  18  25
BRANCH  20  26
ATOM     26  O   UNL     1       1.350  13.599  18.434  0.00  0.00    +0.000 OA
ATOM     27  C   UNL     1       2.063  14.036  19.586  0.00  0.00    +0.000 C 
ENDBRANCH  20  26
ENDBRANCH   1  22
BRANCH   1  28
ATOM     28  C   UNL     1      -0.570   9.166  21.774  0.00  0.00    +0.000 C 
BRANCH  28  29
ATOM     29  C   UNL     1      -0.037  10.166  22.809  0.00  0.00    +0.000 C 
BRANCH  29  30
ATOM     30  C   UNL     1      -0.735  11.515  22.738  0.00  0.00    +0.000 C 
ATOM     31  O   UNL     1      -0.193  12.558  22.396  0.00  0.00    +0.000 OA
ATOM     32  N   UNL     1      -2.064  11.425  23.119  0.00  0.00    +0.000 N 
ATOM     33  H   UNL     1      -2.453  10.496  23.250  0.00  0.00    +0.000 HD
BRANCH  32  34
ATOM     34  C   UNL     1      -2.999  12.543  23.169  0.00  0.00    +0.000 C 
ATOM     35  C   UNL     1      -3.792  12.666  21.870  0.00  0.00    +0.000 C 
ATOM     36  C   UNL     1      -3.956  12.348  24.345  0.00  0.00    +0.000 C 
ENDBRANCH  32  34
ENDBRANCH  29  30
ENDBRANCH  28  29
ENDBRANCH   1  28
TORSDOF 9
ENDMDL
MODEL 7
REMARK VINA RESULT:      -7.8      2.178      4.043
REMARK  Name = 
REMARK  14 active torsions:
REMARK  status: ('A' for Active; 'I' for Inactive)
REMARK    1  A    between atoms: C_1  and  O_2
REMARK    2  A    between atoms: O_2  and  C_3
REMARK    3  A    between atoms: C_5  and  O_6
REMARK    4  A    between atoms: O_6  and  C_7
REMARK    5  A    between atoms: C_9  and  N_10
REMARK    6  A    between atoms: N_10  and  C_11
REMARK    7  A    between atoms: N_10  and  C_19
REMARK    8  A    between atoms: C_11  and  C_12
REMARK    9  A    between atoms: C_12  and  C_13
REMARK   10  A    between atoms: N_15  and  C_16
REMARK   11  A    between atoms: C_16  and  C_17
REMARK   12  A    between atoms: C_16  and  C_18
REMARK   13  A    between atoms: C_25  and  C_26
REMARK   14  A    between atoms: N_29  and  C_30
REMARK                            x       y       z     vdW  Elec       q    Type
REMARK                         _______ _______ _______ _____ _____    ______ ____
ROOT
ATOM      1  N   UNL     1       0.360   9.131  20.430  0.00  0.00    +0.000 N 
ENDROOT
BRANCH   1   2
ATOM      2  C   UNL     1       1.274   8.051  20.198  0.00  0.00    +0.000 A 
ATOM      3  C   UNL     1       1.279   6.948  21.058  0.00  0.00    +0.000 A 
ATOM      4  C   UNL     1       1.990   5.794  20.750  0.00  0.00    +0.000 A 
ATOM      5  C   UNL     1       2.770   5.717  19.618  0.00  0.00    +0.000 A 
ATOM      6  N   UNL     1       3.317   4.527  19.348  0.00  0.00    +0.000 NA
ATOM      7  C   UNL     1       4.097   4.467  18.253  0.00  0.00    +0.000 A 
ATOM      8  C   UNL     1       4.397   5.568  17.468  0.00  0.00    +0.000 A 
ATOM      9  N   UNL     1       3.823   6.782  17.731  0.00  0.00    +0.000 NA
ATOM     10  C   UNL     1       2.957   6.854  18.795  0.00  0.00    +0.000 A 
ATOM     11  C   UNL     1       2.179   7.998  19.107  0.00  0.00    +0.000 A 
BRANCH   8  12
ATOM     12  C   UNL     1       5.376   5.450  16.394  0.00  0.00    +0.000 A 
ATOM     13  C   UNL     1       6.736   5.828  16.320  0.00  0.00    +0.000 A 
ATOM     14  N   UNL     1       7.332   5.436  15.184  0.00  0.00    +0.000 NA
ATOM     15  N   UNL     1       6.357   4.795  14.523  0.00  0.00    +0.000 N 
ATOM     16  C   UNL     1       6.627   4.113  13.276  0.00  0.00    +0.000 C 
ATOM     17  C   UNL     1       5.164   4.805  15.186  0.00  0.00    +0.000 A 
ENDBRANCH   8  12
ENDBRANCH   1   2
BRANCH   1  22
ATOM     18  C   UNL     1      -1.383  11.498  18.062  0.00  0.00    +0.000 A 
ATOM     19  C   UNL     1      -0.473  12.546  17.995  0.00  0.00    +0.000 A 
ATOM     20  C   UNL     1       0.741  12.457  18.660  0.00  0.00    +0.000 A 
ATOM     21  C   UNL     1       1.016  11.330  19.448  0.00  0.00    +0.000 A 
ATOM     22  C   UNL     1       0.099  10.266  19.600  0.00  0.00    +0.000 A 
ATOM     23  C   UNL     1      -1.086  10.370  18.843  0.00  0.00    +0.000 A 
BRANCH  18  25
ATOM     24  C   UNL     1      -2.688  10.839  16.183  0.00  0.00    +0.000 C 
ATOM     25  O   UNL     1      -2.509  11.687  17.308  0.00  0.00    +0.000 OA
ENDBRANCH  18  25
BRANCH  20  26
ATOM     26  O   UNL     1       1.571  13.534  18.503  0.00  0.00    +0.000 OA
ATOM     27  C   UNL     1       2.967  13.254  18.509  0.00  0.00    +0.000 C 
ENDBRANCH  20  26
ENDBRANCH   1  22
BRANCH   1  28
ATOM     28  C   UNL     1      -0.360   9.047  21.757  0.00  0.00    +0.000 C 
BRANCH  28  29
ATOM     29  C   UNL     1       0.063  10.144  22.743  0.00  0.00    +0.000 C 
BRANCH  29  30
ATOM     30  C   UNL     1      -0.996  11.221  22.916  0.00  0.00    +0.000 C 
ATOM     31  O   UNL     1      -2.088  11.041  23.439  0.00  0.00    +0.000 OA
ATOM     32  N   UNL     1      -0.580  12.437  22.400  0.00  0.00    +0.000 N 
ATOM     33  H   UNL     1       0.392  12.519  22.115  0.00  0.00    +0.000 HD
BRANCH  32  34
ATOM     34  C   UNL     1      -1.370  13.663  22.401  0.00  0.00    +0.000 C 
ATOM     35  C   UNL     1      -1.219  14.423  23.718  0.00  0.00    +0.000 C 
ATOM     36  C   UNL     1      -0.929  14.549  21.236  0.00  0.00    +0.000 C 
ENDBRANCH  32  34
ENDBRANCH  29  30
ENDBRANCH  28  29
ENDBRANCH   1  28
TORSDOF 9
ENDMDL
MODEL 8
REMARK VINA RESULT:      -7.8      1.289      2.525
REMARK  Name = 
REMARK  14 active torsions:
REMARK  status: ('A' for Active; 'I' for Inactive)
REMARK    1  A    between atoms: C_1  and  O_2
REMARK    2  A    between atoms: O_2  and  C_3
REMARK    3  A    between atoms: C_5  and  O_6
REMARK    4  A    between atoms: O_6  and  C_7
REMARK    5  A    between atoms: C_9  and  N_10
REMARK    6  A    between atoms: N_10  and  C_11
REMARK    7  A    between atoms: N_10  and  C_19
REMARK    8  A    between atoms: C_11  and  C_12
REMARK    9  A    between atoms: C_12  and  C_13
REMARK   10  A    between atoms: N_15  and  C_16
REMARK   11  A    between atoms: C_16  and  C_17
REMARK   12  A    between atoms: C_16  and  C_18
REMARK   13  A    between atoms: C_25  and  C_26
REMARK   14  A    between atoms: N_29  and  C_30
REMARK                            x       y       z     vdW  Elec       q    Type
REMARK                         _______ _______ _______ _____ _____    ______ ____
ROOT
ATOM      1  N   UNL     1      -1.074  11.186  19.412  0.00  0.00    +0.000 N 
ENDROOT
BRANCH   1   2
ATOM      2  C   UNL     1      -0.095  10.168  19.662  0.00  0.00    +0.000 A 
ATOM      3  C   UNL     1      -0.047   9.542  20.912  0.00  0.00    +0.000 A 
ATOM      4  C   UNL     1       0.735   8.413  21.126  0.00  0.00    +0.000 A 
ATOM      5  C   UNL     1       1.545   7.907  20.134  0.00  0.00    +0.000 A 
ATOM      6  N   UNL     1       2.165   6.752  20.398  0.00  0.00    +0.000 NA
ATOM      7  C   UNL     1       2.972   6.278  19.432  0.00  0.00    +0.000 A 
ATOM      8  C   UNL     1       3.227   6.952  18.250  0.00  0.00    +0.000 A 
ATOM      9  N   UNL     1       2.579   8.124  17.969  0.00  0.00    +0.000 NA
ATOM     10  C   UNL     1       1.686   8.592  18.902  0.00  0.00    +0.000 A 
ATOM     11  C   UNL     1       0.837   9.709  18.696  0.00  0.00    +0.000 A 
BRANCH   8  12
ATOM     12  C   UNL     1       4.237   6.447  17.327  0.00  0.00    +0.000 A 
ATOM     13  C   UNL     1       5.352   7.071  16.724  0.00  0.00    +0.000 A 
ATOM     14  N   UNL     1       6.115   6.222  16.019  0.00  0.00    +0.000 NA
ATOM     15  N   UNL     1       5.497   5.042  16.174  0.00  0.00    +0.000 N 
ATOM     16  C   UNL     1       6.077   3.824  15.650  0.00  0.00    +0.000 C 
ATOM     17  C   UNL     1       4.355   5.128  16.916  0.00  0.00    +0.000 A 
ENDBRANCH   8  12
ENDBRANCH   1   2
BRANCH   1  22
ATOM     18  C   UNL     1      -2.814  10.818  16.083  0.00  0.00    +0.000 A 
ATOM     19  C   UNL     1      -4.116  11.181  16.407  0.00  0.00    +0.000 A 
ATOM     20  C   UNL     1      -4.419  11.614  17.689  0.00  0.00    +0.000 A 
ATOM     21  C   UNL     1      -3.416  11.627  18.669  0.00  0.00    +0.000 A 
ATOM     22  C   UNL     1      -2.091  11.209  18.408  0.00  0.00    +0.000 A 
ATOM     23  C   UNL     1      -1.818  10.851  17.071  0.00  0.00    +0.000 A 
BRANCH  18  25
ATOM     24  C   UNL     1      -3.776   9.987  14.069  0.00  0.00    +0.000 C 
ATOM     25  O   UNL     1      -2.640  10.474  14.770  0.00  0.00    +0.000 OA
ENDBRANCH  18  25
BRANCH  20  26
ATOM     26  O   UNL     1      -5.725  11.971  17.889  0.00  0.00    +0.000 OA
ATOM     27  C   UNL     1      -6.184  11.932  19.236  0.00  0.00    +0.000 C 
ENDBRANCH  20  26
ENDBRANCH   1  22
BRANCH   1  28
ATOM     28  C   UNL     1      -0.945  12.392  20.314  0.00  0.00    +0.000 C 
BRANCH  28  29
ATOM     29  C   UNL     1      -0.115  13.523  19.694  0.00  0.00    +0.000 C 
BRANCH  29  30
ATOM     30  C   UNL     1       1.342  13.491  20.130  0.00  0.00    +0.000 C 
ATOM     31  O   UNL     1       1.760  12.874  21.102  0.00  0.00    +0.000 OA
ATOM     32  N   UNL     1       2.144  14.254  19.298  0.00  0.00    +0.000 N 
ATOM     33  H   UNL     1       1.727  14.611  18.442  0.00  0.00    +0.000 HD
BRANCH  32  34
ATOM     34  C   UNL     1       3.583  14.435  19.455  0.00  0.00    +0.000 C 
ATOM     35  C   UNL     1       4.266  14.666  18.108  0.00  0.00    +0.000 C 
ATOM     36  C   UNL     1       3.844  15.624  20.380  0.00  0.00    +0.000 C 
ENDBRANCH  32  34
ENDBRANCH  29  30
ENDBRANCH  28  29
ENDBRANCH   1  28
TORSDOF 9
ENDMDL
MODEL 9
REMARK VINA RESULT:      -7.7      2.445      4.287
REMARK  Name = 
REMARK  14 active torsions:
REMARK  status: ('A' for Active; 'I' for Inactive)
REMARK    1  A    between atoms: C_1  and  O_2
REMARK    2  A    between atoms: O_2  and  C_3
REMARK    3  A    between atoms: C_5  and  O_6
REMARK    4  A    between atoms: O_6  and  C_7
REMARK    5  A    between atoms: C_9  and  N_10
REMARK    6  A    between atoms: N_10  and  C_11
REMARK    7  A    between atoms: N_10  and  C_19
REMARK    8  A    between atoms: C_11  and  C_12
REMARK    9  A    between atoms: C_12  and  C_13
REMARK   10  A    between atoms: N_15  and  C_16
REMARK   11  A    between atoms: C_16  and  C_17
REMARK   12  A    between atoms: C_16  and  C_18
REMARK   13  A    between atoms: C_25  and  C_26
REMARK   14  A    between atoms: N_29  and  C_30
REMARK                            x       y       z     vdW  Elec       q    Type
REMARK                         _______ _______ _______ _____ _____    ______ ____
ROOT
ATOM      1  N   UNL     1       0.734   9.463  20.355  0.00  0.00    +0.000 N 
ENDROOT
BRANCH   1   2
ATOM      2  C   UNL     1       1.474   8.269  20.068  0.00  0.00    +0.000 A 
ATOM      3  C   UNL     1       1.265   7.120  20.838  0.00  0.00    +0.000 A 
ATOM      4  C   UNL     1       1.797   5.891  20.463  0.00  0.00    +0.000 A 
ATOM      5  C   UNL     1       2.605   5.772  19.355  0.00  0.00    +0.000 A 
ATOM      6  N   UNL     1       2.967   4.532  19.010  0.00  0.00    +0.000 NA
ATOM      7  C   UNL     1       3.776   4.427  17.939  0.00  0.00    +0.000 A 
ATOM      8  C   UNL     1       4.282   5.518  17.253  0.00  0.00    +0.000 A 
ATOM      9  N   UNL     1       3.897   6.787  17.592  0.00  0.00    +0.000 NA
ATOM     10  C   UNL     1       3.006   6.920  18.630  0.00  0.00    +0.000 A 
ATOM     11  C   UNL     1       2.407   8.150  19.006  0.00  0.00    +0.000 A 
BRANCH   8  12
ATOM     12  C   UNL     1       5.277   5.321  16.206  0.00  0.00    +0.000 A 
ATOM     13  C   UNL     1       6.654   5.633  16.151  0.00  0.00    +0.000 A 
ATOM     14  N   UNL     1       7.254   5.179  15.041  0.00  0.00    +0.000 NA
ATOM     15  N   UNL     1       6.264   4.564  14.378  0.00  0.00    +0.000 N 
ATOM     16  C   UNL     1       6.528   3.831  13.158  0.00  0.00    +0.000 C 
ATOM     17  C   UNL     1       5.059   4.649  15.013  0.00  0.00    +0.000 A 
ENDBRANCH   8  12
ENDBRANCH   1   2
BRANCH   1  22
ATOM     18  C   UNL     1      -2.035  10.420  17.974  0.00  0.00    +0.000 A 
ATOM     19  C   UNL     1      -1.765  11.766  17.758  0.00  0.00    +0.000 A 
ATOM     20  C   UNL     1      -0.643  12.350  18.328  0.00  0.00    +0.000 A 
ATOM     21  C   UNL     1       0.181  11.589  19.168  0.00  0.00    +0.000 A 
ATOM     22  C   UNL     1      -0.083  10.233  19.470  0.00  0.00    +0.000 A 
ATOM     23  C   UNL     1      -1.191   9.667  18.806  0.00  0.00    +0.000 A 
BRANCH  18  25
ATOM     24  C   UNL     1      -3.754  10.839  16.380  0.00  0.00    +0.000 C 
ATOM     25  O   UNL     1      -3.133   9.955  17.302  0.00  0.00    +0.000 OA
ENDBRANCH  18  25
BRANCH  20  26
ATOM     26  O   UNL     1      -0.461  13.673  18.027  0.00  0.00    +0.000 OA
ATOM     27  C   UNL     1      -0.057  14.509  19.107  0.00  0.00    +0.000 C 
ENDBRANCH  20  26
ENDBRANCH   1  22
BRANCH   1  28
ATOM     28  C   UNL     1       0.909   9.966  21.770  0.00  0.00    +0.000 C 
BRANCH  28  29
ATOM     29  C   UNL     1      -0.414  10.075  22.539  0.00  0.00    +0.000 C 
BRANCH  29  30
ATOM     30  C   UNL     1      -0.904  11.509  22.666  0.00  0.00    +0.000 C 
ATOM     31  O   UNL     1      -0.251  12.495  22.348  0.00  0.00    +0.000 OA
ATOM     32  N   UNL     1      -2.182  11.569  23.195  0.00  0.00    +0.000 N 
ATOM     33  H   UNL     1      -2.691  10.695  23.295  0.00  0.00    +0.000 HD
BRANCH  32  34
ATOM     34  C   UNL     1      -2.928  12.797  23.451  0.00  0.00    +0.000 C 
ATOM     35  C   UNL     1      -4.098  12.551  24.401  0.00  0.00    +0.000 C 
ATOM     36  C   UNL     1      -1.987  13.845  24.044  0.00  0.00    +0.000 C 
ENDBRANCH  32  34
ENDBRANCH  29  30
ENDBRANCH  28  29
ENDBRANCH   1  28
TORSDOF 9
ENDMDL
