MODEL 1
REMARK VINA RESULT:      -7.0      0.000      0.000
REMARK  Name = 
REMARK  4 active torsions:
REMARK  status: ('A' for Active; 'I' for Inactive)
REMARK    1  A    between atoms: N_1  and  C_2
REMARK    2  A    between atoms: C_7  and  N_8
REMARK    3  A    between atoms: N_8  and  C_9
REMARK    4  A    between atoms: C_9  and  C_10
REMARK                            x       y       z     vdW  Elec       q    Type
REMARK                         _______ _______ _______ _____ _____    ______ ____
ROOT
ATOM      1  C   UNL     1       7.000   4.791  17.256  0.00  0.00    +0.000 A 
ATOM      2  N   UNL     1       7.625   4.488  16.094  0.00  0.00    +0.000 NA
ATOM      3  C   UNL     1       6.960   4.729  14.947  0.00  0.00    +0.000 A 
ATOM      4  C   UNL     1       5.692   5.271  14.898  0.00  0.00    +0.000 A 
ATOM      5  C   UNL     1       5.068   5.582  16.104  0.00  0.00    +0.000 A 
ATOM      6  C   UNL     1       5.718   5.377  17.332  0.00  0.00    +0.000 A 
ENDROOT
BRANCH   1   7
ATOM      7  N   UNL     1       7.743   4.438  18.385  0.00  0.00    +0.000 N 
ATOM      8  H   UNL     1       7.843   3.427  18.336  0.00  0.00    +0.000 HD
ATOM      9  H   UNL     1       7.223   4.712  19.210  0.00  0.00    +0.000 HD
ENDBRANCH   1   7
BRANCH   6  10
ATOM     10  N   UNL     1       4.970   5.631  18.501  0.00  0.00    +0.000 N 
ATOM     11  H   UNL     1       4.969   4.811  19.103  0.00  0.00    +0.000 HD
BRANCH  10  12
ATOM     12  C   UNL     1       3.606   6.146  18.382  0.00  0.00    +0.000 C 
BRANCH  12  13
ATOM     13  C   UNL     1       2.590   5.104  18.828  0.00  0.00    +0.000 A 
ATOM     14  C   UNL     1       2.121   4.096  17.969  0.00  0.00    +0.000 A 
ATOM     15  C   UNL     1       1.236   3.118  18.430  0.00  0.00    +0.000 A 
ATOM     16  C   UNL     1       0.824   3.120  19.761  0.00  0.00    +0.000 A 
ATOM     17  C   UNL     1       1.302   4.096  20.632  0.00  0.00    +0.000 A 
ATOM     18  C   UNL     1       2.180   5.079  20.171  0.00  0.00    +0.000 A 
ENDBRANCH  12  13
ENDBRANCH  10  12
ENDBRANCH   6  10
TORSDOF 4
ENDMDL
MODEL 2
REMARK VINA RESULT:      -7.0      1.680      2.032
REMARK  Name = 
REMARK  4 active torsions:
REMARK  status: ('A' for Active; 'I' for Inactive)
REMARK    1  A    between atoms: N_1  and  C_2
REMARK    2  A    between atoms: C_7  and  N_8
REMARK    3  A    between atoms: N_8  and  C_9
REMARK    4  A    between atoms: C_9  and  C_10
REMARK                            x       y       z     vdW  Elec       q    Type
REMARK                         _______ _______ _______ _____ _____    ______ ____
ROOT
ATOM      1  C   UNL     1       6.022   4.871  18.762  0.00  0.00    +0.000 A 
ATOM      2  N   UNL     1       7.269   5.071  19.252  0.00  0.00    +0.000 NA
ATOM      3  C   UNL     1       7.955   6.137  18.795  0.00  0.00    +0.000 A 
ATOM      4  C   UNL     1       7.453   7.030  17.871  0.00  0.00    +0.000 A 
ATOM      5  C   UNL     1       6.167   6.812  17.384  0.00  0.00    +0.000 A 
ATOM      6  C   UNL     1       5.392   5.733  17.839  0.00  0.00    +0.000 A 
ENDROOT
BRANCH   1   7
ATOM      7  N   UNL     1       5.426   3.704  19.243  0.00  0.00    +0.000 N 
ATOM      8  H   UNL     1       4.901   3.990  20.067  0.00  0.00    +0.000 HD
ATOM      9  H   UNL     1       6.156   3.047  19.488  0.00  0.00    +0.000 HD
ENDBRANCH   1   7
BRANCH   6  10
ATOM     10  N   UNL     1       4.140   5.537  17.216  0.00  0.00    +0.000 N 
ATOM     11  H   UNL     1       4.184   5.824  16.241  0.00  0.00    +0.000 HD
BRANCH  10  12
ATOM     12  C   UNL     1       2.937   6.097  17.833  0.00  0.00    +0.000 C 
BRANCH  12  13
ATOM     13  C   UNL     1       2.163   5.025  18.585  0.00  0.00    +0.000 A 
ATOM     14  C   UNL     1       1.661   3.876  17.951  0.00  0.00    +0.000 A 
ATOM     15  C   UNL     1       1.008   2.881  18.683  0.00  0.00    +0.000 A 
ATOM     16  C   UNL     1       0.868   3.009  20.064  0.00  0.00    +0.000 A 
ATOM     17  C   UNL     1       1.385   4.128  20.712  0.00  0.00    +0.000 A 
ATOM     18  C   UNL     1       2.030   5.127  19.980  0.00  0.00    +0.000 A 
ENDBRANCH  12  13
ENDBRANCH  10  12
ENDBRANCH   6  10
TORSDOF 4
ENDMDL
MODEL 3
REMARK VINA RESULT:      -6.9      1.650      2.350
REMARK  Name = 
REMARK  4 active torsions:
REMARK  status: ('A' for Active; 'I' for Inactive)
REMARK    1  A    between atoms: N_1  and  C_2
REMARK    2  A    between atoms: C_7  and  N_8
REMARK    3  A    between atoms: N_8  and  C_9
REMARK    4  A    between atoms: C_9  and  C_10
REMARK                            x       y       z     vdW  Elec       q    Type
REMARK                         _______ _______ _______ _____ _____    ______ ____
ROOT
ATOM      1  C   UNL     1       6.082   4.926  18.671  0.00  0.00    +0.000 A 
ATOM      2  N   UNL     1       7.338   5.124  19.137  0.00  0.00    +0.000 NA
ATOM      3  C   UNL     1       8.001   6.212  18.699  0.00  0.00    +0.000 A 
ATOM      4  C   UNL     1       7.468   7.129  17.818  0.00  0.00    +0.000 A 
ATOM      5  C   UNL     1       6.173   6.912  17.354  0.00  0.00    +0.000 A 
ATOM      6  C   UNL     1       5.420   5.810  17.791  0.00  0.00    +0.000 A 
ENDROOT
BRANCH   1   7
ATOM      7  N   UNL     1       5.509   3.738  19.128  0.00  0.00    +0.000 N 
ATOM      8  H   UNL     1       6.170   3.007  18.876  0.00  0.00    +0.000 HD
ATOM      9  H   UNL     1       4.623   3.606  18.656  0.00  0.00    +0.000 HD
ENDBRANCH   1   7
BRANCH   6  10
ATOM     10  N   UNL     1       4.156   5.621  17.193  0.00  0.00    +0.000 N 
ATOM     11  H   UNL     1       4.168   5.957  16.232  0.00  0.00    +0.000 HD
BRANCH  10  12
ATOM     12  C   UNL     1       2.961   6.126  17.868  0.00  0.00    +0.000 C 
BRANCH  12  13
ATOM     13  C   UNL     1       2.257   5.013  18.631  0.00  0.00    +0.000 A 
ATOM     14  C   UNL     1       1.962   5.112  20.001  0.00  0.00    +0.000 A 
ATOM     15  C   UNL     1       1.259   4.098  20.657  0.00  0.00    +0.000 A 
ATOM     16  C   UNL     1       0.820   2.982  19.948  0.00  0.00    +0.000 A 
ATOM     17  C   UNL     1       1.078   2.882  18.584  0.00  0.00    +0.000 A 
ATOM     18  C   UNL     1       1.789   3.890  17.929  0.00  0.00    +0.000 A 
ENDBRANCH  12  13
ENDBRANCH  10  12
ENDBRANCH   6  10
TORSDOF 4
ENDMDL
MODEL 4
REMARK VINA RESULT:      -6.9      0.221      1.264
REMARK  Name = 
REMARK  4 active torsions:
REMARK  status: ('A' for Active; 'I' for Inactive)
REMARK    1  A    between atoms: N_1  and  C_2
REMARK    2  A    between atoms: C_7  and  N_8
REMARK    3  A    between atoms: N_8  and  C_9
REMARK    4  A    between atoms: C_9  and  C_10
REMARK                            x       y       z     vdW  Elec       q    Type
REMARK                         _______ _______ _______ _____ _____    ______ ____
ROOT
ATOM      1  C   UNL     1       6.943   4.976  17.444  0.00  0.00    +0.000 A 
ATOM      2  N   UNL     1       7.667   4.571  16.374  0.00  0.00    +0.000 NA
ATOM      3  C   UNL     1       7.096   4.680  15.158  0.00  0.00    +0.000 A 
ATOM      4  C   UNL     1       5.830   5.187  14.950  0.00  0.00    +0.000 A 
ATOM      5  C   UNL     1       5.104   5.605  16.063  0.00  0.00    +0.000 A 
ATOM      6  C   UNL     1       5.652   5.539  17.354  0.00  0.00    +0.000 A 
ENDROOT
BRANCH   1   7
ATOM      7  N   UNL     1       7.593   4.755  18.659  0.00  0.00    +0.000 N 
ATOM      8  H   UNL     1       8.084   3.871  18.545  0.00  0.00    +0.000 HD
ATOM      9  H   UNL     1       6.895   4.691  19.390  0.00  0.00    +0.000 HD
ENDBRANCH   1   7
BRANCH   6  10
ATOM     10  N   UNL     1       4.805   5.893  18.426  0.00  0.00    +0.000 N 
ATOM     11  H   UNL     1       4.900   5.223  19.185  0.00  0.00    +0.000 HD
BRANCH  10  12
ATOM     12  C   UNL     1       3.386   6.137  18.169  0.00  0.00    +0.000 C 
BRANCH  12  13
ATOM     13  C   UNL     1       2.526   5.036  18.772  0.00  0.00    +0.000 A 
ATOM     14  C   UNL     1       2.131   5.045  20.120  0.00  0.00    +0.000 A 
ATOM     15  C   UNL     1       1.290   4.051  20.626  0.00  0.00    +0.000 A 
ATOM     16  C   UNL     1       0.811   3.048  19.786  0.00  0.00    +0.000 A 
ATOM     17  C   UNL     1       1.169   3.041  18.440  0.00  0.00    +0.000 A 
ATOM     18  C   UNL     1       2.017   4.029  17.935  0.00  0.00    +0.000 A 
ENDBRANCH  12  13
ENDBRANCH  10  12
ENDBRANCH   6  10
TORSDOF 4
ENDMDL
MODEL 5
REMARK VINA RESULT:      -6.9      1.112      1.681
REMARK  Name = 
REMARK  4 active torsions:
REMARK  status: ('A' for Active; 'I' for Inactive)
REMARK    1  A    between atoms: N_1  and  C_2
REMARK    2  A    between atoms: C_7  and  N_8
REMARK    3  A    between atoms: N_8  and  C_9
REMARK    4  A    between atoms: C_9  and  C_10
REMARK                            x       y       z     vdW  Elec       q    Type
REMARK                         _______ _______ _______ _____ _____    ______ ____
ROOT
ATOM      1  C   UNL     1       6.617   6.209  16.597  0.00  0.00    +0.000 A 
ATOM      2  N   UNL     1       7.388   5.772  15.573  0.00  0.00    +0.000 NA
ATOM      3  C   UNL     1       7.000   4.650  14.935  0.00  0.00    +0.000 A 
ATOM      4  C   UNL     1       5.866   3.937  15.264  0.00  0.00    +0.000 A 
ATOM      5  C   UNL     1       5.082   4.406  16.316  0.00  0.00    +0.000 A 
ATOM      6  C   UNL     1       5.420   5.582  17.004  0.00  0.00    +0.000 A 
ENDROOT
BRANCH   1   7
ATOM      7  N   UNL     1       7.142   7.334  17.235  0.00  0.00    +0.000 N 
ATOM      8  H   UNL     1       7.311   8.009  16.494  0.00  0.00    +0.000 HD
ATOM      9  H   UNL     1       8.007   7.071  17.691  0.00  0.00    +0.000 HD
ENDBRANCH   1   7
BRANCH   6  10
ATOM     10  N   UNL     1       4.621   5.924  18.116  0.00  0.00    +0.000 N 
ATOM     11  H   UNL     1       4.785   5.272  18.880  0.00  0.00    +0.000 HD
BRANCH  10  12
ATOM     12  C   UNL     1       3.180   6.107  17.935  0.00  0.00    +0.000 C 
BRANCH  12  13
ATOM     13  C   UNL     1       2.398   5.034  18.679  0.00  0.00    +0.000 A 
ATOM     14  C   UNL     1       2.129   5.118  20.055  0.00  0.00    +0.000 A 
ATOM     15  C   UNL     1       1.354   4.146  20.693  0.00  0.00    +0.000 A 
ATOM     16  C   UNL     1       0.817   3.090  19.961  0.00  0.00    +0.000 A 
ATOM     17  C   UNL     1       1.049   3.008  18.591  0.00  0.00    +0.000 A 
ATOM     18  C   UNL     1       1.831   3.973  17.953  0.00  0.00    +0.000 A 
ENDBRANCH  12  13
ENDBRANCH  10  12
ENDBRANCH   6  10
TORSDOF 4
ENDMDL
MODEL 6
REMARK VINA RESULT:      -6.8      1.044      1.074
REMARK  Name = 
REMARK  4 active torsions:
REMARK  status: ('A' for Active; 'I' for Inactive)
REMARK    1  A    between atoms: N_1  and  C_2
REMARK    2  A    between atoms: C_7  and  N_8
REMARK    3  A    between atoms: N_8  and  C_9
REMARK    4  A    between atoms: C_9  and  C_10
REMARK                            x       y       z     vdW  Elec       q    Type
REMARK                         _______ _______ _______ _____ _____    ______ ____
ROOT
ATOM      1  C   UNL     1       6.838   5.890  16.276  0.00  0.00    +0.000 A 
ATOM      2  N   UNL     1       7.481   5.550  15.135  0.00  0.00    +0.000 NA
ATOM      3  C   UNL     1       6.923   4.595  14.365  0.00  0.00    +0.000 A 
ATOM      4  C   UNL     1       5.738   3.961  14.675  0.00  0.00    +0.000 A 
ATOM      5  C   UNL     1       5.087   4.329  15.850  0.00  0.00    +0.000 A 
ATOM      6  C   UNL     1       5.606   5.334  16.682  0.00  0.00    +0.000 A 
ENDROOT
BRANCH   1   7
ATOM      7  N   UNL     1       7.533   6.834  17.035  0.00  0.00    +0.000 N 
ATOM      8  H   UNL     1       8.067   7.379  16.363  0.00  0.00    +0.000 HD
ATOM      9  H   UNL     1       8.146   6.344  17.675  0.00  0.00    +0.000 HD
ENDBRANCH   1   7
BRANCH   6  10
ATOM     10  N   UNL     1       4.929   5.569  17.898  0.00  0.00    +0.000 N 
ATOM     11  H   UNL     1       4.934   4.729  18.472  0.00  0.00    +0.000 HD
BRANCH  10  12
ATOM     12  C   UNL     1       3.578   6.130  17.870  0.00  0.00    +0.000 C 
BRANCH  12  13
ATOM     13  C   UNL     1       2.586   5.193  18.544  0.00  0.00    +0.000 A 
ATOM     14  C   UNL     1       2.041   4.078  17.887  0.00  0.00    +0.000 A 
ATOM     15  C   UNL     1       1.181   3.203  18.556  0.00  0.00    +0.000 A 
ATOM     16  C   UNL     1       0.873   3.417  19.898  0.00  0.00    +0.000 A 
ATOM     17  C   UNL     1       1.428   4.502  20.572  0.00  0.00    +0.000 A 
ATOM     18  C   UNL     1       2.280   5.382  19.902  0.00  0.00    +0.000 A 
ENDBRANCH  12  13
ENDBRANCH  10  12
ENDBRANCH   6  10
TORSDOF 4
ENDMDL
MODEL 7
REMARK VINA RESULT:      -6.8      1.222      1.795
REMARK  Name = 
REMARK  4 active torsions:
REMARK  status: ('A' for Active; 'I' for Inactive)
REMARK    1  A    between atoms: N_1  and  C_2
REMARK    2  A    between atoms: C_7  and  N_8
REMARK    3  A    between atoms: N_8  and  C_9
REMARK    4  A    between atoms: C_9  and  C_10
REMARK                            x       y       z     vdW  Elec       q    Type
REMARK                         _______ _______ _______ _____ _____    ______ ____
ROOT
ATOM      1  C   UNL     1       7.155   4.599  17.381  0.00  0.00    +0.000 A 
ATOM      2  N   UNL     1       7.693   4.600  16.139  0.00  0.00    +0.000 NA
ATOM      3  C   UNL     1       6.846   4.548  15.092  0.00  0.00    +0.000 A 
ATOM      4  C   UNL     1       5.474   4.504  15.221  0.00  0.00    +0.000 A 
ATOM      5  C   UNL     1       4.938   4.510  16.506  0.00  0.00    +0.000 A 
ATOM      6  C   UNL     1       5.767   4.587  17.638  0.00  0.00    +0.000 A 
ENDROOT
BRANCH   1   7
ATOM      7  N   UNL     1       8.115   4.582  18.394  0.00  0.00    +0.000 N 
ATOM      8  H   UNL     1       9.009   4.495  17.916  0.00  0.00    +0.000 HD
ATOM      9  H   UNL     1       7.942   3.780  18.988  0.00  0.00    +0.000 HD
ENDBRANCH   1   7
BRANCH   6  10
ATOM     10  N   UNL     1       5.139   4.489  18.898  0.00  0.00    +0.000 N 
ATOM     11  H   UNL     1       5.710   4.934  19.611  0.00  0.00    +0.000 HD
BRANCH  10  12
ATOM     12  C   UNL     1       4.696   3.179  19.378  0.00  0.00    +0.000 C 
BRANCH  12  13
ATOM     13  C   UNL     1       3.184   3.146  19.552  0.00  0.00    +0.000 A 
ATOM     14  C   UNL     1       2.510   4.011  20.430  0.00  0.00    +0.000 A 
ATOM     15  C   UNL     1       1.116   3.996  20.519  0.00  0.00    +0.000 A 
ATOM     16  C   UNL     1       0.374   3.134  19.715  0.00  0.00    +0.000 A 
ATOM     17  C   UNL     1       1.025   2.291  18.818  0.00  0.00    +0.000 A 
ATOM     18  C   UNL     1       2.419   2.298  18.735  0.00  0.00    +0.000 A 
ENDBRANCH  12  13
ENDBRANCH  10  12
ENDBRANCH   6  10
TORSDOF 4
ENDMDL
MODEL 8
REMARK VINA RESULT:      -6.7      1.265      1.464
REMARK  Name = 
REMARK  4 active torsions:
REMARK  status: ('A' for Active; 'I' for Inactive)
REMARK    1  A    between atoms: N_1  and  C_2
REMARK    2  A    between atoms: C_7  and  N_8
REMARK    3  A    between atoms: N_8  and  C_9
REMARK    4  A    between atoms: C_9  and  C_10
REMARK                            x       y       z     vdW  Elec       q    Type
REMARK                         _______ _______ _______ _____ _____    ______ ____
ROOT
ATOM      1  C   UNL     1       6.991   4.473  16.852  0.00  0.00    +0.000 A 
ATOM      2  N   UNL     1       7.713   4.670  15.725  0.00  0.00    +0.000 NA
ATOM      3  C   UNL     1       7.045   4.713  14.555  0.00  0.00    +0.000 A 
ATOM      4  C   UNL     1       5.676   4.577  14.452  0.00  0.00    +0.000 A 
ATOM      5  C   UNL     1       4.949   4.381  15.624  0.00  0.00    +0.000 A 
ATOM      6  C   UNL     1       5.585   4.351  16.876  0.00  0.00    +0.000 A 
ENDROOT
BRANCH   1   7
ATOM      7  N   UNL     1       7.782   4.373  17.999  0.00  0.00    +0.000 N 
ATOM      8  H   UNL     1       7.135   4.152  18.753  0.00  0.00    +0.000 HD
ATOM      9  H   UNL     1       8.233   5.266  18.156  0.00  0.00    +0.000 HD
ENDBRANCH   1   7
BRANCH   6  10
ATOM     10  N   UNL     1       4.778   4.050  17.994  0.00  0.00    +0.000 N 
ATOM     11  H   UNL     1       4.895   3.075  18.260  0.00  0.00    +0.000 HD
BRANCH  10  12
ATOM     12  C   UNL     1       3.353   4.376  17.959  0.00  0.00    +0.000 C 
BRANCH  12  13
ATOM     13  C   UNL     1       2.641   3.843  19.194  0.00  0.00    +0.000 A 
ATOM     14  C   UNL     1       1.241   3.827  19.307  0.00  0.00    +0.000 A 
ATOM     15  C   UNL     1       0.620   3.273  20.428  0.00  0.00    +0.000 A 
ATOM     16  C   UNL     1       1.387   2.705  21.442  0.00  0.00    +0.000 A 
ATOM     17  C   UNL     1       2.775   2.686  21.333  0.00  0.00    +0.000 A 
ATOM     18  C   UNL     1       3.399   3.247  20.217  0.00  0.00    +0.000 A 
ENDBRANCH  12  13
ENDBRANCH  10  12
ENDBRANCH   6  10
TORSDOF 4
ENDMDL
MODEL 9
REMARK VINA RESULT:      -6.7      1.459      1.587
REMARK  Name = 
REMARK  4 active torsions:
REMARK  status: ('A' for Active; 'I' for Inactive)
REMARK    1  A    between atoms: N_1  and  C_2
REMARK    2  A    between atoms: C_7  and  N_8
REMARK    3  A    between atoms: N_8  and  C_9
REMARK    4  A    between atoms: C_9  and  C_10
REMARK                            x       y       z     vdW  Elec       q    Type
REMARK                         _______ _______ _______ _____ _____    ______ ____
ROOT
ATOM      1  C   UNL     1       7.069   5.530  16.891  0.00  0.00    +0.000 A 
ATOM      2  N   UNL     1       7.416   5.800  15.611  0.00  0.00    +0.000 NA
ATOM      3  C   UNL     1       6.935   4.988  14.649  0.00  0.00    +0.000 A 
ATOM      4  C   UNL     1       6.109   3.913  14.900  0.00  0.00    +0.000 A 
ATOM      5  C   UNL     1       5.757   3.654  16.223  0.00  0.00    +0.000 A 
ATOM      6  C   UNL     1       6.206   4.478  17.268  0.00  0.00    +0.000 A 
ENDROOT
BRANCH   1   7
ATOM      7  N   UNL     1       7.675   6.383  17.815  0.00  0.00    +0.000 N 
ATOM      8  H   UNL     1       6.908   6.837  18.306  0.00  0.00    +0.000 HD
ATOM      9  H   UNL     1       8.233   7.061  17.309  0.00  0.00    +0.000 HD
ENDBRANCH   1   7
BRANCH   6  10
ATOM     10  N   UNL     1       5.878   4.080  18.581  0.00  0.00    +0.000 N 
ATOM     11  H   UNL     1       5.699   3.079  18.611  0.00  0.00    +0.000 HD
BRANCH  10  12
ATOM     12  C   UNL     1       4.817   4.785  19.300  0.00  0.00    +0.000 C 
BRANCH  12  13
ATOM     13  C   UNL     1       3.470   4.110  19.081  0.00  0.00    +0.000 A 
ATOM     14  C   UNL     1       2.516   4.613  18.181  0.00  0.00    +0.000 A 
ATOM     15  C   UNL     1       1.316   3.934  17.957  0.00  0.00    +0.000 A 
ATOM     16  C   UNL     1       1.061   2.732  18.613  0.00  0.00    +0.000 A 
ATOM     17  C   UNL     1       2.009   2.205  19.487  0.00  0.00    +0.000 A 
ATOM     18  C   UNL     1       3.205   2.887  19.718  0.00  0.00    +0.000 A 
ENDBRANCH  12  13
ENDBRANCH  10  12
ENDBRANCH   6  10
TORSDOF 4
ENDMDL
