MODEL 1
REMARK VINA RESULT:      -8.0      0.000      0.000
REMARK  Name = 
REMARK  5 active torsions:
REMARK  status: ('A' for Active; 'I' for Inactive)
REMARK    1  A    between atoms: C_1  and  O_2
REMARK    2  A    between atoms: O_2  and  C_3
REMARK    3  A    between atoms: C_8  and  C_9
REMARK    4  A    between atoms: N_11  and  C_12
REMARK    5  A    between atoms: N_11  and  C_13
REMARK                            x       y       z     vdW  Elec       q    Type
REMARK                         _______ _______ _______ _____ _____    ______ ____
ROOT
ATOM      1  C   UNL     1       4.479   3.422  19.178  0.00  0.00    +0.000 C 
ATOM      2  O   UNL     1       5.219   2.570  19.680  0.00  0.00    +0.000 OA
ATOM      3  N   UNL     1       3.148   3.588  19.631  0.00  0.00    +0.000 N 
ATOM      4  C   UNL     1       2.742   2.669  20.693  0.00  0.00    +0.000 C 
ENDROOT
BRANCH   3   5
ATOM      5  C   UNL     1       2.108   4.455  19.002  0.00  0.00    +0.000 C 
ATOM      6  C   UNL     1       2.591   5.721  18.259  0.00  0.00    +0.000 C 
ATOM      7  C   UNL     1       2.948   6.899  19.165  0.00  0.00    +0.000 C 
ATOM      8  N   UNL     1       2.017   7.052  20.281  0.00  0.00    +0.000 N 
ATOM      9  C   UNL     1       1.407   8.274  20.483  0.00  0.00    +0.000 A 
ATOM     10  C   UNL     1       1.001   8.663  21.758  0.00  0.00    +0.000 A 
ATOM     11  C   UNL     1       0.358   9.883  21.953  0.00  0.00    +0.000 A 
ATOM     12  C   UNL     1       0.135  10.703  20.864  0.00  0.00    +0.000 A 
ATOM     13  C   UNL     1       0.582  10.269  19.630  0.00  0.00    +0.000 A 
ATOM     14  N   UNL     1       1.211   9.090  19.426  0.00  0.00    +0.000 NA
ATOM     15  C   UNL     1       1.524   5.873  20.976  0.00  0.00    +0.000 C 
ATOM     16  C   UNL     1       1.000   4.864  19.970  0.00  0.00    +0.000 C 
ENDBRANCH   3   5
BRANCH   1  22
ATOM     17  C   UNL     1       6.031   5.159  18.058  0.00  0.00    +0.000 A 
ATOM     18  C   UNL     1       6.475   5.734  16.854  0.00  0.00    +0.000 A 
ATOM     19  C   UNL     1       6.052   5.242  15.616  0.00  0.00    +0.000 A 
ATOM     20  C   UNL     1       5.167   4.176  15.561  0.00  0.00    +0.000 A 
ATOM     21  C   UNL     1       4.666   3.640  16.748  0.00  0.00    +0.000 A 
ATOM     22  C   UNL     1       5.065   4.141  18.008  0.00  0.00    +0.000 A 
BRANCH  17  24
ATOM     23  C   UNL     1       7.911   5.831  19.369  0.00  0.00    +0.000 C 
ATOM     24  O   UNL     1       6.530   5.511  19.281  0.00  0.00    +0.000 OA
ENDBRANCH  17  24
ENDBRANCH   1  22
TORSDOF 3
ENDMDL
MODEL 2
REMARK VINA RESULT:      -6.5      1.287      1.435
REMARK  Name = 
REMARK  5 active torsions:
REMARK  status: ('A' for Active; 'I' for Inactive)
REMARK    1  A    between atoms: C_1  and  O_2
REMARK    2  A    between atoms: O_2  and  C_3
REMARK    3  A    between atoms: C_8  and  C_9
REMARK    4  A    between atoms: N_11  and  C_12
REMARK    5  A    between atoms: N_11  and  C_13
REMARK                            x       y       z     vdW  Elec       q    Type
REMARK                         _______ _______ _______ _____ _____    ______ ____
ROOT
ATOM      1  C   UNL     1       5.355   4.316  18.496  0.00  0.00    +0.000 C 
ATOM      2  O   UNL     1       6.174   3.678  19.165  0.00  0.00    +0.000 OA
ATOM      3  N   UNL     1       4.064   4.599  19.002  0.00  0.00    +0.000 N 
ATOM      4  C   UNL     1       3.795   4.060  20.334  0.00  0.00    +0.000 C 
ENDROOT
BRANCH   3   5
ATOM      5  C   UNL     1       2.936   5.207  18.238  0.00  0.00    +0.000 C 
ATOM      6  C   UNL     1       3.213   6.532  17.491  0.00  0.00    +0.000 C 
ATOM      7  C   UNL     1       3.214   7.778  18.375  0.00  0.00    +0.000 C 
ATOM      8  N   UNL     1       2.160   7.750  19.387  0.00  0.00    +0.000 N 
ATOM      9  C   UNL     1       1.286   8.816  19.476  0.00  0.00    +0.000 A 
ATOM     10  C   UNL     1       0.675   9.134  20.688  0.00  0.00    +0.000 A 
ATOM     11  C   UNL     1      -0.229  10.190  20.765  0.00  0.00    +0.000 A 
ATOM     12  C   UNL     1      -0.506  10.919  19.625  0.00  0.00    +0.000 A 
ATOM     13  C   UNL     1       0.150  10.567  18.461  0.00  0.00    +0.000 A 
ATOM     14  N   UNL     1       1.034   9.548  18.371  0.00  0.00    +0.000 NA
ATOM     15  C   UNL     1       1.859   6.507  20.081  0.00  0.00    +0.000 C 
ATOM     16  C   UNL     1       1.670   5.388  19.073  0.00  0.00    +0.000 C 
ENDBRANCH   3   5
BRANCH   1  22
ATOM     17  C   UNL     1       6.745   5.607  16.740  0.00  0.00    +0.000 A 
ATOM     18  C   UNL     1       7.051   5.779  15.379  0.00  0.00    +0.000 A 
ATOM     19  C   UNL     1       6.516   4.933  14.404  0.00  0.00    +0.000 A 
ATOM     20  C   UNL     1       5.655   3.910  14.772  0.00  0.00    +0.000 A 
ATOM     21  C   UNL     1       5.290   3.771  16.111  0.00  0.00    +0.000 A 
ATOM     22  C   UNL     1       5.803   4.633  17.107  0.00  0.00    +0.000 A 
BRANCH  17  24
ATOM     23  C   UNL     1       7.565   7.706  17.534  0.00  0.00    +0.000 C 
ATOM     24  O   UNL     1       7.357   6.315  17.737  0.00  0.00    +0.000 OA
ENDBRANCH  17  24
ENDBRANCH   1  22
TORSDOF 3
ENDMDL
MODEL 3
REMARK VINA RESULT:      -6.5      3.768      8.754
REMARK  Name = 
REMARK  5 active torsions:
REMARK  status: ('A' for Active; 'I' for Inactive)
REMARK    1  A    between atoms: C_1  and  O_2
REMARK    2  A    between atoms: O_2  and  C_3
REMARK    3  A    between atoms: C_8  and  C_9
REMARK    4  A    between atoms: N_11  and  C_12
REMARK    5  A    between atoms: N_11  and  C_13
REMARK                            x       y       z     vdW  Elec       q    Type
REMARK                         _______ _______ _______ _____ _____    ______ ____
ROOT
ATOM      1  C   UNL     1       0.507  12.528  19.956  0.00  0.00    +0.000 C 
ATOM      2  O   UNL     1       1.078  13.614  19.819  0.00  0.00    +0.000 OA
ATOM      3  N   UNL     1       0.953  11.378  19.262  0.00  0.00    +0.000 N 
ATOM      4  C   UNL     1       2.098  11.599  18.381  0.00  0.00    +0.000 C 
ENDROOT
BRANCH   3   5
ATOM      5  C   UNL     1       0.256  10.059  19.208  0.00  0.00    +0.000 C 
ATOM      6  C   UNL     1       0.199   9.230  20.511  0.00  0.00    +0.000 C 
ATOM      7  C   UNL     1       1.484   8.476  20.848  0.00  0.00    +0.000 C 
ATOM      8  N   UNL     1       2.116   7.887  19.669  0.00  0.00    +0.000 N 
ATOM      9  C   UNL     1       2.418   6.540  19.671  0.00  0.00    +0.000 A 
ATOM     10  C   UNL     1       3.472   6.047  18.903  0.00  0.00    +0.000 A 
ATOM     11  C   UNL     1       3.753   4.684  18.885  0.00  0.00    +0.000 A 
ATOM     12  C   UNL     1       2.976   3.830  19.643  0.00  0.00    +0.000 A 
ATOM     13  C   UNL     1       1.961   4.384  20.399  0.00  0.00    +0.000 A 
ATOM     14  N   UNL     1       1.679   5.706  20.431  0.00  0.00    +0.000 NA
ATOM     15  C   UNL     1       2.154   8.636  18.422  0.00  0.00    +0.000 C 
ATOM     16  C   UNL     1       0.767   9.153  18.090  0.00  0.00    +0.000 C 
ENDBRANCH   3   5
BRANCH   1  22
ATOM     17  C   UNL     1      -2.050  12.643  20.319  0.00  0.00    +0.000 A 
ATOM     18  C   UNL     1      -3.104  12.688  21.249  0.00  0.00    +0.000 A 
ATOM     19  C   UNL     1      -2.866  12.568  22.621  0.00  0.00    +0.000 A 
ATOM     20  C   UNL     1      -1.569  12.414  23.087  0.00  0.00    +0.000 A 
ATOM     21  C   UNL     1      -0.509  12.435  22.181  0.00  0.00    +0.000 A 
ATOM     22  C   UNL     1      -0.730  12.579  20.793  0.00  0.00    +0.000 A 
BRANCH  17  24
ATOM     23  C   UNL     1      -3.067  11.573  18.441  0.00  0.00    +0.000 C 
ATOM     24  O   UNL     1      -2.250  12.609  18.967  0.00  0.00    +0.000 OA
ENDBRANCH  17  24
ENDBRANCH   1  22
TORSDOF 3
ENDMDL
MODEL 4
REMARK VINA RESULT:      -6.5      1.086      1.969
REMARK  Name = 
REMARK  5 active torsions:
REMARK  status: ('A' for Active; 'I' for Inactive)
REMARK    1  A    between atoms: C_1  and  O_2
REMARK    2  A    between atoms: O_2  and  C_3
REMARK    3  A    between atoms: C_8  and  C_9
REMARK    4  A    between atoms: N_11  and  C_12
REMARK    5  A    between atoms: N_11  and  C_13
REMARK                            x       y       z     vdW  Elec       q    Type
REMARK                         _______ _______ _______ _____ _____    ______ ____
ROOT
ATOM      1  C   UNL     1       4.902   3.569  19.043  0.00  0.00    +0.000 C 
ATOM      2  O   UNL     1       5.480   2.598  19.540  0.00  0.00    +0.000 OA
ATOM      3  N   UNL     1       3.491   3.670  19.072  0.00  0.00    +0.000 N 
ATOM      4  C   UNL     1       2.807   2.542  19.703  0.00  0.00    +0.000 C 
ENDROOT
BRANCH   3   5
ATOM      5  C   UNL     1       2.668   4.696  18.365  0.00  0.00    +0.000 C 
ATOM      6  C   UNL     1       3.303   6.087  18.143  0.00  0.00    +0.000 C 
ATOM      7  C   UNL     1       3.291   7.000  19.367  0.00  0.00    +0.000 C 
ATOM      8  N   UNL     1       2.044   6.911  20.123  0.00  0.00    +0.000 N 
ATOM      9  C   UNL     1       1.342   8.068  20.401  0.00  0.00    +0.000 A 
ATOM     10  C   UNL     1       0.528   8.151  21.529  0.00  0.00    +0.000 A 
ATOM     11  C   UNL     1      -0.201   9.308  21.788  0.00  0.00    +0.000 A 
ATOM     12  C   UNL     1      -0.100  10.373  20.914  0.00  0.00    +0.000 A 
ATOM     13  C   UNL     1       0.741  10.235  19.827  0.00  0.00    +0.000 A 
ATOM     14  N   UNL     1       1.459   9.120  19.564  0.00  0.00    +0.000 NA
ATOM     15  C   UNL     1       1.411   5.615  20.319  0.00  0.00    +0.000 C 
ATOM     16  C   UNL     1       1.289   4.896  18.988  0.00  0.00    +0.000 C 
ENDBRANCH   3   5
BRANCH   1  22
ATOM     17  C   UNL     1       5.945   4.634  16.931  0.00  0.00    +0.000 A 
ATOM     18  C   UNL     1       6.841   5.587  16.416  0.00  0.00    +0.000 A 
ATOM     19  C   UNL     1       7.504   6.486  17.255  0.00  0.00    +0.000 A 
ATOM     20  C   UNL     1       7.293   6.438  18.625  0.00  0.00    +0.000 A 
ATOM     21  C   UNL     1       6.459   5.453  19.155  0.00  0.00    +0.000 A 
ATOM     22  C   UNL     1       5.799   4.522  18.322  0.00  0.00    +0.000 A 
BRANCH  17  24
ATOM     23  C   UNL     1       5.419   3.841  14.739  0.00  0.00    +0.000 C 
ATOM     24  O   UNL     1       5.167   3.836  16.138  0.00  0.00    +0.000 OA
ENDBRANCH  17  24
ENDBRANCH   1  22
TORSDOF 3
ENDMDL
MODEL 5
REMARK VINA RESULT:      -6.5      8.576      9.904
REMARK  Name = 
REMARK  5 active torsions:
REMARK  status: ('A' for Active; 'I' for Inactive)
REMARK    1  A    between atoms: C_1  and  O_2
REMARK    2  A    between atoms: O_2  and  C_3
REMARK    3  A    between atoms: C_8  and  C_9
REMARK    4  A    between atoms: N_11  and  C_12
REMARK    5  A    between atoms: N_11  and  C_13
REMARK                            x       y       z     vdW  Elec       q    Type
REMARK                         _______ _______ _______ _____ _____    ______ ____
ROOT
ATOM      1  C   UNL     1       9.650  14.158  21.454  0.00  0.00    +0.000 C 
ATOM      2  O   UNL     1      10.479  15.063  21.591  0.00  0.00    +0.000 OA
ATOM      3  N   UNL     1       8.635  13.948  22.417  0.00  0.00    +0.000 N 
ATOM      4  C   UNL     1       8.678  14.857  23.562  0.00  0.00    +0.000 C 
ENDROOT
BRANCH   3   5
ATOM      5  C   UNL     1       7.686  12.797  22.457  0.00  0.00    +0.000 C 
ATOM      6  C   UNL     1       6.233  13.088  22.898  0.00  0.00    +0.000 C 
ATOM      7  C   UNL     1       6.038  13.231  24.406  0.00  0.00    +0.000 C 
ATOM      8  N   UNL     1       6.822  12.263  25.170  0.00  0.00    +0.000 N 
ATOM      9  C   UNL     1       6.183  11.460  26.094  0.00  0.00    +0.000 A 
ATOM     10  C   UNL     1       6.870  10.969  27.202  0.00  0.00    +0.000 A 
ATOM     11  C   UNL     1       6.230  10.135  28.116  0.00  0.00    +0.000 A 
ATOM     12  C   UNL     1       4.904   9.809  27.909  0.00  0.00    +0.000 A 
ATOM     13  C   UNL     1       4.274  10.346  26.803  0.00  0.00    +0.000 A 
ATOM     14  N   UNL     1       4.880  11.161  25.910  0.00  0.00    +0.000 NA
ATOM     15  C   UNL     1       8.181  11.949  24.755  0.00  0.00    +0.000 C 
ATOM     16  C   UNL     1       8.204  11.616  23.274  0.00  0.00    +0.000 C 
ENDBRANCH   3   5
BRANCH   1  22
ATOM     17  C   UNL     1       9.179  13.263  19.076  0.00  0.00    +0.000 A 
ATOM     18  C   UNL     1       9.542  12.348  18.071  0.00  0.00    +0.000 A 
ATOM     19  C   UNL     1      10.660  11.522  18.212  0.00  0.00    +0.000 A 
ATOM     20  C   UNL     1      11.425  11.586  19.367  0.00  0.00    +0.000 A 
ATOM     21  C   UNL     1      11.037  12.440  20.399  0.00  0.00    +0.000 A 
ATOM     22  C   UNL     1       9.896  13.265  20.282  0.00  0.00    +0.000 A 
BRANCH  17  24
ATOM     23  C   UNL     1       8.482  15.364  18.177  0.00  0.00    +0.000 C 
ATOM     24  O   UNL     1       8.185  14.189  18.918  0.00  0.00    +0.000 OA
ENDBRANCH  17  24
ENDBRANCH   1  22
TORSDOF 3
ENDMDL
MODEL 6
REMARK VINA RESULT:      -6.4      4.401      9.039
REMARK  Name = 
REMARK  5 active torsions:
REMARK  status: ('A' for Active; 'I' for Inactive)
REMARK    1  A    between atoms: C_1  and  O_2
REMARK    2  A    between atoms: O_2  and  C_3
REMARK    3  A    between atoms: C_8  and  C_9
REMARK    4  A    between atoms: N_11  and  C_12
REMARK    5  A    between atoms: N_11  and  C_13
REMARK                            x       y       z     vdW  Elec       q    Type
REMARK                         _______ _______ _______ _____ _____    ______ ____
ROOT
ATOM      1  C   UNL     1      -1.310  12.562  19.362  0.00  0.00    +0.000 C 
ATOM      2  O   UNL     1      -0.962  13.745  19.282  0.00  0.00    +0.000 OA
ATOM      3  N   UNL     1      -0.368  11.544  19.640  0.00  0.00    +0.000 N 
ATOM      4  C   UNL     1       1.010  12.007  19.792  0.00  0.00    +0.000 C 
ENDROOT
BRANCH   3   5
ATOM      5  C   UNL     1      -0.625  10.074  19.595  0.00  0.00    +0.000 C 
ATOM      6  C   UNL     1      -0.018   9.211  20.724  0.00  0.00    +0.000 C 
ATOM      7  C   UNL     1       1.470   8.901  20.564  0.00  0.00    +0.000 C 
ATOM      8  N   UNL     1       1.838   8.607  19.181  0.00  0.00    +0.000 N 
ATOM      9  C   UNL     1       2.508   7.433  18.899  0.00  0.00    +0.000 A 
ATOM     10  C   UNL     1       3.358   7.347  17.799  0.00  0.00    +0.000 A 
ATOM     11  C   UNL     1       4.008   6.152  17.501  0.00  0.00    +0.000 A 
ATOM     12  C   UNL     1       3.800   5.056  18.316  0.00  0.00    +0.000 A 
ATOM     13  C   UNL     1       2.962   5.213  19.404  0.00  0.00    +0.000 A 
ATOM     14  N   UNL     1       2.329   6.368  19.709  0.00  0.00    +0.000 NA
ATOM     15  C   UNL     1       1.255   9.386  18.099  0.00  0.00    +0.000 C 
ATOM     16  C   UNL     1      -0.254   9.438  18.257  0.00  0.00    +0.000 C 
ENDBRANCH   3   5
BRANCH   1  22
ATOM     17  C   UNL     1      -3.230  11.790  17.813  0.00  0.00    +0.000 A 
ATOM     18  C   UNL     1      -4.617  11.622  17.655  0.00  0.00    +0.000 A 
ATOM     19  C   UNL     1      -5.501  11.868  18.708  0.00  0.00    +0.000 A 
ATOM     20  C   UNL     1      -5.015  12.300  19.933  0.00  0.00    +0.000 A 
ATOM     21  C   UNL     1      -3.649  12.536  20.082  0.00  0.00    +0.000 A 
ATOM     22  C   UNL     1      -2.743  12.314  19.021  0.00  0.00    +0.000 A 
BRANCH  17  24
ATOM     23  C   UNL     1      -2.813  10.838  15.662  0.00  0.00    +0.000 C 
ATOM     24  O   UNL     1      -2.321  11.421  16.860  0.00  0.00    +0.000 OA
ENDBRANCH  17  24
ENDBRANCH   1  22
TORSDOF 3
ENDMDL
MODEL 7
REMARK VINA RESULT:      -6.4      3.508      8.629
REMARK  Name = 
REMARK  5 active torsions:
REMARK  status: ('A' for Active; 'I' for Inactive)
REMARK    1  A    between atoms: C_1  and  O_2
REMARK    2  A    between atoms: O_2  and  C_3
REMARK    3  A    between atoms: C_8  and  C_9
REMARK    4  A    between atoms: N_11  and  C_12
REMARK    5  A    between atoms: N_11  and  C_13
REMARK                            x       y       z     vdW  Elec       q    Type
REMARK                         _______ _______ _______ _____ _____    ______ ____
ROOT
ATOM      1  C   UNL     1       0.416  12.528  20.199  0.00  0.00    +0.000 C 
ATOM      2  O   UNL     1       0.976  13.628  20.251  0.00  0.00    +0.000 OA
ATOM      3  N   UNL     1       0.939  11.481  19.404  0.00  0.00    +0.000 N 
ATOM      4  C   UNL     1       2.147  11.824  18.655  0.00  0.00    +0.000 C 
ENDROOT
BRANCH   3   5
ATOM      5  C   UNL     1       0.275  10.175  19.124  0.00  0.00    +0.000 C 
ATOM      6  C   UNL     1       0.346   9.090  20.222  0.00  0.00    +0.000 C 
ATOM      7  C   UNL     1       1.674   8.338  20.296  0.00  0.00    +0.000 C 
ATOM      8  N   UNL     1       2.222   8.036  18.975  0.00  0.00    +0.000 N 
ATOM      9  C   UNL     1       2.558   6.731  18.669  0.00  0.00    +0.000 A 
ATOM     10  C   UNL     1       3.558   6.455  17.739  0.00  0.00    +0.000 A 
ATOM     11  C   UNL     1       3.872   5.139  17.411  0.00  0.00    +0.000 A 
ATOM     12  C   UNL     1       3.181   4.113  18.027  0.00  0.00    +0.000 A 
ATOM     13  C   UNL     1       2.218   4.453  18.957  0.00  0.00    +0.000 A 
ATOM     14  N   UNL     1       1.905   5.726  19.289  0.00  0.00    +0.000 NA
ATOM     15  C   UNL     1       2.139   9.029  17.915  0.00  0.00    +0.000 C 
ATOM     16  C   UNL     1       0.715   9.545  17.804  0.00  0.00    +0.000 C 
ENDBRANCH   3   5
BRANCH   1  22
ATOM     17  C   UNL     1      -1.113  11.822  22.160  0.00  0.00    +0.000 A 
ATOM     18  C   UNL     1      -2.406  11.851  22.711  0.00  0.00    +0.000 A 
ATOM     19  C   UNL     1      -3.433  12.586  22.112  0.00  0.00    +0.000 A 
ATOM     20  C   UNL     1      -3.187  13.293  20.944  0.00  0.00    +0.000 A 
ATOM     21  C   UNL     1      -1.927  13.217  20.351  0.00  0.00    +0.000 A 
ATOM     22  C   UNL     1      -0.884  12.460  20.931  0.00  0.00    +0.000 A 
BRANCH  17  24
ATOM     23  C   UNL     1      -0.243   9.966  23.387  0.00  0.00    +0.000 C 
ATOM     24  O   UNL     1      -0.048  11.240  22.789  0.00  0.00    +0.000 OA
ENDBRANCH  17  24
ENDBRANCH   1  22
TORSDOF 3
ENDMDL
MODEL 8
REMARK VINA RESULT:      -6.4      1.762      3.963
REMARK  Name = 
REMARK  5 active torsions:
REMARK  status: ('A' for Active; 'I' for Inactive)
REMARK    1  A    between atoms: C_1  and  O_2
REMARK    2  A    between atoms: O_2  and  C_3
REMARK    3  A    between atoms: C_8  and  C_9
REMARK    4  A    between atoms: N_11  and  C_12
REMARK    5  A    between atoms: N_11  and  C_13
REMARK                            x       y       z     vdW  Elec       q    Type
REMARK                         _______ _______ _______ _____ _____    ______ ____
ROOT
ATOM      1  C   UNL     1       3.535   3.239  17.929  0.00  0.00    +0.000 C 
ATOM      2  O   UNL     1       3.509   2.294  17.135  0.00  0.00    +0.000 OA
ATOM      3  N   UNL     1       4.259   4.419  17.634  0.00  0.00    +0.000 N 
ATOM      4  C   UNL     1       4.969   4.400  16.356  0.00  0.00    +0.000 C 
ENDROOT
BRANCH   3   5
ATOM      5  C   UNL     1       4.508   5.554  18.570  0.00  0.00    +0.000 C 
ATOM      6  C   UNL     1       3.596   5.666  19.812  0.00  0.00    +0.000 C 
ATOM      7  C   UNL     1       2.215   6.263  19.542  0.00  0.00    +0.000 C 
ATOM      8  N   UNL     1       2.261   7.381  18.601  0.00  0.00    +0.000 N 
ATOM      9  C   UNL     1       1.694   8.587  18.964  0.00  0.00    +0.000 A 
ATOM     10  C   UNL     1       1.197   9.457  17.995  0.00  0.00    +0.000 A 
ATOM     11  C   UNL     1       0.653  10.685  18.363  0.00  0.00    +0.000 A 
ATOM     12  C   UNL     1       0.610  11.024  19.701  0.00  0.00    +0.000 A 
ATOM     13  C   UNL     1       1.099  10.108  20.613  0.00  0.00    +0.000 A 
ATOM     14  N   UNL     1       1.625   8.910  20.272  0.00  0.00    +0.000 NA
ATOM     15  C   UNL     1       3.137   7.312  17.441  0.00  0.00    +0.000 C 
ATOM     16  C   UNL     1       4.535   6.914  17.875  0.00  0.00    +0.000 C 
ENDBRANCH   3   5
BRANCH   1  22
ATOM     17  C   UNL     1       3.478   2.538  20.416  0.00  0.00    +0.000 A 
ATOM     18  C   UNL     1       2.688   2.329  21.560  0.00  0.00    +0.000 A 
ATOM     19  C   UNL     1       1.327   2.644  21.568  0.00  0.00    +0.000 A 
ATOM     20  C   UNL     1       0.729   3.159  20.428  0.00  0.00    +0.000 A 
ATOM     21  C   UNL     1       1.486   3.306  19.266  0.00  0.00    +0.000 A 
ATOM     22  C   UNL     1       2.858   2.971  19.233  0.00  0.00    +0.000 A 
BRANCH  17  24
ATOM     23  C   UNL     1       5.377   1.219  21.018  0.00  0.00    +0.000 C 
ATOM     24  O   UNL     1       4.837   2.383  20.409  0.00  0.00    +0.000 OA
ENDBRANCH  17  24
ENDBRANCH   1  22
TORSDOF 3
ENDMDL
MODEL 9
REMARK VINA RESULT:      -6.4      1.510      2.323
REMARK  Name = 
REMARK  5 active torsions:
REMARK  status: ('A' for Active; 'I' for Inactive)
REMARK    1  A    between atoms: C_1  and  O_2
REMARK    2  A    between atoms: O_2  and  C_3
REMARK    3  A    between atoms: C_8  and  C_9
REMARK    4  A    between atoms: N_11  and  C_12
REMARK    5  A    between atoms: N_11  and  C_13
REMARK                            x       y       z     vdW  Elec       q    Type
REMARK                         _______ _______ _______ _____ _____    ______ ____
ROOT
ATOM      1  C   UNL     1       3.547   4.121  17.309  0.00  0.00    +0.000 C 
ATOM      2  O   UNL     1       2.953   3.153  16.823  0.00  0.00    +0.000 OA
ATOM      3  N   UNL     1       2.940   4.923  18.305  0.00  0.00    +0.000 N 
ATOM      4  C   UNL     1       1.582   4.524  18.670  0.00  0.00    +0.000 C 
ENDROOT
BRANCH   3   5
ATOM      5  C   UNL     1       3.476   6.206  18.846  0.00  0.00    +0.000 C 
ATOM      6  C   UNL     1       2.985   6.648  20.244  0.00  0.00    +0.000 C 
ATOM      7  C   UNL     1       1.595   7.283  20.264  0.00  0.00    +0.000 C 
ATOM      8  N   UNL     1       1.365   8.170  19.126  0.00  0.00    +0.000 N 
ATOM      9  C   UNL     1       0.950   9.466  19.359  0.00  0.00    +0.000 A 
ATOM     10  C   UNL     1       0.192  10.150  18.409  0.00  0.00    +0.000 A 
ATOM     11  C   UNL     1      -0.199  11.467  18.635  0.00  0.00    +0.000 A 
ATOM     12  C   UNL     1       0.170  12.082  19.815  0.00  0.00    +0.000 A 
ATOM     13  C   UNL     1       0.902  11.343  20.724  0.00  0.00    +0.000 A 
ATOM     14  N   UNL     1       1.285  10.062  20.522  0.00  0.00    +0.000 NA
ATOM     15  C   UNL     1       1.846   7.790  17.806  0.00  0.00    +0.000 C 
ATOM     16  C   UNL     1       3.306   7.383  17.888  0.00  0.00    +0.000 C 
ENDBRANCH   3   5
BRANCH   1  22
ATOM     17  C   UNL     1       6.096   4.548  17.334  0.00  0.00    +0.000 A 
ATOM     18  C   UNL     1       7.246   4.840  16.579  0.00  0.00    +0.000 A 
ATOM     19  C   UNL     1       7.201   4.903  15.184  0.00  0.00    +0.000 A 
ATOM     20  C   UNL     1       6.002   4.690  14.521  0.00  0.00    +0.000 A 
ATOM     21  C   UNL     1       4.840   4.467  15.260  0.00  0.00    +0.000 A 
ATOM     22  C   UNL     1       4.864   4.423  16.673  0.00  0.00    +0.000 A 
BRANCH  17  24
ATOM     23  C   UNL     1       6.836   5.259  19.491  0.00  0.00    +0.000 C 
ATOM     24  O   UNL     1       6.125   4.332  18.684  0.00  0.00    +0.000 OA
ENDBRANCH  17  24
ENDBRANCH   1  22
TORSDOF 3
ENDMDL
