MODEL 1
REMARK VINA RESULT:      -5.6      0.000      0.000
REMARK  Name = 
REMARK  12 active torsions:
REMARK  status: ('A' for Active; 'I' for Inactive)
REMARK    1  A    between atoms: C_1  and  C_2
REMARK    2  A    between atoms: C_6  and  O_8
REMARK    3  A    between atoms: O_8  and  C_9
REMARK    4  A    between atoms: C_9  and  C_10
REMARK    5  A    between atoms: C_9  and  C_11
REMARK    6  A    between atoms: C_9  and  C_12
REMARK    7  A    between atoms: C_13  and  C_14
REMARK    8  A    between atoms: C_14  and  O_16
REMARK    9  A    between atoms: O_16  and  C_17
REMARK   10  A    between atoms: C_17  and  C_18
REMARK   11  A    between atoms: C_17  and  C_19
REMARK   12  A    between atoms: C_17  and  C_20
REMARK                            x       y       z     vdW  Elec       q    Type
REMARK                         _______ _______ _______ _____ _____    ______ ____
ROOT
ATOM      1  C   UNL     1       1.977   9.965  18.076  0.00  0.00    +0.000 C 
ATOM      2  C   UNL     1       2.610   8.705  17.577  0.00  0.00    +0.000 C 
ATOM      3  C   UNL     1       2.426   7.493  18.127  0.00  0.00    +0.000 C 
ATOM      4  C   UNL     1       1.606   7.013  19.298  0.00  0.00    +0.000 C 
ATOM      5  N   UNL     1       2.374   5.777  19.182  0.00  0.00    +0.000 N 
ATOM      6  C   UNL     1       2.776   5.007  20.230  0.00  0.00    +0.000 C 
ATOM      7  O   UNL     1       2.335   5.179  21.361  0.00  0.00    +0.000 OA
ATOM      8  C   UNL     1       2.977   6.086  17.882  0.00  0.00    +0.000 C 
ENDROOT
BRANCH   8   9
ATOM      9  C   UNL     1       4.549   6.087  17.758  0.00  0.00    +0.000 C 
ATOM     10  O   UNL     1       5.343   6.295  18.673  0.00  0.00    +0.000 OA
BRANCH   9  11
ATOM     11  O   UNL     1       4.930   5.859  16.459  0.00  0.00    +0.000 OA
BRANCH  11  12
ATOM     12  C   UNL     1       5.580   4.611  16.084  0.00  0.00    +0.000 C 
ATOM     13  C   UNL     1       4.826   3.405  16.650  0.00  0.00    +0.000 C 
ATOM     14  C   UNL     1       5.506   4.553  14.547  0.00  0.00    +0.000 C 
ATOM     15  C   UNL     1       7.062   4.617  16.482  0.00  0.00    +0.000 C 
ENDBRANCH  11  12
ENDBRANCH   9  11
ENDBRANCH   8   9
BRANCH   6  16
ATOM     16  O   UNL     1       3.650   4.024  19.879  0.00  0.00    +0.000 OA
BRANCH  16  17
ATOM     17  C   UNL     1       3.288   2.637  20.153  0.00  0.00    +0.000 C 
ATOM     18  C   UNL     1       2.579   2.486  21.509  0.00  0.00    +0.000 C 
ATOM     19  C   UNL     1       2.291   2.228  19.057  0.00  0.00    +0.000 C 
ATOM     20  C   UNL     1       4.511   1.712  20.048  0.00  0.00    +0.000 C 
ENDBRANCH  16  17
ENDBRANCH   6  16
TORSDOF 5
ENDMDL
MODEL 2
REMARK VINA RESULT:      -5.5      2.310      3.944
REMARK  Name = 
REMARK  12 active torsions:
REMARK  status: ('A' for Active; 'I' for Inactive)
REMARK    1  A    between atoms: C_1  and  C_2
REMARK    2  A    between atoms: C_6  and  O_8
REMARK    3  A    between atoms: O_8  and  C_9
REMARK    4  A    between atoms: C_9  and  C_10
REMARK    5  A    between atoms: C_9  and  C_11
REMARK    6  A    between atoms: C_9  and  C_12
REMARK    7  A    between atoms: C_13  and  C_14
REMARK    8  A    between atoms: C_14  and  O_16
REMARK    9  A    between atoms: O_16  and  C_17
REMARK   10  A    between atoms: C_17  and  C_18
REMARK   11  A    between atoms: C_17  and  C_19
REMARK   12  A    between atoms: C_17  and  C_20
REMARK                            x       y       z     vdW  Elec       q    Type
REMARK                         _______ _______ _______ _____ _____    ______ ____
ROOT
ATOM      1  C   UNL     1       5.863   4.064  13.582  0.00  0.00    +0.000 C 
ATOM      2  C   UNL     1       5.999   4.310  15.051  0.00  0.00    +0.000 C 
ATOM      3  C   UNL     1       5.087   3.949  15.969  0.00  0.00    +0.000 C 
ATOM      4  C   UNL     1       3.761   3.239  15.871  0.00  0.00    +0.000 C 
ATOM      5  N   UNL     1       3.553   3.680  17.247  0.00  0.00    +0.000 N 
ATOM      6  C   UNL     1       2.356   4.061  17.771  0.00  0.00    +0.000 C 
ATOM      7  O   UNL     1       1.300   3.856  17.182  0.00  0.00    +0.000 OA
ATOM      8  C   UNL     1       4.930   4.123  17.482  0.00  0.00    +0.000 C 
ENDROOT
BRANCH   8   9
ATOM      9  C   UNL     1       5.180   5.615  17.927  0.00  0.00    +0.000 C 
ATOM     10  O   UNL     1       4.711   6.616  17.389  0.00  0.00    +0.000 OA
BRANCH   9  11
ATOM     11  O   UNL     1       6.042   5.660  18.995  0.00  0.00    +0.000 OA
BRANCH  11  12
ATOM     12  C   UNL     1       7.483   5.691  18.784  0.00  0.00    +0.000 C 
ATOM     13  C   UNL     1       7.928   4.559  17.855  0.00  0.00    +0.000 C 
ATOM     14  C   UNL     1       7.768   7.033  18.086  0.00  0.00    +0.000 C 
ATOM     15  C   UNL     1       8.239   5.687  20.119  0.00  0.00    +0.000 C 
ENDBRANCH  11  12
ENDBRANCH   9  11
ENDBRANCH   8   9
BRANCH   6  16
ATOM     16  O   UNL     1       2.457   4.624  19.007  0.00  0.00    +0.000 OA
BRANCH  16  17
ATOM     17  C   UNL     1       2.129   3.813  20.175  0.00  0.00    +0.000 C 
ATOM     18  C   UNL     1       0.759   3.129  20.031  0.00  0.00    +0.000 C 
ATOM     19  C   UNL     1       3.196   2.709  20.245  0.00  0.00    +0.000 C 
ATOM     20  C   UNL     1       2.216   4.638  21.468  0.00  0.00    +0.000 C 
ENDBRANCH  16  17
ENDBRANCH   6  16
TORSDOF 5
ENDMDL
MODEL 3
REMARK VINA RESULT:      -5.4      1.686      2.293
REMARK  Name = 
REMARK  12 active torsions:
REMARK  status: ('A' for Active; 'I' for Inactive)
REMARK    1  A    between atoms: C_1  and  C_2
REMARK    2  A    between atoms: C_6  and  O_8
REMARK    3  A    between atoms: O_8  and  C_9
REMARK    4  A    between atoms: C_9  and  C_10
REMARK    5  A    between atoms: C_9  and  C_11
REMARK    6  A    between atoms: C_9  and  C_12
REMARK    7  A    between atoms: C_13  and  C_14
REMARK    8  A    between atoms: C_14  and  O_16
REMARK    9  A    between atoms: O_16  and  C_17
REMARK   10  A    between atoms: C_17  and  C_18
REMARK   11  A    between atoms: C_17  and  C_19
REMARK   12  A    between atoms: C_17  and  C_20
REMARK                            x       y       z     vdW  Elec       q    Type
REMARK                         _______ _______ _______ _____ _____    ______ ____
ROOT
ATOM      1  C   UNL     1       1.262   8.549  21.371  0.00  0.00    +0.000 C 
ATOM      2  C   UNL     1       1.971   7.848  20.256  0.00  0.00    +0.000 C 
ATOM      3  C   UNL     1       1.966   6.518  20.070  0.00  0.00    +0.000 C 
ATOM      4  C   UNL     1       1.313   5.382  20.816  0.00  0.00    +0.000 C 
ATOM      5  N   UNL     1       2.189   4.516  20.033  0.00  0.00    +0.000 N 
ATOM      6  C   UNL     1       2.764   3.370  20.491  0.00  0.00    +0.000 C 
ATOM      7  O   UNL     1       2.416   2.852  21.546  0.00  0.00    +0.000 OA
ATOM      8  C   UNL     1       2.632   5.548  19.091  0.00  0.00    +0.000 C 
ENDROOT
BRANCH   8   9
ATOM      9  C   UNL     1       4.178   5.829  18.951  0.00  0.00    +0.000 C 
ATOM     10  O   UNL     1       5.019   5.690  19.836  0.00  0.00    +0.000 OA
BRANCH   9  11
ATOM     11  O   UNL     1       4.468   6.301  17.694  0.00  0.00    +0.000 OA
BRANCH  11  12
ATOM     12  C   UNL     1       5.726   5.956  17.045  0.00  0.00    +0.000 C 
ATOM     13  C   UNL     1       6.235   4.593  17.520  0.00  0.00    +0.000 C 
ATOM     14  C   UNL     1       5.401   5.858  15.544  0.00  0.00    +0.000 C 
ATOM     15  C   UNL     1       6.768   7.068  17.228  0.00  0.00    +0.000 C 
ENDBRANCH  11  12
ENDBRANCH   9  11
ENDBRANCH   8   9
BRANCH   6  16
ATOM     16  O   UNL     1       3.698   2.855  19.645  0.00  0.00    +0.000 OA
BRANCH  16  17
ATOM     17  C   UNL     1       3.248   2.053  18.511  0.00  0.00    +0.000 C 
ATOM     18  C   UNL     1       3.547   2.740  17.168  0.00  0.00    +0.000 C 
ATOM     19  C   UNL     1       4.058   0.748  18.558  0.00  0.00    +0.000 C 
ATOM     20  C   UNL     1       1.760   1.692  18.641  0.00  0.00    +0.000 C 
ENDBRANCH  16  17
ENDBRANCH   6  16
TORSDOF 5
ENDMDL
MODEL 4
REMARK VINA RESULT:      -5.4      0.239      1.426
REMARK  Name = 
REMARK  12 active torsions:
REMARK  status: ('A' for Active; 'I' for Inactive)
REMARK    1  A    between atoms: C_1  and  C_2
REMARK    2  A    between atoms: C_6  and  O_8
REMARK    3  A    between atoms: O_8  and  C_9
REMARK    4  A    between atoms: C_9  and  C_10
REMARK    5  A    between atoms: C_9  and  C_11
REMARK    6  A    between atoms: C_9  and  C_12
REMARK    7  A    between atoms: C_13  and  C_14
REMARK    8  A    between atoms: C_14  and  O_16
REMARK    9  A    between atoms: O_16  and  C_17
REMARK   10  A    between atoms: C_17  and  C_18
REMARK   11  A    between atoms: C_17  and  C_19
REMARK   12  A    between atoms: C_17  and  C_20
REMARK                            x       y       z     vdW  Elec       q    Type
REMARK                         _______ _______ _______ _____ _____    ______ ____
ROOT
ATOM      1  C   UNL     1       2.096  10.026  18.105  0.00  0.00    +0.000 C 
ATOM      2  C   UNL     1       2.670   8.739  17.602  0.00  0.00    +0.000 C 
ATOM      3  C   UNL     1       2.446   7.539  18.160  0.00  0.00    +0.000 C 
ATOM      4  C   UNL     1       1.625   7.097  19.345  0.00  0.00    +0.000 C 
ATOM      5  N   UNL     1       2.340   5.830  19.223  0.00  0.00    +0.000 N 
ATOM      6  C   UNL     1       2.727   5.048  20.268  0.00  0.00    +0.000 C 
ATOM      7  O   UNL     1       2.311   5.242  21.405  0.00  0.00    +0.000 OA
ATOM      8  C   UNL     1       2.935   6.109  17.912  0.00  0.00    +0.000 C 
ENDROOT
BRANCH   8   9
ATOM      9  C   UNL     1       4.504   6.046  17.766  0.00  0.00    +0.000 C 
ATOM     10  O   UNL     1       5.319   6.171  18.677  0.00  0.00    +0.000 OA
BRANCH   9  11
ATOM     11  O   UNL     1       4.858   5.869  16.450  0.00  0.00    +0.000 OA
BRANCH  11  12
ATOM     12  C   UNL     1       5.602   4.688  16.034  0.00  0.00    +0.000 C 
ATOM     13  C   UNL     1       7.016   4.694  16.620  0.00  0.00    +0.000 C 
ATOM     14  C   UNL     1       4.836   3.490  16.625  0.00  0.00    +0.000 C 
ATOM     15  C   UNL     1       5.599   4.540  14.507  0.00  0.00    +0.000 C 
ENDBRANCH  11  12
ENDBRANCH   9  11
ENDBRANCH   8   9
BRANCH   6  16
ATOM     16  O   UNL     1       3.555   4.029  19.908  0.00  0.00    +0.000 OA
BRANCH  16  17
ATOM     17  C   UNL     1       3.050   2.661  19.976  0.00  0.00    +0.000 C 
ATOM     18  C   UNL     1       4.103   1.638  19.516  0.00  0.00    +0.000 C 
ATOM     19  C   UNL     1       2.751   2.386  21.458  0.00  0.00    +0.000 C 
ATOM     20  C   UNL     1       1.737   2.513  19.192  0.00  0.00    +0.000 C 
ENDBRANCH  16  17
ENDBRANCH   6  16
TORSDOF 5
ENDMDL
MODEL 5
REMARK VINA RESULT:      -5.3      1.615      2.092
REMARK  Name = 
REMARK  12 active torsions:
REMARK  status: ('A' for Active; 'I' for Inactive)
REMARK    1  A    between atoms: C_1  and  C_2
REMARK    2  A    between atoms: C_6  and  O_8
REMARK    3  A    between atoms: O_8  and  C_9
REMARK    4  A    between atoms: C_9  and  C_10
REMARK    5  A    between atoms: C_9  and  C_11
REMARK    6  A    between atoms: C_9  and  C_12
REMARK    7  A    between atoms: C_13  and  C_14
REMARK    8  A    between atoms: C_14  and  O_16
REMARK    9  A    between atoms: O_16  and  C_17
REMARK   10  A    between atoms: C_17  and  C_18
REMARK   11  A    between atoms: C_17  and  C_19
REMARK   12  A    between atoms: C_17  and  C_20
REMARK                            x       y       z     vdW  Elec       q    Type
REMARK                         _______ _______ _______ _____ _____    ______ ____
ROOT
ATOM      1  C   UNL     1       1.305   8.897  21.251  0.00  0.00    +0.000 C 
ATOM      2  C   UNL     1       1.960   8.137  20.140  0.00  0.00    +0.000 C 
ATOM      3  C   UNL     1       1.904   6.803  19.997  0.00  0.00    +0.000 C 
ATOM      4  C   UNL     1       1.233   5.714  20.796  0.00  0.00    +0.000 C 
ATOM      5  N   UNL     1       2.058   4.794  20.019  0.00  0.00    +0.000 N 
ATOM      6  C   UNL     1       2.606   3.644  20.497  0.00  0.00    +0.000 C 
ATOM      7  O   UNL     1       2.270   3.171  21.577  0.00  0.00    +0.000 OA
ATOM      8  C   UNL     1       2.510   5.780  19.033  0.00  0.00    +0.000 C 
ENDROOT
BRANCH   8   9
ATOM      9  C   UNL     1       4.060   6.003  18.843  0.00  0.00    +0.000 C 
ATOM     10  O   UNL     1       4.919   5.866  19.710  0.00  0.00    +0.000 OA
BRANCH   9  11
ATOM     11  O   UNL     1       4.332   6.422  17.563  0.00  0.00    +0.000 OA
BRANCH  11  12
ATOM     12  C   UNL     1       5.516   5.943  16.863  0.00  0.00    +0.000 C 
ATOM     13  C   UNL     1       5.301   5.953  15.347  0.00  0.00    +0.000 C 
ATOM     14  C   UNL     1       6.630   6.950  17.201  0.00  0.00    +0.000 C 
ATOM     15  C   UNL     1       5.952   4.568  17.386  0.00  0.00    +0.000 C 
ENDBRANCH  11  12
ENDBRANCH   9  11
ENDBRANCH   8   9
BRANCH   6  16
ATOM     16  O   UNL     1       3.498   3.070  19.643  0.00  0.00    +0.000 OA
BRANCH  16  17
ATOM     17  C   UNL     1       3.005   2.122  18.649  0.00  0.00    +0.000 C 
ATOM     18  C   UNL     1       1.564   1.676  18.949  0.00  0.00    +0.000 C 
ATOM     19  C   UNL     1       2.991   2.873  17.309  0.00  0.00    +0.000 C 
ATOM     20  C   UNL     1       3.951   0.920  18.509  0.00  0.00    +0.000 C 
ENDBRANCH  16  17
ENDBRANCH   6  16
TORSDOF 5
ENDMDL
MODEL 6
REMARK VINA RESULT:      -5.3      0.671      1.239
REMARK  Name = 
REMARK  12 active torsions:
REMARK  status: ('A' for Active; 'I' for Inactive)
REMARK    1  A    between atoms: C_1  and  C_2
REMARK    2  A    between atoms: C_6  and  O_8
REMARK    3  A    between atoms: O_8  and  C_9
REMARK    4  A    between atoms: C_9  and  C_10
REMARK    5  A    between atoms: C_9  and  C_11
REMARK    6  A    between atoms: C_9  and  C_12
REMARK    7  A    between atoms: C_13  and  C_14
REMARK    8  A    between atoms: C_14  and  O_16
REMARK    9  A    between atoms: O_16  and  C_17
REMARK   10  A    between atoms: C_17  and  C_18
REMARK   11  A    between atoms: C_17  and  C_19
REMARK   12  A    between atoms: C_17  and  C_20
REMARK                            x       y       z     vdW  Elec       q    Type
REMARK                         _______ _______ _______ _____ _____    ______ ____
ROOT
ATOM      1  C   UNL     1       2.116   9.856  18.014  0.00  0.00    +0.000 C 
ATOM      2  C   UNL     1       2.637   8.536  17.542  0.00  0.00    +0.000 C 
ATOM      3  C   UNL     1       2.400   7.363  18.153  0.00  0.00    +0.000 C 
ATOM      4  C   UNL     1       1.608   6.990  19.380  0.00  0.00    +0.000 C 
ATOM      5  N   UNL     1       2.285   5.700  19.284  0.00  0.00    +0.000 N 
ATOM      6  C   UNL     1       2.685   4.948  20.346  0.00  0.00    +0.000 C 
ATOM      7  O   UNL     1       2.313   5.196  21.487  0.00  0.00    +0.000 OA
ATOM      8  C   UNL     1       2.843   5.912  17.945  0.00  0.00    +0.000 C 
ENDROOT
BRANCH   8   9
ATOM      9  C   UNL     1       4.403   5.800  17.750  0.00  0.00    +0.000 C 
ATOM     10  O   UNL     1       5.254   6.443  18.360  0.00  0.00    +0.000 OA
BRANCH   9  11
ATOM     11  O   UNL     1       4.700   4.898  16.757  0.00  0.00    +0.000 OA
BRANCH  11  12
ATOM     12  C   UNL     1       5.608   5.257  15.676  0.00  0.00    +0.000 C 
ATOM     13  C   UNL     1       5.422   4.332  14.471  0.00  0.00    +0.000 C 
ATOM     14  C   UNL     1       5.208   6.684  15.260  0.00  0.00    +0.000 C 
ATOM     15  C   UNL     1       7.062   5.301  16.164  0.00  0.00    +0.000 C 
ENDBRANCH  11  12
ENDBRANCH   9  11
ENDBRANCH   8   9
BRANCH   6  16
ATOM     16  O   UNL     1       3.473   3.893  19.999  0.00  0.00    +0.000 OA
BRANCH  16  17
ATOM     17  C   UNL     1       2.900   2.551  20.035  0.00  0.00    +0.000 C 
ATOM     18  C   UNL     1       1.730   2.400  19.049  0.00  0.00    +0.000 C 
ATOM     19  C   UNL     1       4.015   1.595  19.584  0.00  0.00    +0.000 C 
ATOM     20  C   UNL     1       2.490   2.159  21.463  0.00  0.00    +0.000 C 
ENDBRANCH  16  17
ENDBRANCH   6  16
TORSDOF 5
ENDMDL
MODEL 7
REMARK VINA RESULT:      -5.2      1.844      4.590
REMARK  Name = 
REMARK  12 active torsions:
REMARK  status: ('A' for Active; 'I' for Inactive)
REMARK    1  A    between atoms: C_1  and  C_2
REMARK    2  A    between atoms: C_6  and  O_8
REMARK    3  A    between atoms: O_8  and  C_9
REMARK    4  A    between atoms: C_9  and  C_10
REMARK    5  A    between atoms: C_9  and  C_11
REMARK    6  A    between atoms: C_9  and  C_12
REMARK    7  A    between atoms: C_13  and  C_14
REMARK    8  A    between atoms: C_14  and  O_16
REMARK    9  A    between atoms: O_16  and  C_17
REMARK   10  A    between atoms: C_17  and  C_18
REMARK   11  A    between atoms: C_17  and  C_19
REMARK   12  A    between atoms: C_17  and  C_20
REMARK                            x       y       z     vdW  Elec       q    Type
REMARK                         _______ _______ _______ _____ _____    ______ ____
ROOT
ATOM      1  C   UNL     1       0.629   7.020  20.658  0.00  0.00    +0.000 C 
ATOM      2  C   UNL     1       1.863   6.175  20.698  0.00  0.00    +0.000 C 
ATOM      3  C   UNL     1       2.897   6.300  19.850  0.00  0.00    +0.000 C 
ATOM      4  C   UNL     1       3.168   7.231  18.696  0.00  0.00    +0.000 C 
ATOM      5  N   UNL     1       4.257   6.317  18.363  0.00  0.00    +0.000 N 
ATOM      6  C   UNL     1       4.647   5.997  17.099  0.00  0.00    +0.000 C 
ATOM      7  O   UNL     1       4.250   6.625  16.123  0.00  0.00    +0.000 OA
ATOM      8  C   UNL     1       4.216   5.559  19.617  0.00  0.00    +0.000 C 
ENDROOT
BRANCH   8   9
ATOM      9  C   UNL     1       4.005   3.998  19.550  0.00  0.00    +0.000 C 
ATOM     10  O   UNL     1       4.895   3.152  19.480  0.00  0.00    +0.000 OA
BRANCH   9  11
ATOM     11  O   UNL     1       2.666   3.693  19.537  0.00  0.00    +0.000 OA
BRANCH  11  12
ATOM     12  C   UNL     1       2.046   3.123  18.348  0.00  0.00    +0.000 C 
ATOM     13  C   UNL     1       3.028   2.223  17.593  0.00  0.00    +0.000 C 
ATOM     14  C   UNL     1       0.887   2.252  18.865  0.00  0.00    +0.000 C 
ATOM     15  C   UNL     1       1.449   4.219  17.455  0.00  0.00    +0.000 C 
ENDBRANCH  11  12
ENDBRANCH   9  11
ENDBRANCH   8   9
BRANCH   6  16
ATOM     16  O   UNL     1       5.541   4.971  17.049  0.00  0.00    +0.000 OA
BRANCH  16  17
ATOM     17  C   UNL     1       6.932   5.271  16.725  0.00  0.00    +0.000 C 
ATOM     18  C   UNL     1       7.298   6.726  17.062  0.00  0.00    +0.000 C 
ATOM     19  C   UNL     1       7.787   4.357  17.617  0.00  0.00    +0.000 C 
ATOM     20  C   UNL     1       7.248   4.933  15.261  0.00  0.00    +0.000 C 
ENDBRANCH  16  17
ENDBRANCH   6  16
TORSDOF 5
ENDMDL
MODEL 8
REMARK VINA RESULT:      -5.1      1.536      4.353
REMARK  Name = 
REMARK  12 active torsions:
REMARK  status: ('A' for Active; 'I' for Inactive)
REMARK    1  A    between atoms: C_1  and  C_2
REMARK    2  A    between atoms: C_6  and  O_8
REMARK    3  A    between atoms: O_8  and  C_9
REMARK    4  A    between atoms: C_9  and  C_10
REMARK    5  A    between atoms: C_9  and  C_11
REMARK    6  A    between atoms: C_9  and  C_12
REMARK    7  A    between atoms: C_13  and  C_14
REMARK    8  A    between atoms: C_14  and  O_16
REMARK    9  A    between atoms: O_16  and  C_17
REMARK   10  A    between atoms: C_17  and  C_18
REMARK   11  A    between atoms: C_17  and  C_19
REMARK   12  A    between atoms: C_17  and  C_20
REMARK                            x       y       z     vdW  Elec       q    Type
REMARK                         _______ _______ _______ _____ _____    ______ ____
ROOT
ATOM      1  C   UNL     1       0.617   9.447  18.752  0.00  0.00    +0.000 C 
ATOM      2  C   UNL     1       1.367   8.204  19.111  0.00  0.00    +0.000 C 
ATOM      3  C   UNL     1       2.541   7.842  18.567  0.00  0.00    +0.000 C 
ATOM      4  C   UNL     1       3.431   8.481  17.532  0.00  0.00    +0.000 C 
ATOM      5  N   UNL     1       4.117   7.193  17.492  0.00  0.00    +0.000 N 
ATOM      6  C   UNL     1       4.647   6.626  16.373  0.00  0.00    +0.000 C 
ATOM      7  O   UNL     1       4.782   7.260  15.332  0.00  0.00    +0.000 OA
ATOM      8  C   UNL     1       3.474   6.634  18.685  0.00  0.00    +0.000 C 
ENDROOT
BRANCH   8   9
ATOM      9  C   UNL     1       2.689   5.273  18.553  0.00  0.00    +0.000 C 
ATOM     10  O   UNL     1       1.836   5.012  17.707  0.00  0.00    +0.000 OA
BRANCH   9  11
ATOM     11  O   UNL     1       3.056   4.407  19.554  0.00  0.00    +0.000 OA
BRANCH  11  12
ATOM     12  C   UNL     1       3.074   2.969  19.320  0.00  0.00    +0.000 C 
ATOM     13  C   UNL     1       4.130   2.283  20.190  0.00  0.00    +0.000 C 
ATOM     14  C   UNL     1       1.686   2.464  19.753  0.00  0.00    +0.000 C 
ATOM     15  C   UNL     1       3.245   2.651  17.829  0.00  0.00    +0.000 C 
ENDBRANCH  11  12
ENDBRANCH   9  11
ENDBRANCH   8   9
BRANCH   6  16
ATOM     16  O   UNL     1       5.047   5.337  16.554  0.00  0.00    +0.000 OA
BRANCH  16  17
ATOM     17  C   UNL     1       6.450   5.077  16.860  0.00  0.00    +0.000 C 
ATOM     18  C   UNL     1       7.249   6.379  17.036  0.00  0.00    +0.000 C 
ATOM     19  C   UNL     1       6.465   4.335  18.206  0.00  0.00    +0.000 C 
ATOM     20  C   UNL     1       7.088   4.159  15.807  0.00  0.00    +0.000 C 
ENDBRANCH  16  17
ENDBRANCH   6  16
TORSDOF 5
ENDMDL
MODEL 9
REMARK VINA RESULT:      -5.1      1.639      4.482
REMARK  Name = 
REMARK  12 active torsions:
REMARK  status: ('A' for Active; 'I' for Inactive)
REMARK    1  A    between atoms: C_1  and  C_2
REMARK    2  A    between atoms: C_6  and  O_8
REMARK    3  A    between atoms: O_8  and  C_9
REMARK    4  A    between atoms: C_9  and  C_10
REMARK    5  A    between atoms: C_9  and  C_11
REMARK    6  A    between atoms: C_9  and  C_12
REMARK    7  A    between atoms: C_13  and  C_14
REMARK    8  A    between atoms: C_14  and  O_16
REMARK    9  A    between atoms: O_16  and  C_17
REMARK   10  A    between atoms: C_17  and  C_18
REMARK   11  A    between atoms: C_17  and  C_19
REMARK   12  A    between atoms: C_17  and  C_20
REMARK                            x       y       z     vdW  Elec       q    Type
REMARK                         _______ _______ _______ _____ _____    ______ ____
ROOT
ATOM      1  C   UNL     1       0.311   9.620  18.102  0.00  0.00    +0.000 C 
ATOM      2  C   UNL     1       1.052   8.478  18.723  0.00  0.00    +0.000 C 
ATOM      3  C   UNL     1       2.300   8.111  18.388  0.00  0.00    +0.000 C 
ATOM      4  C   UNL     1       3.296   8.654  17.395  0.00  0.00    +0.000 C 
ATOM      5  N   UNL     1       4.028   7.412  17.622  0.00  0.00    +0.000 N 
ATOM      6  C   UNL     1       4.722   6.731  16.669  0.00  0.00    +0.000 C 
ATOM      7  O   UNL     1       4.972   7.227  15.576  0.00  0.00    +0.000 OA
ATOM      8  C   UNL     1       3.253   6.982  18.790  0.00  0.00    +0.000 C 
ENDROOT
BRANCH   8   9
ATOM      9  C   UNL     1       2.542   5.575  18.750  0.00  0.00    +0.000 C 
ATOM     10  O   UNL     1       2.203   4.967  17.737  0.00  0.00    +0.000 OA
BRANCH   9  11
ATOM     11  O   UNL     1       2.306   5.119  20.024  0.00  0.00    +0.000 OA
BRANCH  11  12
ATOM     12  C   UNL     1       2.110   3.698  20.279  0.00  0.00    +0.000 C 
ATOM     13  C   UNL     1       0.800   3.204  19.659  0.00  0.00    +0.000 C 
ATOM     14  C   UNL     1       3.279   2.988  19.574  0.00  0.00    +0.000 C 
ATOM     15  C   UNL     1       2.205   3.385  21.778  0.00  0.00    +0.000 C 
ENDBRANCH  11  12
ENDBRANCH   9  11
ENDBRANCH   8   9
BRANCH   6  16
ATOM     16  O   UNL     1       5.141   5.501  17.077  0.00  0.00    +0.000 OA
BRANCH  16  17
ATOM     17  C   UNL     1       6.443   5.386  17.728  0.00  0.00    +0.000 C 
ATOM     18  C   UNL     1       6.319   4.858  19.167  0.00  0.00    +0.000 C 
ATOM     19  C   UNL     1       7.238   4.350  16.918  0.00  0.00    +0.000 C 
ATOM     20  C   UNL     1       7.209   6.716  17.677  0.00  0.00    +0.000 C 
ENDBRANCH  16  17
ENDBRANCH   6  16
TORSDOF 5
ENDMDL
