MODEL 1
REMARK VINA RESULT:      -7.6      0.000      0.000
REMARK  Name = 
REMARK  10 active torsions:
REMARK  status: ('A' for Active; 'I' for Inactive)
REMARK    1  A    between atoms: C_1  and  O_2
REMARK    2  A    between atoms: O_2  and  C_3
REMARK    3  A    between atoms: C_7  and  O_8
REMARK    4  A    between atoms: O_8  and  C_9
REMARK    5  A    between atoms: C_10  and  O_11
REMARK    6  A    between atoms: O_11  and  C_12
REMARK    7  A    between atoms: C_14  and  N_15
REMARK    8  A    between atoms: N_15  and  C_16
REMARK    9  A    between atoms: C_19  and  C_20
REMARK   10  A    between atoms: C_26  and  N_27
REMARK                            x       y       z     vdW  Elec       q    Type
REMARK                         _______ _______ _______ _____ _____    ______ ____
ROOT
ATOM      1  C   UNL     1       3.822   4.894  19.702  0.00  0.00    +0.000 A 
ATOM      2  C   UNL     1       3.445   6.227  19.523  0.00  0.00    +0.000 A 
ATOM      3  C   UNL     1       2.201   6.671  19.982  0.00  0.00    +0.000 A 
ATOM      4  N   UNL     1       1.350   5.844  20.630  0.00  0.00    +0.000 NA
ATOM      5  C   UNL     1       1.740   4.570  20.853  0.00  0.00    +0.000 A 
ATOM      6  C   UNL     1       2.952   4.074  20.416  0.00  0.00    +0.000 A 
ENDROOT
BRANCH   6   7
ATOM      7  N   UNL     1       3.298   2.725  20.791  0.00  0.00    +0.000 N 
ATOM      8  O   UNL     1       3.881   2.020  19.960  0.00  0.00    +0.000 OA
ATOM      9  O   UNL     1       2.956   2.359  21.925  0.00  0.00    +0.000 OA
ENDBRANCH   6   7
BRANCH   3  10
ATOM     10  N   UNL     1       1.849   8.014  19.723  0.00  0.00    +0.000 N 
ATOM     11  H   UNL     1       2.592   8.481  19.216  0.00  0.00    +0.000 HD
BRANCH  10  12
ATOM     12  C   UNL     1       1.095   8.902  20.518  0.00  0.00    +0.000 A 
ATOM     13  C   UNL     1       1.045   8.813  21.915  0.00  0.00    +0.000 A 
ATOM     14  C   UNL     1       0.224   9.661  22.667  0.00  0.00    +0.000 A 
ATOM     15  C   UNL     1      -0.575  10.603  22.021  0.00  0.00    +0.000 A 
ATOM     16  C   UNL     1      -0.562  10.687  20.629  0.00  0.00    +0.000 A 
ATOM     17  C   UNL     1       0.263   9.837  19.887  0.00  0.00    +0.000 A 
BRANCH  15  18
ATOM     18  C   UNL     1      -1.426  11.460  22.786  0.00  0.00    +0.000 C 
ATOM     19  N   UNL     1      -2.120  12.156  23.405  0.00  0.00    +0.000 NA
ENDBRANCH  15  18
ENDBRANCH  10  12
ENDBRANCH   3  10
BRANCH   1  20
ATOM     20  O   UNL     1       5.017   4.356  19.282  0.00  0.00    +0.000 OA
BRANCH  20  26
ATOM     21  C   UNL     1       6.494   5.516  17.710  0.00  0.00    +0.000 A 
ATOM     22  C   UNL     1       6.905   5.713  16.383  0.00  0.00    +0.000 A 
ATOM     23  C   UNL     1       6.288   5.031  15.343  0.00  0.00    +0.000 A 
ATOM     24  C   UNL     1       5.277   4.122  15.626  0.00  0.00    +0.000 A 
ATOM     25  C   UNL     1       4.882   3.857  16.947  0.00  0.00    +0.000 A 
ATOM     26  C   UNL     1       5.511   4.540  18.008  0.00  0.00    +0.000 A 
BRANCH  21  28
ATOM     27  C   UNL     1       8.139   5.600  19.411  0.00  0.00    +0.000 C 
ATOM     28  O   UNL     1       7.045   6.231  18.746  0.00  0.00    +0.000 OA
ENDBRANCH  21  28
BRANCH  25  29
ATOM     29  O   UNL     1       3.876   2.932  16.982  0.00  0.00    +0.000 OA
ATOM     30  C   UNL     1       2.522   3.345  16.938  0.00  0.00    +0.000 C 
ENDBRANCH  25  29
ENDBRANCH  20  26
ENDBRANCH   1  20
TORSDOF 8
ENDMDL
MODEL 2
REMARK VINA RESULT:      -7.6      1.824      2.445
REMARK  Name = 
REMARK  10 active torsions:
REMARK  status: ('A' for Active; 'I' for Inactive)
REMARK    1  A    between atoms: C_1  and  O_2
REMARK    2  A    between atoms: O_2  and  C_3
REMARK    3  A    between atoms: C_7  and  O_8
REMARK    4  A    between atoms: O_8  and  C_9
REMARK    5  A    between atoms: C_10  and  O_11
REMARK    6  A    between atoms: O_11  and  C_12
REMARK    7  A    between atoms: C_14  and  N_15
REMARK    8  A    between atoms: N_15  and  C_16
REMARK    9  A    between atoms: C_19  and  C_20
REMARK   10  A    between atoms: C_26  and  N_27
REMARK                            x       y       z     vdW  Elec       q    Type
REMARK                         _______ _______ _______ _____ _____    ______ ____
ROOT
ATOM      1  C   UNL     1       3.937   4.352  19.075  0.00  0.00    +0.000 A 
ATOM      2  C   UNL     1       3.612   5.510  19.784  0.00  0.00    +0.000 A 
ATOM      3  C   UNL     1       2.305   5.709  20.244  0.00  0.00    +0.000 A 
ATOM      4  N   UNL     1       1.339   4.785  20.043  0.00  0.00    +0.000 NA
ATOM      5  C   UNL     1       1.668   3.640  19.407  0.00  0.00    +0.000 A 
ATOM      6  C   UNL     1       2.938   3.393  18.925  0.00  0.00    +0.000 A 
ENDROOT
BRANCH   6   7
ATOM      7  N   UNL     1       3.193   2.098  18.344  0.00  0.00    +0.000 N 
ATOM      8  O   UNL     1       3.867   1.290  18.994  0.00  0.00    +0.000 OA
ATOM      9  O   UNL     1       2.734   1.897  17.210  0.00  0.00    +0.000 OA
ENDBRANCH   6   7
BRANCH   3  10
ATOM     10  N   UNL     1       2.021   6.924  20.904  0.00  0.00    +0.000 N 
ATOM     11  H   UNL     1       1.766   6.749  21.869  0.00  0.00    +0.000 HD
BRANCH  10  12
ATOM     12  C   UNL     1       1.423   8.092  20.389  0.00  0.00    +0.000 A 
ATOM     13  C   UNL     1       0.456   8.823  21.092  0.00  0.00    +0.000 A 
ATOM     14  C   UNL     1      -0.174   9.932  20.518  0.00  0.00    +0.000 A 
ATOM     15  C   UNL     1       0.148  10.315  19.216  0.00  0.00    +0.000 A 
ATOM     16  C   UNL     1       1.086   9.583  18.489  0.00  0.00    +0.000 A 
ATOM     17  C   UNL     1       1.711   8.478  19.071  0.00  0.00    +0.000 A 
BRANCH  15  18
ATOM     18  C   UNL     1      -0.506  11.439  18.622  0.00  0.00    +0.000 C 
ATOM     19  N   UNL     1      -1.040  12.350  18.137  0.00  0.00    +0.000 NA
ENDBRANCH  15  18
ENDBRANCH  10  12
ENDBRANCH   3  10
BRANCH   1  20
ATOM     20  O   UNL     1       5.186   4.064  18.576  0.00  0.00    +0.000 OA
BRANCH  20  26
ATOM     21  C   UNL     1       6.991   5.690  18.895  0.00  0.00    +0.000 A 
ATOM     22  C   UNL     1       7.774   6.723  18.359  0.00  0.00    +0.000 A 
ATOM     23  C   UNL     1       7.552   7.181  17.066  0.00  0.00    +0.000 A 
ATOM     24  C   UNL     1       6.568   6.585  16.289  0.00  0.00    +0.000 A 
ATOM     25  C   UNL     1       5.807   5.509  16.774  0.00  0.00    +0.000 A 
ATOM     26  C   UNL     1       6.033   5.035  18.081  0.00  0.00    +0.000 A 
BRANCH  21  28
ATOM     27  C   UNL     1       8.495   5.225  20.664  0.00  0.00    +0.000 C 
ATOM     28  O   UNL     1       7.149   5.269  20.193  0.00  0.00    +0.000 OA
ENDBRANCH  21  28
BRANCH  25  29
ATOM     29  O   UNL     1       4.903   5.087  15.838  0.00  0.00    +0.000 OA
ATOM     30  C   UNL     1       5.340   4.403  14.678  0.00  0.00    +0.000 C 
ENDBRANCH  25  29
ENDBRANCH  20  26
ENDBRANCH   1  20
TORSDOF 8
ENDMDL
MODEL 3
REMARK VINA RESULT:      -7.6      0.547      2.423
REMARK  Name = 
REMARK  10 active torsions:
REMARK  status: ('A' for Active; 'I' for Inactive)
REMARK    1  A    between atoms: C_1  and  O_2
REMARK    2  A    between atoms: O_2  and  C_3
REMARK    3  A    between atoms: C_7  and  O_8
REMARK    4  A    between atoms: O_8  and  C_9
REMARK    5  A    between atoms: C_10  and  O_11
REMARK    6  A    between atoms: O_11  and  C_12
REMARK    7  A    between atoms: C_14  and  N_15
REMARK    8  A    between atoms: N_15  and  C_16
REMARK    9  A    between atoms: C_19  and  C_20
REMARK   10  A    between atoms: C_26  and  N_27
REMARK                            x       y       z     vdW  Elec       q    Type
REMARK                         _______ _______ _______ _____ _____    ______ ____
ROOT
ATOM      1  C   UNL     1       3.646   4.831  19.754  0.00  0.00    +0.000 A 
ATOM      2  C   UNL     1       3.398   6.203  19.672  0.00  0.00    +0.000 A 
ATOM      3  C   UNL     1       2.157   6.716  20.067  0.00  0.00    +0.000 A 
ATOM      4  N   UNL     1       1.186   5.916  20.559  0.00  0.00    +0.000 NA
ATOM      5  C   UNL     1       1.447   4.597  20.691  0.00  0.00    +0.000 A 
ATOM      6  C   UNL     1       2.649   4.033  20.311  0.00  0.00    +0.000 A 
ENDROOT
BRANCH   6   7
ATOM      7  N   UNL     1       2.847   2.631  20.584  0.00  0.00    +0.000 N 
ATOM      8  O   UNL     1       3.633   2.318  21.486  0.00  0.00    +0.000 OA
ATOM      9  O   UNL     1       2.226   1.833  19.867  0.00  0.00    +0.000 OA
ENDBRANCH   6   7
BRANCH   3  10
ATOM     10  N   UNL     1       1.943   8.103  19.908  0.00  0.00    +0.000 N 
ATOM     11  H   UNL     1       2.784   8.553  19.566  0.00  0.00    +0.000 HD
BRANCH  10  12
ATOM     12  C   UNL     1       1.141   8.969  20.680  0.00  0.00    +0.000 A 
ATOM     13  C   UNL     1       1.036   8.866  22.073  0.00  0.00    +0.000 A 
ATOM     14  C   UNL     1       0.170   9.692  22.798  0.00  0.00    +0.000 A 
ATOM     15  C   UNL     1      -0.620  10.625  22.128  0.00  0.00    +0.000 A 
ATOM     16  C   UNL     1      -0.553  10.722  20.739  0.00  0.00    +0.000 A 
ATOM     17  C   UNL     1       0.317   9.895  20.023  0.00  0.00    +0.000 A 
BRANCH  15  18
ATOM     18  C   UNL     1      -1.517  11.459  22.866  0.00  0.00    +0.000 C 
ATOM     19  N   UNL     1      -2.246  12.138  23.463  0.00  0.00    +0.000 NA
ENDBRANCH  15  18
ENDBRANCH  10  12
ENDBRANCH   3  10
BRANCH   1  20
ATOM     20  O   UNL     1       4.826   4.226  19.387  0.00  0.00    +0.000 OA
BRANCH  20  26
ATOM     21  C   UNL     1       4.939   3.636  17.012  0.00  0.00    +0.000 A 
ATOM     22  C   UNL     1       5.592   3.774  15.778  0.00  0.00    +0.000 A 
ATOM     23  C   UNL     1       6.735   4.556  15.667  0.00  0.00    +0.000 A 
ATOM     24  C   UNL     1       7.212   5.231  16.782  0.00  0.00    +0.000 A 
ATOM     25  C   UNL     1       6.548   5.163  18.017  0.00  0.00    +0.000 A 
ATOM     26  C   UNL     1       5.383   4.378  18.134  0.00  0.00    +0.000 A 
BRANCH  21  28
ATOM     27  C   UNL     1       2.591   3.396  16.810  0.00  0.00    +0.000 C 
ATOM     28  O   UNL     1       3.847   2.814  17.159  0.00  0.00    +0.000 OA
ENDBRANCH  21  28
BRANCH  25  29
ATOM     29  O   UNL     1       7.197   5.905  18.965  0.00  0.00    +0.000 OA
ATOM     30  C   UNL     1       8.061   6.959  18.580  0.00  0.00    +0.000 C 
ENDBRANCH  25  29
ENDBRANCH  20  26
ENDBRANCH   1  20
TORSDOF 8
ENDMDL
MODEL 4
REMARK VINA RESULT:      -7.6      1.241      1.437
REMARK  Name = 
REMARK  10 active torsions:
REMARK  status: ('A' for Active; 'I' for Inactive)
REMARK    1  A    between atoms: C_1  and  O_2
REMARK    2  A    between atoms: O_2  and  C_3
REMARK    3  A    between atoms: C_7  and  O_8
REMARK    4  A    between atoms: O_8  and  C_9
REMARK    5  A    between atoms: C_10  and  O_11
REMARK    6  A    between atoms: O_11  and  C_12
REMARK    7  A    between atoms: C_14  and  N_15
REMARK    8  A    between atoms: N_15  and  C_16
REMARK    9  A    between atoms: C_19  and  C_20
REMARK   10  A    between atoms: C_26  and  N_27
REMARK                            x       y       z     vdW  Elec       q    Type
REMARK                         _______ _______ _______ _____ _____    ______ ____
ROOT
ATOM      1  C   UNL     1       3.586   4.926  19.705  0.00  0.00    +0.000 A 
ATOM      2  C   UNL     1       3.450   6.241  19.252  0.00  0.00    +0.000 A 
ATOM      3  C   UNL     1       2.335   6.999  19.624  0.00  0.00    +0.000 A 
ATOM      4  N   UNL     1       1.384   6.500  20.445  0.00  0.00    +0.000 NA
ATOM      5  C   UNL     1       1.545   5.250  20.928  0.00  0.00    +0.000 A 
ATOM      6  C   UNL     1       2.620   4.452  20.589  0.00  0.00    +0.000 A 
ENDROOT
BRANCH   6   7
ATOM      7  N   UNL     1       2.733   3.169  21.238  0.00  0.00    +0.000 N 
ATOM      8  O   UNL     1       3.592   2.381  20.827  0.00  0.00    +0.000 OA
ATOM      9  O   UNL     1       1.930   2.937  22.154  0.00  0.00    +0.000 OA
ENDBRANCH   6   7
BRANCH   3  10
ATOM     10  N   UNL     1       2.222   8.301  19.090  0.00  0.00    +0.000 N 
ATOM     11  H   UNL     1       3.138   8.724  18.996  0.00  0.00    +0.000 HD
BRANCH  10  12
ATOM     12  C   UNL     1       1.203   9.256  19.292  0.00  0.00    +0.000 A 
ATOM     13  C   UNL     1       0.876   9.761  20.557  0.00  0.00    +0.000 A 
ATOM     14  C   UNL     1      -0.192  10.647  20.730  0.00  0.00    +0.000 A 
ATOM     15  C   UNL     1      -0.963  11.026  19.631  0.00  0.00    +0.000 A 
ATOM     16  C   UNL     1      -0.673  10.510  18.369  0.00  0.00    +0.000 A 
ATOM     17  C   UNL     1       0.398   9.628  18.205  0.00  0.00    +0.000 A 
BRANCH  15  18
ATOM     18  C   UNL     1      -2.065  11.919  19.809  0.00  0.00    +0.000 C 
ATOM     19  N   UNL     1      -2.959  12.647  19.950  0.00  0.00    +0.000 NA
ENDBRANCH  15  18
ENDBRANCH  10  12
ENDBRANCH   3  10
BRANCH   1  20
ATOM     20  O   UNL     1       4.637   4.096  19.392  0.00  0.00    +0.000 OA
BRANCH  20  26
ATOM     21  C   UNL     1       6.563   4.577  17.957  0.00  0.00    +0.000 A 
ATOM     22  C   UNL     1       7.104   4.625  16.664  0.00  0.00    +0.000 A 
ATOM     23  C   UNL     1       6.328   4.299  15.559  0.00  0.00    +0.000 A 
ATOM     24  C   UNL     1       5.014   3.891  15.745  0.00  0.00    +0.000 A 
ATOM     25  C   UNL     1       4.459   3.775  17.029  0.00  0.00    +0.000 A 
ATOM     26  C   UNL     1       5.245   4.096  18.154  0.00  0.00    +0.000 A 
BRANCH  21  28
ATOM     27  C   UNL     1       7.905   6.247  18.968  0.00  0.00    +0.000 C 
ATOM     28  O   UNL     1       7.294   4.960  19.056  0.00  0.00    +0.000 OA
ENDBRANCH  21  28
BRANCH  25  29
ATOM     29  O   UNL     1       3.158   3.358  16.966  0.00  0.00    +0.000 OA
ATOM     30  C   UNL     1       2.777   2.116  17.527  0.00  0.00    +0.000 C 
ENDBRANCH  25  29
ENDBRANCH  20  26
ENDBRANCH   1  20
TORSDOF 8
ENDMDL
MODEL 5
REMARK VINA RESULT:      -7.5      0.420      2.522
REMARK  Name = 
REMARK  10 active torsions:
REMARK  status: ('A' for Active; 'I' for Inactive)
REMARK    1  A    between atoms: C_1  and  O_2
REMARK    2  A    between atoms: O_2  and  C_3
REMARK    3  A    between atoms: C_7  and  O_8
REMARK    4  A    between atoms: O_8  and  C_9
REMARK    5  A    between atoms: C_10  and  O_11
REMARK    6  A    between atoms: O_11  and  C_12
REMARK    7  A    between atoms: C_14  and  N_15
REMARK    8  A    between atoms: N_15  and  C_16
REMARK    9  A    between atoms: C_19  and  C_20
REMARK   10  A    between atoms: C_26  and  N_27
REMARK                            x       y       z     vdW  Elec       q    Type
REMARK                         _______ _______ _______ _____ _____    ______ ____
ROOT
ATOM      1  C   UNL     1       3.799   4.874  19.718  0.00  0.00    +0.000 A 
ATOM      2  C   UNL     1       3.406   6.196  19.499  0.00  0.00    +0.000 A 
ATOM      3  C   UNL     1       2.161   6.643  19.955  0.00  0.00    +0.000 A 
ATOM      4  N   UNL     1       1.326   5.829  20.637  0.00  0.00    +0.000 NA
ATOM      5  C   UNL     1       1.731   4.567  20.899  0.00  0.00    +0.000 A 
ATOM      6  C   UNL     1       2.944   4.069  20.468  0.00  0.00    +0.000 A 
ENDROOT
BRANCH   6   7
ATOM      7  N   UNL     1       3.308   2.737  20.885  0.00  0.00    +0.000 N 
ATOM      8  O   UNL     1       3.995   2.053  20.117  0.00  0.00    +0.000 OA
ATOM      9  O   UNL     1       2.877   2.362  21.985  0.00  0.00    +0.000 OA
ENDBRANCH   6   7
BRANCH   3  10
ATOM     10  N   UNL     1       1.793   7.972  19.654  0.00  0.00    +0.000 N 
ATOM     11  H   UNL     1       2.548   8.447  19.173  0.00  0.00    +0.000 HD
BRANCH  10  12
ATOM     12  C   UNL     1       0.984   8.857  20.397  0.00  0.00    +0.000 A 
ATOM     13  C   UNL     1       0.222   9.870  19.802  0.00  0.00    +0.000 A 
ATOM     14  C   UNL     1      -0.507  10.779  20.577  0.00  0.00    +0.000 A 
ATOM     15  C   UNL     1      -0.465  10.694  21.968  0.00  0.00    +0.000 A 
ATOM     16  C   UNL     1       0.312   9.711  22.580  0.00  0.00    +0.000 A 
ATOM     17  C   UNL     1       1.034   8.806  21.799  0.00  0.00    +0.000 A 
BRANCH  15  18
ATOM     18  C   UNL     1      -1.197  11.632  22.761  0.00  0.00    +0.000 C 
ATOM     19  N   UNL     1      -1.793  12.396  23.401  0.00  0.00    +0.000 NA
ENDBRANCH  15  18
ENDBRANCH  10  12
ENDBRANCH   3  10
BRANCH   1  20
ATOM     20  O   UNL     1       4.996   4.335  19.306  0.00  0.00    +0.000 OA
BRANCH  20  26
ATOM     21  C   UNL     1       5.014   3.764  16.924  0.00  0.00    +0.000 A 
ATOM     22  C   UNL     1       5.607   3.926  15.663  0.00  0.00    +0.000 A 
ATOM     23  C   UNL     1       6.725   4.736  15.506  0.00  0.00    +0.000 A 
ATOM     24  C   UNL     1       7.237   5.415  16.604  0.00  0.00    +0.000 A 
ATOM     25  C   UNL     1       6.632   5.321  17.867  0.00  0.00    +0.000 A 
ATOM     26  C   UNL     1       5.492   4.509  18.031  0.00  0.00    +0.000 A 
BRANCH  21  28
ATOM     27  C   UNL     1       2.666   3.472  16.833  0.00  0.00    +0.000 C 
ATOM     28  O   UNL     1       3.950   2.916  17.114  0.00  0.00    +0.000 OA
ENDBRANCH  21  28
BRANCH  25  29
ATOM     29  O   UNL     1       7.306   6.072  18.790  0.00  0.00    +0.000 OA
ATOM     30  C   UNL     1       8.017   7.230  18.390  0.00  0.00    +0.000 C 
ENDBRANCH  25  29
ENDBRANCH  20  26
ENDBRANCH   1  20
TORSDOF 8
ENDMDL
MODEL 6
REMARK VINA RESULT:      -7.5      1.782      3.157
REMARK  Name = 
REMARK  10 active torsions:
REMARK  status: ('A' for Active; 'I' for Inactive)
REMARK    1  A    between atoms: C_1  and  O_2
REMARK    2  A    between atoms: O_2  and  C_3
REMARK    3  A    between atoms: C_7  and  O_8
REMARK    4  A    between atoms: O_8  and  C_9
REMARK    5  A    between atoms: C_10  and  O_11
REMARK    6  A    between atoms: O_11  and  C_12
REMARK    7  A    between atoms: C_14  and  N_15
REMARK    8  A    between atoms: N_15  and  C_16
REMARK    9  A    between atoms: C_19  and  C_20
REMARK   10  A    between atoms: C_26  and  N_27
REMARK                            x       y       z     vdW  Elec       q    Type
REMARK                         _______ _______ _______ _____ _____    ______ ____
ROOT
ATOM      1  C   UNL     1       3.859   4.567  19.078  0.00  0.00    +0.000 A 
ATOM      2  C   UNL     1       3.479   5.745  19.726  0.00  0.00    +0.000 A 
ATOM      3  C   UNL     1       2.223   5.836  20.337  0.00  0.00    +0.000 A 
ATOM      4  N   UNL     1       1.364   4.793  20.343  0.00  0.00    +0.000 NA
ATOM      5  C   UNL     1       1.755   3.636  19.766  0.00  0.00    +0.000 A 
ATOM      6  C   UNL     1       2.978   3.490  19.142  0.00  0.00    +0.000 A 
ENDROOT
BRANCH   6   7
ATOM      7  N   UNL     1       3.322   2.182  18.642  0.00  0.00    +0.000 N 
ATOM      8  O   UNL     1       2.828   1.820  17.568  0.00  0.00    +0.000 OA
ATOM      9  O   UNL     1       4.076   1.497  19.348  0.00  0.00    +0.000 OA
ENDBRANCH   6   7
BRANCH   3  10
ATOM     10  N   UNL     1       1.871   7.069  20.926  0.00  0.00    +0.000 N 
ATOM     11  H   UNL     1       1.540   6.925  21.873  0.00  0.00    +0.000 HD
BRANCH  10  12
ATOM     12  C   UNL     1       1.301   8.209  20.321  0.00  0.00    +0.000 A 
ATOM     13  C   UNL     1       1.652   8.642  19.036  0.00  0.00    +0.000 A 
ATOM     14  C   UNL     1       1.125   9.821  18.499  0.00  0.00    +0.000 A 
ATOM     15  C   UNL     1       0.248  10.597  19.257  0.00  0.00    +0.000 A 
ATOM     16  C   UNL     1      -0.089  10.199  20.550  0.00  0.00    +0.000 A 
ATOM     17  C   UNL     1       0.440   9.018  21.077  0.00  0.00    +0.000 A 
BRANCH  15  18
ATOM     18  C   UNL     1      -0.278  11.810  18.715  0.00  0.00    +0.000 C 
ATOM     19  N   UNL     1      -0.701  12.798  18.274  0.00  0.00    +0.000 NA
ENDBRANCH  15  18
ENDBRANCH  10  12
ENDBRANCH   3  10
BRANCH   1  20
ATOM     20  O   UNL     1       5.064   4.377  18.444  0.00  0.00    +0.000 OA
BRANCH  20  26
ATOM     21  C   UNL     1       5.849   6.050  16.836  0.00  0.00    +0.000 A 
ATOM     22  C   UNL     1       6.774   7.055  16.515  0.00  0.00    +0.000 A 
ATOM     23  C   UNL     1       7.806   7.372  17.390  0.00  0.00    +0.000 A 
ATOM     24  C   UNL     1       7.898   6.708  18.606  0.00  0.00    +0.000 A 
ATOM     25  C   UNL     1       6.954   5.739  18.984  0.00  0.00    +0.000 A 
ATOM     26  C   UNL     1       5.901   5.420  18.104  0.00  0.00    +0.000 A 
BRANCH  21  28
ATOM     27  C   UNL     1       5.278   4.803  14.904  0.00  0.00    +0.000 C 
ATOM     28  O   UNL     1       4.862   5.675  15.956  0.00  0.00    +0.000 OA
ENDBRANCH  21  28
BRANCH  25  29
ATOM     29  O   UNL     1       7.247   5.224  20.216  0.00  0.00    +0.000 OA
ATOM     30  C   UNL     1       8.587   5.165  20.668  0.00  0.00    +0.000 C 
ENDBRANCH  25  29
ENDBRANCH  20  26
ENDBRANCH   1  20
TORSDOF 8
ENDMDL
MODEL 7
REMARK VINA RESULT:      -7.5      1.799      3.116
REMARK  Name = 
REMARK  10 active torsions:
REMARK  status: ('A' for Active; 'I' for Inactive)
REMARK    1  A    between atoms: C_1  and  O_2
REMARK    2  A    between atoms: O_2  and  C_3
REMARK    3  A    between atoms: C_7  and  O_8
REMARK    4  A    between atoms: O_8  and  C_9
REMARK    5  A    between atoms: C_10  and  O_11
REMARK    6  A    between atoms: O_11  and  C_12
REMARK    7  A    between atoms: C_14  and  N_15
REMARK    8  A    between atoms: N_15  and  C_16
REMARK    9  A    between atoms: C_19  and  C_20
REMARK   10  A    between atoms: C_26  and  N_27
REMARK                            x       y       z     vdW  Elec       q    Type
REMARK                         _______ _______ _______ _____ _____    ______ ____
ROOT
ATOM      1  C   UNL     1       3.822   4.359  19.152  0.00  0.00    +0.000 A 
ATOM      2  C   UNL     1       3.467   5.486  19.896  0.00  0.00    +0.000 A 
ATOM      3  C   UNL     1       2.177   5.599  20.426  0.00  0.00    +0.000 A 
ATOM      4  N   UNL     1       1.258   4.621  20.261  0.00  0.00    +0.000 NA
ATOM      5  C   UNL     1       1.620   3.507  19.590  0.00  0.00    +0.000 A 
ATOM      6  C   UNL     1       2.875   3.343  19.039  0.00  0.00    +0.000 A 
ENDROOT
BRANCH   6   7
ATOM      7  N   UNL     1       3.176   2.074  18.424  0.00  0.00    +0.000 N 
ATOM      8  O   UNL     1       3.914   1.291  19.033  0.00  0.00    +0.000 OA
ATOM      9  O   UNL     1       2.688   1.870  17.302  0.00  0.00    +0.000 OA
ENDBRANCH   6   7
BRANCH   3  10
ATOM     10  N   UNL     1       1.856   6.785  21.121  0.00  0.00    +0.000 N 
ATOM     11  H   UNL     1       1.498   6.567  22.044  0.00  0.00    +0.000 HD
BRANCH  10  12
ATOM     12  C   UNL     1       1.344   7.997  20.613  0.00  0.00    +0.000 A 
ATOM     13  C   UNL     1       0.375   8.753  21.286  0.00  0.00    +0.000 A 
ATOM     14  C   UNL     1      -0.168   9.909  20.716  0.00  0.00    +0.000 A 
ATOM     15  C   UNL     1       0.244  10.315  19.446  0.00  0.00    +0.000 A 
ATOM     16  C   UNL     1       1.185   9.559  18.748  0.00  0.00    +0.000 A 
ATOM     17  C   UNL     1       1.723   8.407  19.326  0.00  0.00    +0.000 A 
BRANCH  15  18
ATOM     18  C   UNL     1      -0.322  11.487  18.856  0.00  0.00    +0.000 C 
ATOM     19  N   UNL     1      -0.785  12.438  18.374  0.00  0.00    +0.000 NA
ENDBRANCH  15  18
ENDBRANCH  10  12
ENDBRANCH   3  10
BRANCH   1  20
ATOM     20  O   UNL     1       5.058   4.154  18.583  0.00  0.00    +0.000 OA
BRANCH  20  26
ATOM     21  C   UNL     1       5.766   5.659  16.785  0.00  0.00    +0.000 A 
ATOM     22  C   UNL     1       6.643   6.661  16.344  0.00  0.00    +0.000 A 
ATOM     23  C   UNL     1       7.658   7.127  17.171  0.00  0.00    +0.000 A 
ATOM     24  C   UNL     1       7.779   6.618  18.457  0.00  0.00    +0.000 A 
ATOM     25  C   UNL     1       6.881   5.658  18.950  0.00  0.00    +0.000 A 
ATOM     26  C   UNL     1       5.845   5.187  18.119  0.00  0.00    +0.000 A 
BRANCH  21  28
ATOM     27  C   UNL     1       5.284   4.462  14.799  0.00  0.00    +0.000 C 
ATOM     28  O   UNL     1       4.799   5.137  15.959  0.00  0.00    +0.000 OA
ENDBRANCH  21  28
BRANCH  25  29
ATOM     29  O   UNL     1       7.195   5.306  20.234  0.00  0.00    +0.000 OA
ATOM     30  C   UNL     1       8.549   5.188  20.632  0.00  0.00    +0.000 C 
ENDBRANCH  25  29
ENDBRANCH  20  26
ENDBRANCH   1  20
TORSDOF 8
ENDMDL
MODEL 8
REMARK VINA RESULT:      -7.5      1.795      2.531
REMARK  Name = 
REMARK  10 active torsions:
REMARK  status: ('A' for Active; 'I' for Inactive)
REMARK    1  A    between atoms: C_1  and  O_2
REMARK    2  A    between atoms: O_2  and  C_3
REMARK    3  A    between atoms: C_7  and  O_8
REMARK    4  A    between atoms: O_8  and  C_9
REMARK    5  A    between atoms: C_10  and  O_11
REMARK    6  A    between atoms: O_11  and  C_12
REMARK    7  A    between atoms: C_14  and  N_15
REMARK    8  A    between atoms: N_15  and  C_16
REMARK    9  A    between atoms: C_19  and  C_20
REMARK   10  A    between atoms: C_26  and  N_27
REMARK                            x       y       z     vdW  Elec       q    Type
REMARK                         _______ _______ _______ _____ _____    ______ ____
ROOT
ATOM      1  C   UNL     1       4.053   4.485  18.993  0.00  0.00    +0.000 A 
ATOM      2  C   UNL     1       3.708   5.686  19.617  0.00  0.00    +0.000 A 
ATOM      3  C   UNL     1       2.445   5.835  20.202  0.00  0.00    +0.000 A 
ATOM      4  N   UNL     1       1.545   4.827  20.205  0.00  0.00    +0.000 NA
ATOM      5  C   UNL     1       1.901   3.647  19.652  0.00  0.00    +0.000 A 
ATOM      6  C   UNL     1       3.130   3.444  19.054  0.00  0.00    +0.000 A 
ENDROOT
BRANCH   6   7
ATOM      7  N   UNL     1       3.431   2.117  18.578  0.00  0.00    +0.000 N 
ATOM      8  O   UNL     1       2.970   1.771  17.485  0.00  0.00    +0.000 OA
ATOM      9  O   UNL     1       4.118   1.402  19.323  0.00  0.00    +0.000 OA
ENDBRANCH   6   7
BRANCH   3  10
ATOM     10  N   UNL     1       2.131   7.090  20.767  0.00  0.00    +0.000 N 
ATOM     11  H   UNL     1       1.926   6.989  21.755  0.00  0.00    +0.000 HD
BRANCH  10  12
ATOM     12  C   UNL     1       1.454   8.180  20.182  0.00  0.00    +0.000 A 
ATOM     13  C   UNL     1       1.734   8.643  18.890  0.00  0.00    +0.000 A 
ATOM     14  C   UNL     1       1.098   9.776  18.372  0.00  0.00    +0.000 A 
ATOM     15  C   UNL     1       0.179  10.475  19.156  0.00  0.00    +0.000 A 
ATOM     16  C   UNL     1      -0.090  10.047  20.455  0.00  0.00    +0.000 A 
ATOM     17  C   UNL     1       0.548   8.913  20.964  0.00  0.00    +0.000 A 
BRANCH  15  18
ATOM     18  C   UNL     1      -0.459  11.642  18.633  0.00  0.00    +0.000 C 
ATOM     19  N   UNL     1      -0.976  12.590  18.204  0.00  0.00    +0.000 NA
ENDBRANCH  15  18
ENDBRANCH  10  12
ENDBRANCH   3  10
BRANCH   1  20
ATOM     20  O   UNL     1       5.263   4.238  18.385  0.00  0.00    +0.000 OA
BRANCH  20  26
ATOM     21  C   UNL     1       7.105   5.762  18.917  0.00  0.00    +0.000 A 
ATOM     22  C   UNL     1       7.915   6.838  18.524  0.00  0.00    +0.000 A 
ATOM     23  C   UNL     1       7.709   7.469  17.303  0.00  0.00    +0.000 A 
ATOM     24  C   UNL     1       6.712   7.006  16.454  0.00  0.00    +0.000 A 
ATOM     25  C   UNL     1       5.924   5.895  16.791  0.00  0.00    +0.000 A 
ATOM     26  C   UNL     1       6.134   5.245  18.024  0.00  0.00    +0.000 A 
BRANCH  21  28
ATOM     27  C   UNL     1       8.566   5.202  20.695  0.00  0.00    +0.000 C 
ATOM     28  O   UNL     1       7.248   5.168  20.148  0.00  0.00    +0.000 OA
ENDBRANCH  21  28
BRANCH  25  29
ATOM     29  O   UNL     1       5.013   5.623  15.808  0.00  0.00    +0.000 OA
ATOM     30  C   UNL     1       5.237   4.561  14.899  0.00  0.00    +0.000 C 
ENDBRANCH  25  29
ENDBRANCH  20  26
ENDBRANCH   1  20
TORSDOF 8
ENDMDL
MODEL 9
REMARK VINA RESULT:      -7.5      1.293      2.717
REMARK  Name = 
REMARK  10 active torsions:
REMARK  status: ('A' for Active; 'I' for Inactive)
REMARK    1  A    between atoms: C_1  and  O_2
REMARK    2  A    between atoms: O_2  and  C_3
REMARK    3  A    between atoms: C_7  and  O_8
REMARK    4  A    between atoms: O_8  and  C_9
REMARK    5  A    between atoms: C_10  and  O_11
REMARK    6  A    between atoms: O_11  and  C_12
REMARK    7  A    between atoms: C_14  and  N_15
REMARK    8  A    between atoms: N_15  and  C_16
REMARK    9  A    between atoms: C_19  and  C_20
REMARK   10  A    between atoms: C_26  and  N_27
REMARK                            x       y       z     vdW  Elec       q    Type
REMARK                         _______ _______ _______ _____ _____    ______ ____
ROOT
ATOM      1  C   UNL     1       3.334   4.929  19.660  0.00  0.00    +0.000 A 
ATOM      2  C   UNL     1       3.289   6.296  19.377  0.00  0.00    +0.000 A 
ATOM      3  C   UNL     1       2.201   7.065  19.803  0.00  0.00    +0.000 A 
ATOM      4  N   UNL     1       1.188   6.522  20.514  0.00  0.00    +0.000 NA
ATOM      5  C   UNL     1       1.260   5.213  20.836  0.00  0.00    +0.000 A 
ATOM      6  C   UNL     1       2.305   4.403  20.438  0.00  0.00    +0.000 A 
ENDROOT
BRANCH   6   7
ATOM      7  N   UNL     1       2.319   3.043  20.918  0.00  0.00    +0.000 N 
ATOM      8  O   UNL     1       1.742   2.182  20.245  0.00  0.00    +0.000 OA
ATOM      9  O   UNL     1       2.893   2.841  21.998  0.00  0.00    +0.000 OA
ENDBRANCH   6   7
BRANCH   3  10
ATOM     10  N   UNL     1       2.181   8.429  19.439  0.00  0.00    +0.000 N 
ATOM     11  H   UNL     1       3.085   8.853  19.615  0.00  0.00    +0.000 HD
BRANCH  10  12
ATOM     12  C   UNL     1       1.122   9.355  19.530  0.00  0.00    +0.000 A 
ATOM     13  C   UNL     1       0.686   9.893  20.747  0.00  0.00    +0.000 A 
ATOM     14  C   UNL     1      -0.419  10.749  20.808  0.00  0.00    +0.000 A 
ATOM     15  C   UNL     1      -1.118  11.062  19.643  0.00  0.00    +0.000 A 
ATOM     16  C   UNL     1      -0.719  10.512  18.425  0.00  0.00    +0.000 A 
ATOM     17  C   UNL     1       0.388   9.661  18.374  0.00  0.00    +0.000 A 
BRANCH  15  18
ATOM     18  C   UNL     1      -2.257  11.923  19.707  0.00  0.00    +0.000 C 
ATOM     19  N   UNL     1      -3.184  12.621  19.762  0.00  0.00    +0.000 NA
ENDBRANCH  15  18
ENDBRANCH  10  12
ENDBRANCH   3  10
BRANCH   1  20
ATOM     20  O   UNL     1       4.352   4.084  19.282  0.00  0.00    +0.000 OA
BRANCH  20  26
ATOM     21  C   UNL     1       4.427   3.851  16.845  0.00  0.00    +0.000 A 
ATOM     22  C   UNL     1       5.177   3.928  15.662  0.00  0.00    +0.000 A 
ATOM     23  C   UNL     1       6.526   4.257  15.700  0.00  0.00    +0.000 A 
ATOM     24  C   UNL     1       7.125   4.544  16.919  0.00  0.00    +0.000 A 
ATOM     25  C   UNL     1       6.390   4.535  18.115  0.00  0.00    +0.000 A 
ATOM     26  C   UNL     1       5.019   4.211  18.082  0.00  0.00    +0.000 A 
BRANCH  21  28
ATOM     27  C   UNL     1       2.866   2.113  17.232  0.00  0.00    +0.000 C 
ATOM     28  O   UNL     1       3.109   3.462  16.836  0.00  0.00    +0.000 OA
ENDBRANCH  21  28
BRANCH  25  29
ATOM     29  O   UNL     1       7.186   4.847  19.182  0.00  0.00    +0.000 OA
ATOM     30  C   UNL     1       7.949   6.040  19.181  0.00  0.00    +0.000 C 
ENDBRANCH  25  29
ENDBRANCH  20  26
ENDBRANCH   1  20
TORSDOF 8
ENDMDL
