MODEL 1
REMARK VINA RESULT:      -8.6      0.000      0.000
REMARK  Name = 
REMARK  6 active torsions:
REMARK  status: ('A' for Active; 'I' for Inactive)
REMARK    1  A    between atoms: C_1  and  C_2
REMARK    2  A    between atoms: C_6  and  N_7
REMARK    3  A    between atoms: C_14  and  C_15
REMARK    4  A    between atoms: C_15  and  C_16
REMARK    5  A    between atoms: C_16  and  N_17
REMARK    6  A    between atoms: N_17  and  C_18
REMARK                            x       y       z     vdW  Elec       q    Type
REMARK                         _______ _______ _______ _____ _____    ______ ____
ROOT
ATOM      1  N   UNL     1       6.177   4.376  15.884  0.00  0.00    +0.000 N 
ATOM      2  C   UNL     1       6.970   4.279  17.004  0.00  0.00    +0.000 C 
ATOM      3  O   UNL     1       8.197   4.216  17.013  0.00  0.00    +0.000 OA
ATOM      4  N   UNL     1       6.301   4.345  18.211  0.00  0.00    +0.000 N 
ATOM      5  C   UNL     1       4.939   4.337  18.314  0.00  0.00    +0.000 A 
ATOM      6  N   UNL     1       4.115   4.092  17.326  0.00  0.00    +0.000 NA
ATOM      7  C   UNL     1       2.829   4.271  17.745  0.00  0.00    +0.000 A 
ATOM      8  C   UNL     1       2.683   4.717  19.045  0.00  0.00    +0.000 A 
ATOM      9  S   UNL     1       4.234   4.755  19.804  0.00  0.00    +0.000 S 
ATOM     10  H   UNL     1       5.188   4.502  16.076  0.00  0.00    +0.000 HD
ATOM     11  H   UNL     1       6.866   4.439  19.042  0.00  0.00    +0.000 HD
ENDROOT
BRANCH   1  17
ATOM     12  C   UNL     1       5.364   2.463  11.446  0.00  0.00    +0.000 C 
ATOM     13  C   UNL     1       6.124   3.411  12.325  0.00  0.00    +0.000 A 
ATOM     14  C   UNL     1       7.090   4.272  11.796  0.00  0.00    +0.000 A 
ATOM     15  C   UNL     1       7.769   5.169  12.625  0.00  0.00    +0.000 A 
ATOM     16  C   UNL     1       7.478   5.233  13.987  0.00  0.00    +0.000 A 
ATOM     17  C   UNL     1       6.522   4.384  14.529  0.00  0.00    +0.000 A 
ATOM     18  C   UNL     1       5.864   3.460  13.700  0.00  0.00    +0.000 A 
ENDBRANCH   1  17
BRANCH   8  19
ATOM     19  C   UNL     1       1.429   5.136  19.757  0.00  0.00    +0.000 C 
BRANCH  19  20
ATOM     20  C   UNL     1       1.722   6.217  20.813  0.00  0.00    +0.000 C 
BRANCH  20  21
ATOM     21  N   UNL     1       1.954   7.519  20.210  0.00  0.00    +0.000 N 
ATOM     22  H   UNL     1       1.788   7.569  19.209  0.00  0.00    +0.000 HD
BRANCH  21  23
ATOM     23  C   UNL     1       1.293   8.563  20.876  0.00  0.00    +0.000 A 
ATOM     24  N   UNL     1       1.166   8.546  22.223  0.00  0.00    +0.000 NA
ATOM     25  C   UNL     1       0.541   9.564  22.835  0.00  0.00    +0.000 A 
ATOM     26  N   UNL     1      -0.010  10.638  22.263  0.00  0.00    +0.000 NA
ATOM     27  C   UNL     1       0.104  10.660  20.913  0.00  0.00    +0.000 A 
ATOM     28  C   UNL     1      -0.398  11.692  20.068  0.00  0.00    +0.000 A 
ATOM     29  C   UNL     1      -0.150  11.449  18.737  0.00  0.00    +0.000 A 
ATOM     30  S   UNL     1       0.697   9.983  18.502  0.00  0.00    +0.000 S 
ATOM     31  C   UNL     1       0.740   9.654  20.193  0.00  0.00    +0.000 A 
ENDBRANCH  21  23
ENDBRANCH  20  21
ENDBRANCH  19  20
ENDBRANCH   8  19
TORSDOF 5
ENDMDL
MODEL 2
REMARK VINA RESULT:      -8.5      1.307      1.809
REMARK  Name = 
REMARK  6 active torsions:
REMARK  status: ('A' for Active; 'I' for Inactive)
REMARK    1  A    between atoms: C_1  and  C_2
REMARK    2  A    between atoms: C_6  and  N_7
REMARK    3  A    between atoms: C_14  and  C_15
REMARK    4  A    between atoms: C_15  and  C_16
REMARK    5  A    between atoms: C_16  and  N_17
REMARK    6  A    between atoms: N_17  and  C_18
REMARK                            x       y       z     vdW  Elec       q    Type
REMARK                         _______ _______ _______ _____ _____    ______ ____
ROOT
ATOM      1  N   UNL     1       6.183   4.283  15.899  0.00  0.00    +0.000 N 
ATOM      2  C   UNL     1       6.968   4.212  17.028  0.00  0.00    +0.000 C 
ATOM      3  O   UNL     1       8.196   4.218  17.051  0.00  0.00    +0.000 OA
ATOM      4  N   UNL     1       6.281   4.220  18.227  0.00  0.00    +0.000 N 
ATOM      5  C   UNL     1       4.921   4.132  18.312  0.00  0.00    +0.000 A 
ATOM      6  N   UNL     1       4.124   3.858  17.310  0.00  0.00    +0.000 NA
ATOM      7  C   UNL     1       2.825   3.957  17.715  0.00  0.00    +0.000 A 
ATOM      8  C   UNL     1       2.638   4.371  19.020  0.00  0.00    +0.000 A 
ATOM      9  S   UNL     1       4.176   4.485  19.799  0.00  0.00    +0.000 S 
ATOM     10  H   UNL     1       5.187   4.350  16.081  0.00  0.00    +0.000 HD
ATOM     11  H   UNL     1       6.830   4.331  19.066  0.00  0.00    +0.000 HD
ENDROOT
BRANCH   1  17
ATOM     12  C   UNL     1       5.480   2.451  11.408  0.00  0.00    +0.000 C 
ATOM     13  C   UNL     1       6.201   3.402  12.319  0.00  0.00    +0.000 A 
ATOM     14  C   UNL     1       7.146   4.304  11.820  0.00  0.00    +0.000 A 
ATOM     15  C   UNL     1       7.787   5.201  12.679  0.00  0.00    +0.000 A 
ATOM     16  C   UNL     1       7.479   5.224  14.038  0.00  0.00    +0.000 A 
ATOM     17  C   UNL     1       6.544   4.333  14.549  0.00  0.00    +0.000 A 
ATOM     18  C   UNL     1       5.924   3.409  13.691  0.00  0.00    +0.000 A 
ENDBRANCH   1  17
BRANCH   8  19
ATOM     19  C   UNL     1       1.355   4.707  19.723  0.00  0.00    +0.000 C 
BRANCH  19  20
ATOM     20  C   UNL     1       1.572   5.789  20.795  0.00  0.00    +0.000 C 
BRANCH  20  21
ATOM     21  N   UNL     1       2.536   6.791  20.371  0.00  0.00    +0.000 N 
ATOM     22  H   UNL     1       3.321   6.437  19.832  0.00  0.00    +0.000 HD
BRANCH  21  23
ATOM     23  C   UNL     1       1.946   7.889  19.726  0.00  0.00    +0.000 A 
ATOM     24  N   UNL     1       2.049   8.033  18.384  0.00  0.00    +0.000 NA
ATOM     25  C   UNL     1       1.463   9.085  17.792  0.00  0.00    +0.000 A 
ATOM     26  N   UNL     1       0.767  10.063  18.379  0.00  0.00    +0.000 NA
ATOM     27  C   UNL     1       0.665   9.931  19.724  0.00  0.00    +0.000 A 
ATOM     28  C   UNL     1      -0.023  10.838  20.583  0.00  0.00    +0.000 A 
ATOM     29  C   UNL     1       0.044  10.463  21.904  0.00  0.00    +0.000 A 
ATOM     30  S   UNL     1       0.928   9.015  22.114  0.00  0.00    +0.000 S 
ATOM     31  C   UNL     1       1.233   8.872  20.424  0.00  0.00    +0.000 A 
ENDBRANCH  21  23
ENDBRANCH  20  21
ENDBRANCH  19  20
ENDBRANCH   8  19
TORSDOF 5
ENDMDL
MODEL 3
REMARK VINA RESULT:      -8.2      1.454      1.845
REMARK  Name = 
REMARK  6 active torsions:
REMARK  status: ('A' for Active; 'I' for Inactive)
REMARK    1  A    between atoms: C_1  and  C_2
REMARK    2  A    between atoms: C_6  and  N_7
REMARK    3  A    between atoms: C_14  and  C_15
REMARK    4  A    between atoms: C_15  and  C_16
REMARK    5  A    between atoms: C_16  and  N_17
REMARK    6  A    between atoms: N_17  and  C_18
REMARK                            x       y       z     vdW  Elec       q    Type
REMARK                         _______ _______ _______ _____ _____    ______ ____
ROOT
ATOM      1  N   UNL     1       6.152   4.504  15.756  0.00  0.00    +0.000 N 
ATOM      2  C   UNL     1       6.957   4.343  16.860  0.00  0.00    +0.000 C 
ATOM      3  O   UNL     1       8.165   4.117  16.843  0.00  0.00    +0.000 OA
ATOM      4  N   UNL     1       6.337   4.542  18.079  0.00  0.00    +0.000 N 
ATOM      5  C   UNL     1       4.990   4.718  18.213  0.00  0.00    +0.000 A 
ATOM      6  N   UNL     1       4.112   4.549  17.256  0.00  0.00    +0.000 NA
ATOM      7  C   UNL     1       2.874   4.913  17.698  0.00  0.00    +0.000 A 
ATOM      8  C   UNL     1       2.825   5.422  18.982  0.00  0.00    +0.000 A 
ATOM      9  S   UNL     1       4.389   5.281  19.701  0.00  0.00    +0.000 S 
ATOM     10  H   UNL     1       5.195   4.767  15.966  0.00  0.00    +0.000 HD
ATOM     11  H   UNL     1       6.934   4.590  18.891  0.00  0.00    +0.000 HD
ENDROOT
BRANCH   1  17
ATOM     12  C   UNL     1       4.956   2.568  11.415  0.00  0.00    +0.000 C 
ATOM     13  C   UNL     1       5.865   3.431  12.239  0.00  0.00    +0.000 A 
ATOM     14  C   UNL     1       6.925   4.130  11.654  0.00  0.00    +0.000 A 
ATOM     15  C   UNL     1       7.745   4.952  12.432  0.00  0.00    +0.000 A 
ATOM     16  C   UNL     1       7.505   5.104  13.797  0.00  0.00    +0.000 A 
ATOM     17  C   UNL     1       6.456   4.415  14.393  0.00  0.00    +0.000 A 
ATOM     18  C   UNL     1       5.654   3.563  13.616  0.00  0.00    +0.000 A 
ENDBRANCH   1  17
BRANCH   8  19
ATOM     19  C   UNL     1       1.659   6.029  19.705  0.00  0.00    +0.000 C 
BRANCH  19  20
ATOM     20  C   UNL     1       1.986   7.452  20.195  0.00  0.00    +0.000 C 
BRANCH  20  21
ATOM     21  N   UNL     1       0.919   8.006  21.011  0.00  0.00    +0.000 N 
ATOM     22  H   UNL     1       1.108   8.036  22.009  0.00  0.00    +0.000 HD
BRANCH  21  23
ATOM     23  C   UNL     1       0.463   9.253  20.555  0.00  0.00    +0.000 A 
ATOM     24  N   UNL     1       0.668   9.631  19.272  0.00  0.00    +0.000 NA
ATOM     25  C   UNL     1       0.209  10.822  18.859  0.00  0.00    +0.000 A 
ATOM     26  N   UNL     1      -0.444  11.735  19.584  0.00  0.00    +0.000 NA
ATOM     27  C   UNL     1      -0.647  11.369  20.873  0.00  0.00    +0.000 A 
ATOM     28  C   UNL     1      -1.315  12.162  21.851  0.00  0.00    +0.000 A 
ATOM     29  C   UNL     1      -1.367  11.547  23.080  0.00  0.00    +0.000 A 
ATOM     30  S   UNL     1      -0.618  10.011  23.057  0.00  0.00    +0.000 S 
ATOM     31  C   UNL     1      -0.213  10.153  21.389  0.00  0.00    +0.000 A 
ENDBRANCH  21  23
ENDBRANCH  20  21
ENDBRANCH  19  20
ENDBRANCH   8  19
TORSDOF 5
ENDMDL
MODEL 4
REMARK VINA RESULT:      -8.1      2.873      8.870
REMARK  Name = 
REMARK  6 active torsions:
REMARK  status: ('A' for Active; 'I' for Inactive)
REMARK    1  A    between atoms: C_1  and  C_2
REMARK    2  A    between atoms: C_6  and  N_7
REMARK    3  A    between atoms: C_14  and  C_15
REMARK    4  A    between atoms: C_15  and  C_16
REMARK    5  A    between atoms: C_16  and  N_17
REMARK    6  A    between atoms: N_17  and  C_18
REMARK                            x       y       z     vdW  Elec       q    Type
REMARK                         _______ _______ _______ _____ _____    ______ ____
ROOT
ATOM      1  N   UNL     1       1.017   9.860  20.011  0.00  0.00    +0.000 N 
ATOM      2  C   UNL     1       1.161   9.365  21.287  0.00  0.00    +0.000 C 
ATOM      3  O   UNL     1       0.903   9.969  22.326  0.00  0.00    +0.000 OA
ATOM      4  N   UNL     1       1.550   8.042  21.368  0.00  0.00    +0.000 N 
ATOM      5  C   UNL     1       1.935   7.307  20.284  0.00  0.00    +0.000 A 
ATOM      6  N   UNL     1       2.151   7.793  19.087  0.00  0.00    +0.000 NA
ATOM      7  C   UNL     1       2.413   6.775  18.218  0.00  0.00    +0.000 A 
ATOM      8  C   UNL     1       2.332   5.502  18.750  0.00  0.00    +0.000 A 
ATOM      9  S   UNL     1       2.068   5.620  20.452  0.00  0.00    +0.000 S 
ATOM     10  H   UNL     1       1.200   9.187  19.273  0.00  0.00    +0.000 HD
ATOM     11  H   UNL     1       1.506   7.609  22.278  0.00  0.00    +0.000 HD
ENDROOT
BRANCH   1  17
ATOM     12  C   UNL     1       2.397  14.221  18.252  0.00  0.00    +0.000 C 
ATOM     13  C   UNL     1       1.307  13.300  18.713  0.00  0.00    +0.000 A 
ATOM     14  C   UNL     1      -0.036  13.685  18.661  0.00  0.00    +0.000 A 
ATOM     15  C   UNL     1      -1.040  12.804  19.070  0.00  0.00    +0.000 A 
ATOM     16  C   UNL     1      -0.721  11.521  19.512  0.00  0.00    +0.000 A 
ATOM     17  C   UNL     1       0.609  11.123  19.571  0.00  0.00    +0.000 A 
ATOM     18  C   UNL     1       1.620  12.023  19.192  0.00  0.00    +0.000 A 
ENDBRANCH   1  17
BRANCH   8  19
ATOM     19  C   UNL     1       2.428   4.182  18.041  0.00  0.00    +0.000 C 
BRANCH  19  20
ATOM     20  C   UNL     1       3.204   3.153  18.881  0.00  0.00    +0.000 C 
BRANCH  20  21
ATOM     21  N   UNL     1       4.474   2.796  18.270  0.00  0.00    +0.000 N 
ATOM     22  H   UNL     1       4.407   2.345  17.362  0.00  0.00    +0.000 HD
BRANCH  21  23
ATOM     23  C   UNL     1       5.387   3.861  18.229  0.00  0.00    +0.000 A 
ATOM     24  N   UNL     1       5.741   4.507  19.365  0.00  0.00    +0.000 NA
ATOM     25  C   UNL     1       6.627   5.512  19.298  0.00  0.00    +0.000 A 
ATOM     26  N   UNL     1       7.226   5.993  18.205  0.00  0.00    +0.000 NA
ATOM     27  C   UNL     1       6.873   5.359  17.061  0.00  0.00    +0.000 A 
ATOM     28  C   UNL     1       7.368   5.680  15.764  0.00  0.00    +0.000 A 
ATOM     29  C   UNL     1       6.829   4.880  14.783  0.00  0.00    +0.000 A 
ATOM     30  S   UNL     1       5.732   3.736  15.423  0.00  0.00    +0.000 S 
ATOM     31  C   UNL     1       5.968   4.303  17.033  0.00  0.00    +0.000 A 
ENDBRANCH  21  23
ENDBRANCH  20  21
ENDBRANCH  19  20
ENDBRANCH   8  19
TORSDOF 5
ENDMDL
MODEL 5
REMARK VINA RESULT:      -8.0      3.169      8.817
REMARK  Name = 
REMARK  6 active torsions:
REMARK  status: ('A' for Active; 'I' for Inactive)
REMARK    1  A    between atoms: C_1  and  C_2
REMARK    2  A    between atoms: C_6  and  N_7
REMARK    3  A    between atoms: C_14  and  C_15
REMARK    4  A    between atoms: C_15  and  C_16
REMARK    5  A    between atoms: C_16  and  N_17
REMARK    6  A    between atoms: N_17  and  C_18
REMARK                            x       y       z     vdW  Elec       q    Type
REMARK                         _______ _______ _______ _____ _____    ______ ____
ROOT
ATOM      1  N   UNL     1       0.701   9.567  19.877  0.00  0.00    +0.000 N 
ATOM      2  C   UNL     1       0.725   9.195  21.201  0.00  0.00    +0.000 C 
ATOM      3  O   UNL     1       0.241   9.830  22.136  0.00  0.00    +0.000 OA
ATOM      4  N   UNL     1       1.274   7.953  21.457  0.00  0.00    +0.000 N 
ATOM      5  C   UNL     1       1.908   7.205  20.507  0.00  0.00    +0.000 A 
ATOM      6  N   UNL     1       2.226   7.627  19.309  0.00  0.00    +0.000 NA
ATOM      7  C   UNL     1       2.747   6.598  18.582  0.00  0.00    +0.000 A 
ATOM      8  C   UNL     1       2.764   5.370  19.215  0.00  0.00    +0.000 A 
ATOM      9  S   UNL     1       2.243   5.573  20.849  0.00  0.00    +0.000 S 
ATOM     10  H   UNL     1       1.078   8.876  19.237  0.00  0.00    +0.000 HD
ATOM     11  H   UNL     1       1.159   7.587  22.390  0.00  0.00    +0.000 HD
ENDROOT
BRANCH   1  17
ATOM     12  C   UNL     1       1.489  14.263  18.714  0.00  0.00    +0.000 C 
ATOM     13  C   UNL     1       0.586  13.065  18.712  0.00  0.00    +0.000 A 
ATOM     14  C   UNL     1      -0.670  13.107  18.100  0.00  0.00    +0.000 A 
ATOM     15  C   UNL     1      -1.487  11.972  18.084  0.00  0.00    +0.000 A 
ATOM     16  C   UNL     1      -1.052  10.779  18.657  0.00  0.00    +0.000 A 
ATOM     17  C   UNL     1       0.193  10.721  19.270  0.00  0.00    +0.000 A 
ATOM     18  C   UNL     1       0.998  11.871  19.316  0.00  0.00    +0.000 A 
ENDBRANCH   1  17
BRANCH   8  19
ATOM     19  C   UNL     1       3.139   4.030  18.652  0.00  0.00    +0.000 C 
BRANCH  19  20
ATOM     20  C   UNL     1       4.400   3.471  19.335  0.00  0.00    +0.000 C 
BRANCH  20  21
ATOM     21  N   UNL     1       5.487   3.268  18.391  0.00  0.00    +0.000 N 
ATOM     22  H   UNL     1       5.453   2.397  17.871  0.00  0.00    +0.000 HD
BRANCH  21  23
ATOM     23  C   UNL     1       5.678   4.356  17.525  0.00  0.00    +0.000 A 
ATOM     24  N   UNL     1       5.028   4.411  16.339  0.00  0.00    +0.000 NA
ATOM     25  C   UNL     1       5.219   5.470  15.536  0.00  0.00    +0.000 A 
ATOM     26  N   UNL     1       6.012   6.522  15.756  0.00  0.00    +0.000 NA
ATOM     27  C   UNL     1       6.674   6.472  16.938  0.00  0.00    +0.000 A 
ATOM     28  C   UNL     1       7.579   7.467  17.409  0.00  0.00    +0.000 A 
ATOM     29  C   UNL     1       8.114   7.152  18.636  0.00  0.00    +0.000 A 
ATOM     30  S   UNL     1       7.522   5.662  19.228  0.00  0.00    +0.000 S 
ATOM     31  C   UNL     1       6.534   5.420  17.836  0.00  0.00    +0.000 A 
ENDBRANCH  21  23
ENDBRANCH  20  21
ENDBRANCH  19  20
ENDBRANCH   8  19
TORSDOF 5
ENDMDL
MODEL 6
REMARK VINA RESULT:      -8.0      1.924      2.855
REMARK  Name = 
REMARK  6 active torsions:
REMARK  status: ('A' for Active; 'I' for Inactive)
REMARK    1  A    between atoms: C_1  and  C_2
REMARK    2  A    between atoms: C_6  and  N_7
REMARK    3  A    between atoms: C_14  and  C_15
REMARK    4  A    between atoms: C_15  and  C_16
REMARK    5  A    between atoms: C_16  and  N_17
REMARK    6  A    between atoms: N_17  and  C_18
REMARK                            x       y       z     vdW  Elec       q    Type
REMARK                         _______ _______ _______ _____ _____    ______ ____
ROOT
ATOM      1  N   UNL     1       6.350   4.203  13.970  0.00  0.00    +0.000 N 
ATOM      2  C   UNL     1       7.325   5.146  14.200  0.00  0.00    +0.000 C 
ATOM      3  O   UNL     1       8.126   5.569  13.369  0.00  0.00    +0.000 OA
ATOM      4  N   UNL     1       7.321   5.706  15.463  0.00  0.00    +0.000 N 
ATOM      5  C   UNL     1       6.529   5.255  16.479  0.00  0.00    +0.000 A 
ATOM      6  N   UNL     1       5.822   4.153  16.446  0.00  0.00    +0.000 NA
ATOM      7  C   UNL     1       5.065   4.058  17.577  0.00  0.00    +0.000 A 
ATOM      8  C   UNL     1       5.154   5.130  18.445  0.00  0.00    +0.000 A 
ATOM      9  S   UNL     1       6.364   6.219  17.870  0.00  0.00    +0.000 S 
ATOM     10  H   UNL     1       5.727   4.039  14.754  0.00  0.00    +0.000 HD
ATOM     11  H   UNL     1       7.914   6.509  15.607  0.00  0.00    +0.000 HD
ENDROOT
BRANCH   1  17
ATOM     12  C   UNL     1       3.014   3.204  10.521  0.00  0.00    +0.000 C 
ATOM     13  C   UNL     1       4.374   2.970  11.111  0.00  0.00    +0.000 A 
ATOM     14  C   UNL     1       5.286   2.103  10.503  0.00  0.00    +0.000 A 
ATOM     15  C   UNL     1       6.558   1.918  11.051  0.00  0.00    +0.000 A 
ATOM     16  C   UNL     1       6.944   2.612  12.196  0.00  0.00    +0.000 A 
ATOM     17  C   UNL     1       6.048   3.476  12.813  0.00  0.00    +0.000 A 
ATOM     18  C   UNL     1       4.758   3.635  12.281  0.00  0.00    +0.000 A 
ENDBRANCH   1  17
BRANCH   8  19
ATOM     19  C   UNL     1       4.360   5.395  19.691  0.00  0.00    +0.000 C 
BRANCH  19  20
ATOM     20  C   UNL     1       2.887   5.697  19.361  0.00  0.00    +0.000 C 
BRANCH  20  21
ATOM     21  N   UNL     1       2.309   6.663  20.281  0.00  0.00    +0.000 N 
ATOM     22  H   UNL     1       2.860   6.851  21.114  0.00  0.00    +0.000 HD
BRANCH  21  23
ATOM     23  C   UNL     1       1.925   7.860  19.658  0.00  0.00    +0.000 A 
ATOM     24  N   UNL     1       2.203   8.074  18.351  0.00  0.00    +0.000 NA
ATOM     25  C   UNL     1       1.812   9.223  17.777  0.00  0.00    +0.000 A 
ATOM     26  N   UNL     1       1.164  10.238  18.355  0.00  0.00    +0.000 NA
ATOM     27  C   UNL     1       0.888  10.037  19.667  0.00  0.00    +0.000 A 
ATOM     28  C   UNL     1       0.208  10.964  20.509  0.00  0.00    +0.000 A 
ATOM     29  C   UNL     1       0.075  10.503  21.798  0.00  0.00    +0.000 A 
ATOM     30  S   UNL     1       0.761   8.951  21.995  0.00  0.00    +0.000 S 
ATOM     31  C   UNL     1       1.248   8.877  20.344  0.00  0.00    +0.000 A 
ENDBRANCH  21  23
ENDBRANCH  20  21
ENDBRANCH  19  20
ENDBRANCH   8  19
TORSDOF 5
ENDMDL
MODEL 7
REMARK VINA RESULT:      -8.0      2.854      9.085
REMARK  Name = 
REMARK  6 active torsions:
REMARK  status: ('A' for Active; 'I' for Inactive)
REMARK    1  A    between atoms: C_1  and  C_2
REMARK    2  A    between atoms: C_6  and  N_7
REMARK    3  A    between atoms: C_14  and  C_15
REMARK    4  A    between atoms: C_15  and  C_16
REMARK    5  A    between atoms: C_16  and  N_17
REMARK    6  A    between atoms: N_17  and  C_18
REMARK                            x       y       z     vdW  Elec       q    Type
REMARK                         _______ _______ _______ _____ _____    ______ ____
ROOT
ATOM      1  N   UNL     1       0.917   9.799  20.198  0.00  0.00    +0.000 N 
ATOM      2  C   UNL     1       1.151   9.252  21.439  0.00  0.00    +0.000 C 
ATOM      3  O   UNL     1       0.925   9.794  22.519  0.00  0.00    +0.000 OA
ATOM      4  N   UNL     1       1.601   7.945  21.435  0.00  0.00    +0.000 N 
ATOM      5  C   UNL     1       1.958   7.281  20.297  0.00  0.00    +0.000 A 
ATOM      6  N   UNL     1       2.087   7.831  19.116  0.00  0.00    +0.000 NA
ATOM      7  C   UNL     1       2.346   6.869  18.185  0.00  0.00    +0.000 A 
ATOM      8  C   UNL     1       2.349   5.570  18.657  0.00  0.00    +0.000 A 
ATOM      9  S   UNL     1       2.173   5.595  20.375  0.00  0.00    +0.000 S 
ATOM     10  H   UNL     1       1.088   9.170  19.420  0.00  0.00    +0.000 HD
ATOM     11  H   UNL     1       1.626   7.469  22.324  0.00  0.00    +0.000 HD
ENDROOT
BRANCH   1  17
ATOM     12  C   UNL     1      -2.908  12.863  20.221  0.00  0.00    +0.000 C 
ATOM     13  C   UNL     1      -1.486  12.574  19.841  0.00  0.00    +0.000 A 
ATOM     14  C   UNL     1      -0.697  13.537  19.206  0.00  0.00    +0.000 A 
ATOM     15  C   UNL     1       0.635  13.260  18.885  0.00  0.00    +0.000 A 
ATOM     16  C   UNL     1       1.202  12.030  19.213  0.00  0.00    +0.000 A 
ATOM     17  C   UNL     1       0.430  11.061  19.843  0.00  0.00    +0.000 A 
ATOM     18  C   UNL     1      -0.917  11.329  20.135  0.00  0.00    +0.000 A 
ENDBRANCH   1  17
BRANCH   8  19
ATOM     19  C   UNL     1       2.464   4.291  17.880  0.00  0.00    +0.000 C 
BRANCH  19  20
ATOM     20  C   UNL     1       3.151   3.193  18.711  0.00  0.00    +0.000 C 
BRANCH  20  21
ATOM     21  N   UNL     1       4.433   2.803  18.145  0.00  0.00    +0.000 N 
ATOM     22  H   UNL     1       4.387   2.352  17.236  0.00  0.00    +0.000 HD
BRANCH  21  23
ATOM     23  C   UNL     1       5.373   3.845  18.135  0.00  0.00    +0.000 A 
ATOM     24  N   UNL     1       5.734   4.455  19.288  0.00  0.00    +0.000 NA
ATOM     25  C   UNL     1       6.646   5.439  19.251  0.00  0.00    +0.000 A 
ATOM     26  N   UNL     1       7.266   5.929  18.175  0.00  0.00    +0.000 NA
ATOM     27  C   UNL     1       6.906   5.330  17.014  0.00  0.00    +0.000 A 
ATOM     28  C   UNL     1       7.419   5.667  15.728  0.00  0.00    +0.000 A 
ATOM     29  C   UNL     1       6.868   4.905  14.725  0.00  0.00    +0.000 A 
ATOM     30  S   UNL     1       5.737   3.775  15.330  0.00  0.00    +0.000 S 
ATOM     31  C   UNL     1       5.975   4.299  16.955  0.00  0.00    +0.000 A 
ENDBRANCH  21  23
ENDBRANCH  20  21
ENDBRANCH  19  20
ENDBRANCH   8  19
TORSDOF 5
ENDMDL
MODEL 8
REMARK VINA RESULT:      -8.0      3.434      5.248
REMARK  Name = 
REMARK  6 active torsions:
REMARK  status: ('A' for Active; 'I' for Inactive)
REMARK    1  A    between atoms: C_1  and  C_2
REMARK    2  A    between atoms: C_6  and  N_7
REMARK    3  A    between atoms: C_14  and  C_15
REMARK    4  A    between atoms: C_15  and  C_16
REMARK    5  A    between atoms: C_16  and  N_17
REMARK    6  A    between atoms: N_17  and  C_18
REMARK                            x       y       z     vdW  Elec       q    Type
REMARK                         _______ _______ _______ _____ _____    ______ ____
ROOT
ATOM      1  N   UNL     1       4.113   6.058  18.465  0.00  0.00    +0.000 N 
ATOM      2  C   UNL     1       3.443   5.578  19.567  0.00  0.00    +0.000 C 
ATOM      3  O   UNL     1       3.686   4.528  20.156  0.00  0.00    +0.000 OA
ATOM      4  N   UNL     1       2.473   6.418  20.081  0.00  0.00    +0.000 N 
ATOM      5  C   UNL     1       2.071   7.566  19.461  0.00  0.00    +0.000 A 
ATOM      6  N   UNL     1       2.412   7.922  18.248  0.00  0.00    +0.000 NA
ATOM      7  C   UNL     1       1.929   9.169  17.981  0.00  0.00    +0.000 A 
ATOM      8  C   UNL     1       1.269   9.788  19.026  0.00  0.00    +0.000 A 
ATOM      9  S   UNL     1       1.126   8.675  20.339  0.00  0.00    +0.000 S 
ATOM     10  H   UNL     1       3.825   6.984  18.165  0.00  0.00    +0.000 HD
ATOM     11  H   UNL     1       2.082   6.167  20.977  0.00  0.00    +0.000 HD
ENDROOT
BRANCH   1  17
ATOM     12  C   UNL     1       5.556   4.224  14.155  0.00  0.00    +0.000 C 
ATOM     13  C   UNL     1       5.864   4.566  15.583  0.00  0.00    +0.000 A 
ATOM     14  C   UNL     1       7.141   4.364  16.115  0.00  0.00    +0.000 A 
ATOM     15  C   UNL     1       7.418   4.714  17.439  0.00  0.00    +0.000 A 
ATOM     16  C   UNL     1       6.434   5.290  18.240  0.00  0.00    +0.000 A 
ATOM     17  C   UNL     1       5.160   5.496  17.727  0.00  0.00    +0.000 A 
ATOM     18  C   UNL     1       4.873   5.112  16.406  0.00  0.00    +0.000 A 
ENDBRANCH   1  17
BRANCH   8  19
ATOM     19  C   UNL     1       0.746  11.193  19.103  0.00  0.00    +0.000 C 
BRANCH  19  20
ATOM     20  C   UNL     1      -0.626  11.239  19.800  0.00  0.00    +0.000 C 
BRANCH  20  21
ATOM     21  N   UNL     1      -1.425  12.369  19.355  0.00  0.00    +0.000 N 
ATOM     22  H   UNL     1      -0.915  13.091  18.854  0.00  0.00    +0.000 HD
BRANCH  21  23
ATOM     23  C   UNL     1      -2.574  11.989  18.644  0.00  0.00    +0.000 A 
ATOM     24  N   UNL     1      -2.470  11.482  17.394  0.00  0.00    +0.000 NA
ATOM     25  C   UNL     1      -3.585  11.113  16.742  0.00  0.00    +0.000 A 
ATOM     26  N   UNL     1      -4.844  11.196  17.179  0.00  0.00    +0.000 NA
ATOM     27  C   UNL     1      -4.959  11.711  18.428  0.00  0.00    +0.000 A 
ATOM     28  C   UNL     1      -6.189  11.904  19.121  0.00  0.00    +0.000 A 
ATOM     29  C   UNL     1      -6.009  12.454  20.368  0.00  0.00    +0.000 A 
ATOM     30  S   UNL     1      -4.357  12.731  20.711  0.00  0.00    +0.000 S 
ATOM     31  C   UNL     1      -3.861  12.113  19.181  0.00  0.00    +0.000 A 
ENDBRANCH  21  23
ENDBRANCH  20  21
ENDBRANCH  19  20
ENDBRANCH   8  19
TORSDOF 5
ENDMDL
MODEL 9
REMARK VINA RESULT:      -7.9      4.245      6.819
REMARK  Name = 
REMARK  6 active torsions:
REMARK  status: ('A' for Active; 'I' for Inactive)
REMARK    1  A    between atoms: C_1  and  C_2
REMARK    2  A    between atoms: C_6  and  N_7
REMARK    3  A    between atoms: C_14  and  C_15
REMARK    4  A    between atoms: C_15  and  C_16
REMARK    5  A    between atoms: C_16  and  N_17
REMARK    6  A    between atoms: N_17  and  C_18
REMARK                            x       y       z     vdW  Elec       q    Type
REMARK                         _______ _______ _______ _____ _____    ______ ____
ROOT
ATOM      1  N   UNL     1       2.240   6.276  18.571  0.00  0.00    +0.000 N 
ATOM      2  C   UNL     1       3.198   6.931  17.831  0.00  0.00    +0.000 C 
ATOM      3  O   UNL     1       4.080   6.397  17.162  0.00  0.00    +0.000 OA
ATOM      4  N   UNL     1       3.077   8.307  17.791  0.00  0.00    +0.000 N 
ATOM      5  C   UNL     1       2.185   9.002  18.557  0.00  0.00    +0.000 A 
ATOM      6  N   UNL     1       1.473   8.491  19.530  0.00  0.00    +0.000 NA
ATOM      7  C   UNL     1       0.610   9.430  20.011  0.00  0.00    +0.000 A 
ATOM      8  C   UNL     1       0.624  10.646  19.353  0.00  0.00    +0.000 A 
ATOM      9  S   UNL     1       1.896  10.636  18.184  0.00  0.00    +0.000 S 
ATOM     10  H   UNL     1       1.543   6.882  18.991  0.00  0.00    +0.000 HD
ATOM     11  H   UNL     1       3.661   8.797  17.131  0.00  0.00    +0.000 HD
ENDROOT
BRANCH   1  17
ATOM     12  C   UNL     1       1.630   2.711  21.878  0.00  0.00    +0.000 C 
ATOM     13  C   UNL     1       1.761   3.137  20.445  0.00  0.00    +0.000 A 
ATOM     14  C   UNL     1       1.652   2.211  19.404  0.00  0.00    +0.000 A 
ATOM     15  C   UNL     1       1.750   2.630  18.074  0.00  0.00    +0.000 A 
ATOM     16  C   UNL     1       1.933   3.977  17.767  0.00  0.00    +0.000 A 
ATOM     17  C   UNL     1       2.045   4.909  18.791  0.00  0.00    +0.000 A 
ATOM     18  C   UNL     1       1.981   4.482  20.128  0.00  0.00    +0.000 A 
ENDBRANCH   1  17
BRANCH   8  19
ATOM     19  C   UNL     1      -0.284  11.825  19.543  0.00  0.00    +0.000 C 
BRANCH  19  20
ATOM     20  C   UNL     1      -1.719  11.503  19.089  0.00  0.00    +0.000 C 
BRANCH  20  21
ATOM     21  N   UNL     1      -2.570  12.682  19.093  0.00  0.00    +0.000 N 
ATOM     22  H   UNL     1      -2.842  13.024  18.176  0.00  0.00    +0.000 HD
BRANCH  21  23
ATOM     23  C   UNL     1      -3.692  12.552  19.927  0.00  0.00    +0.000 A 
ATOM     24  N   UNL     1      -3.597  12.816  21.251  0.00  0.00    +0.000 NA
ATOM     25  C   UNL     1      -4.689  12.697  22.022  0.00  0.00    +0.000 A 
ATOM     26  N   UNL     1      -5.914  12.324  21.641  0.00  0.00    +0.000 NA
ATOM     27  C   UNL     1      -6.017  12.050  20.318  0.00  0.00    +0.000 A 
ATOM     28  C   UNL     1      -7.211  11.632  19.662  0.00  0.00    +0.000 A 
ATOM     29  C   UNL     1      -7.023  11.414  18.317  0.00  0.00    +0.000 A 
ATOM     30  S   UNL     1      -5.411  11.720  17.839  0.00  0.00    +0.000 S 
ATOM     31  C   UNL     1      -4.943  12.151  19.441  0.00  0.00    +0.000 A 
ENDBRANCH  21  23
ENDBRANCH  20  21
ENDBRANCH  19  20
ENDBRANCH   8  19
TORSDOF 5
ENDMDL
