MODEL 1
REMARK VINA RESULT:      -6.8      0.000      0.000
REMARK  Name = 
REMARK  3 active torsions:
REMARK  status: ('A' for Active; 'I' for Inactive)
REMARK    1  A    between atoms: C_1  and  N_2
REMARK    2  A    between atoms: C_4  and  C_5
REMARK    3  A    between atoms: C_10  and  C_11
REMARK                            x       y       z     vdW  Elec       q    Type
REMARK                         _______ _______ _______ _____ _____    ______ ____
ROOT
ATOM      1  C   UNL     1       1.875   6.780  19.665  0.00  0.00    +0.000 C 
ATOM      2  O   UNL     1       1.524   5.986  20.548  0.00  0.00    +0.000 OA
ATOM      3  N   UNL     1       1.881   8.160  19.917  0.00  0.00    +0.000 N 
ATOM      4  C   UNL     1       1.669   8.633  21.294  0.00  0.00    +0.000 C 
ATOM      5  C   UNL     1       0.349   9.387  21.542  0.00  0.00    +0.000 C 
ATOM      6  C   UNL     1       0.364  10.819  20.971  0.00  0.00    +0.000 C 
ATOM      7  S   UNL     1      -0.185  10.939  19.245  0.00  0.00    +0.000 S 
ATOM      8  O   UNL     1       0.547  12.019  18.611  0.00  0.00    +0.000 OA
ATOM      9  O   UNL     1      -1.630  10.878  19.160  0.00  0.00    +0.000 OA
ATOM     10  C   UNL     1       0.397   9.450  18.494  0.00  0.00    +0.000 C 
ATOM     11  C   UNL     1       1.842   9.176  18.865  0.00  0.00    +0.000 C 
ENDROOT
BRANCH   1  15
ATOM     12  C   UNL     1       5.686   4.366  18.345  0.00  0.00    +0.000 C 
ATOM     13  N   UNL     1       4.323   4.839  18.346  0.00  0.00    +0.000 N 
ATOM     14  C   UNL     1       3.976   6.238  18.308  0.00  0.00    +0.000 C 
ATOM     15  C   UNL     1       2.446   6.269  18.331  0.00  0.00    +0.000 C 
ATOM     16  C   UNL     1       2.036   4.856  17.916  0.00  0.00    +0.000 C 
ATOM     17  C   UNL     1       3.273   4.019  18.010  0.00  0.00    +0.000 C 
ATOM     18  O   UNL     1       3.316   2.819  17.795  0.00  0.00    +0.000 OA
ENDBRANCH   1  15
BRANCH   6  19
ATOM     19  C   UNL     1      -0.440  11.813  21.795  0.00  0.00    +0.000 A 
ATOM     20  C   UNL     1      -1.610  11.397  22.461  0.00  0.00    +0.000 A 
ATOM     21  C   UNL     1      -2.348  12.278  23.250  0.00  0.00    +0.000 A 
ATOM     22  C   UNL     1      -1.915  13.589  23.422  0.00  0.00    +0.000 A 
ATOM     23  C   UNL     1      -0.766  14.027  22.769  0.00  0.00    +0.000 A 
ATOM     24  C   UNL     1      -0.045  13.157  21.944  0.00  0.00    +0.000 A 
ATOM     25 CL   UNL     1       1.341  13.816  21.144  0.00  0.00    +0.000 Cl
ENDBRANCH   6  19
TORSDOF 2
ENDMDL
MODEL 2
REMARK VINA RESULT:      -6.4      2.501      3.285
REMARK  Name = 
REMARK  3 active torsions:
REMARK  status: ('A' for Active; 'I' for Inactive)
REMARK    1  A    between atoms: C_1  and  N_2
REMARK    2  A    between atoms: C_4  and  C_5
REMARK    3  A    between atoms: C_10  and  C_11
REMARK                            x       y       z     vdW  Elec       q    Type
REMARK                         _______ _______ _______ _____ _____    ______ ____
ROOT
ATOM      1  C   UNL     1       3.605   6.979  18.030  0.00  0.00    +0.000 C 
ATOM      2  O   UNL     1       4.343   7.719  17.366  0.00  0.00    +0.000 OA
ATOM      3  N   UNL     1       2.320   7.407  18.396  0.00  0.00    +0.000 N 
ATOM      4  C   UNL     1       1.788   8.647  17.809  0.00  0.00    +0.000 C 
ATOM      5  C   UNL     1       1.605   9.821  18.790  0.00  0.00    +0.000 C 
ATOM      6  C   UNL     1       0.383   9.643  19.713  0.00  0.00    +0.000 C 
ATOM      7  S   UNL     1       0.734   8.743  21.249  0.00  0.00    +0.000 S 
ATOM      8  O   UNL     1      -0.451   7.991  21.614  0.00  0.00    +0.000 OA
ATOM      9  O   UNL     1       1.386   9.607  22.214  0.00  0.00    +0.000 OA
ATOM     10  C   UNL     1       1.948   7.545  20.790  0.00  0.00    +0.000 C 
ATOM     11  C   UNL     1       1.562   6.834  19.508  0.00  0.00    +0.000 C 
ENDROOT
BRANCH   1  15
ATOM     12  C   UNL     1       6.043   3.630  15.810  0.00  0.00    +0.000 C 
ATOM     13  N   UNL     1       5.519   4.419  16.897  0.00  0.00    +0.000 N 
ATOM     14  C   UNL     1       4.109   4.652  17.092  0.00  0.00    +0.000 C 
ATOM     15  C   UNL     1       4.020   5.531  18.342  0.00  0.00    +0.000 C 
ATOM     16  C   UNL     1       5.374   5.347  19.027  0.00  0.00    +0.000 C 
ATOM     17  C   UNL     1       6.264   4.690  18.020  0.00  0.00    +0.000 C 
ATOM     18  O   UNL     1       7.441   4.427  18.202  0.00  0.00    +0.000 OA
ENDBRANCH   1  15
BRANCH   6  19
ATOM     19  C   UNL     1      -0.304  10.951  20.074  0.00  0.00    +0.000 A 
ATOM     20  C   UNL     1       0.256  11.797  21.051  0.00  0.00    +0.000 A 
ATOM     21  C   UNL     1      -0.334  13.017  21.379  0.00  0.00    +0.000 A 
ATOM     22  C   UNL     1      -1.480  13.438  20.712  0.00  0.00    +0.000 A 
ATOM     23  C   UNL     1      -2.057  12.616  19.747  0.00  0.00    +0.000 A 
ATOM     24  C   UNL     1      -1.490  11.374  19.444  0.00  0.00    +0.000 A 
ATOM     25 CL   UNL     1      -2.313  10.413  18.264  0.00  0.00    +0.000 Cl
ENDBRANCH   6  19
TORSDOF 2
ENDMDL
MODEL 3
REMARK VINA RESULT:      -6.2      1.572      1.794
REMARK  Name = 
REMARK  3 active torsions:
REMARK  status: ('A' for Active; 'I' for Inactive)
REMARK    1  A    between atoms: C_1  and  N_2
REMARK    2  A    between atoms: C_4  and  C_5
REMARK    3  A    between atoms: C_10  and  C_11
REMARK                            x       y       z     vdW  Elec       q    Type
REMARK                         _______ _______ _______ _____ _____    ______ ____
ROOT
ATOM      1  C   UNL     1       1.963   6.186  19.911  0.00  0.00    +0.000 C 
ATOM      2  O   UNL     1       1.299   5.472  20.675  0.00  0.00    +0.000 OA
ATOM      3  N   UNL     1       1.975   7.579  20.078  0.00  0.00    +0.000 N 
ATOM      4  C   UNL     1       1.367   8.157  21.286  0.00  0.00    +0.000 C 
ATOM      5  C   UNL     1       0.088   8.984  21.055  0.00  0.00    +0.000 C 
ATOM      6  C   UNL     1       0.375  10.369  20.443  0.00  0.00    +0.000 C 
ATOM      7  S   UNL     1       0.413  10.390  18.629  0.00  0.00    +0.000 S 
ATOM      8  O   UNL     1       1.376  11.390  18.208  0.00  0.00    +0.000 OA
ATOM      9  O   UNL     1      -0.931  10.386  18.086  0.00  0.00    +0.000 OA
ATOM     10  C   UNL     1       1.109   8.828  18.186  0.00  0.00    +0.000 C 
ATOM     11  C   UNL     1       2.339   8.518  19.016  0.00  0.00    +0.000 C 
ENDROOT
BRANCH   1  15
ATOM     12  C   UNL     1       4.209   2.084  19.437  0.00  0.00    +0.000 C 
ATOM     13  N   UNL     1       3.504   3.287  19.064  0.00  0.00    +0.000 N 
ATOM     14  C   UNL     1       3.926   4.604  19.471  0.00  0.00    +0.000 C 
ATOM     15  C   UNL     1       2.896   5.557  18.861  0.00  0.00    +0.000 C 
ATOM     16  C   UNL     1       2.222   4.731  17.766  0.00  0.00    +0.000 C 
ATOM     17  C   UNL     1       2.621   3.310  18.011  0.00  0.00    +0.000 C 
ATOM     18  O   UNL     1       2.233   2.358  17.355  0.00  0.00    +0.000 OA
ENDBRANCH   1  15
BRANCH   6  19
ATOM     19  C   UNL     1      -0.585  11.453  20.910  0.00  0.00    +0.000 A 
ATOM     20  C   UNL     1      -0.941  12.504  20.043  0.00  0.00    +0.000 A 
ATOM     21  C   UNL     1      -1.845  13.492  20.433  0.00  0.00    +0.000 A 
ATOM     22  C   UNL     1      -2.441  13.434  21.688  0.00  0.00    +0.000 A 
ATOM     23  C   UNL     1      -2.100  12.410  22.567  0.00  0.00    +0.000 A 
ATOM     24  C   UNL     1      -1.164  11.439  22.194  0.00  0.00    +0.000 A 
ATOM     25 CL   UNL     1      -0.779  10.237  23.378  0.00  0.00    +0.000 Cl
ENDBRANCH   6  19
TORSDOF 2
ENDMDL
MODEL 4
REMARK VINA RESULT:      -6.2      3.595      8.712
REMARK  Name = 
REMARK  3 active torsions:
REMARK  status: ('A' for Active; 'I' for Inactive)
REMARK    1  A    between atoms: C_1  and  N_2
REMARK    2  A    between atoms: C_4  and  C_5
REMARK    3  A    between atoms: C_10  and  C_11
REMARK                            x       y       z     vdW  Elec       q    Type
REMARK                         _______ _______ _______ _____ _____    ______ ____
ROOT
ATOM      1  C   UNL     1      -2.816  12.742  21.150  0.00  0.00    +0.000 C 
ATOM      2  O   UNL     1      -3.484  12.678  20.109  0.00  0.00    +0.000 OA
ATOM      3  N   UNL     1      -1.507  12.235  21.182  0.00  0.00    +0.000 N 
ATOM      4  C   UNL     1      -0.872  11.824  19.921  0.00  0.00    +0.000 C 
ATOM      5  C   UNL     1      -0.615  10.312  19.769  0.00  0.00    +0.000 C 
ATOM      6  C   UNL     1       0.575   9.821  20.617  0.00  0.00    +0.000 C 
ATOM      7  S   UNL     1       0.131   9.320  22.304  0.00  0.00    +0.000 S 
ATOM      8  O   UNL     1       1.248   9.627  23.177  0.00  0.00    +0.000 OA
ATOM      9  O   UNL     1      -0.467   8.000  22.308  0.00  0.00    +0.000 OA
ATOM     10  C   UNL     1      -1.165  10.428  22.766  0.00  0.00    +0.000 C 
ATOM     11  C   UNL     1      -0.814  11.861  22.415  0.00  0.00    +0.000 C 
ENDROOT
BRANCH   1  15
ATOM     12  C   UNL     1      -6.952  14.556  22.452  0.00  0.00    +0.000 C 
ATOM     13  N   UNL     1      -5.660  13.925  22.568  0.00  0.00    +0.000 N 
ATOM     14  C   UNL     1      -4.451  14.501  22.032  0.00  0.00    +0.000 C 
ATOM     15  C   UNL     1      -3.346  13.501  22.379  0.00  0.00    +0.000 C 
ATOM     16  C   UNL     1      -3.949  12.646  23.494  0.00  0.00    +0.000 C 
ATOM     17  C   UNL     1      -5.415  12.943  23.498  0.00  0.00    +0.000 C 
ATOM     18  O   UNL     1      -6.229  12.406  24.232  0.00  0.00    +0.000 OA
ENDBRANCH   1  15
BRANCH   6  19
ATOM     19  C   UNL     1       1.355   8.685  19.974  0.00  0.00    +0.000 A 
ATOM     20  C   UNL     1       1.459   7.441  20.627  0.00  0.00    +0.000 A 
ATOM     21  C   UNL     1       2.140   6.372  20.045  0.00  0.00    +0.000 A 
ATOM     22  C   UNL     1       2.702   6.509  18.781  0.00  0.00    +0.000 A 
ATOM     23  C   UNL     1       2.619   7.731  18.118  0.00  0.00    +0.000 A 
ATOM     24  C   UNL     1       1.972   8.818  18.715  0.00  0.00    +0.000 A 
ATOM     25 CL   UNL     1       1.965  10.301  17.825  0.00  0.00    +0.000 Cl
ENDBRANCH   6  19
TORSDOF 2
ENDMDL
MODEL 5
REMARK VINA RESULT:      -6.2      2.970      3.694
REMARK  Name = 
REMARK  3 active torsions:
REMARK  status: ('A' for Active; 'I' for Inactive)
REMARK    1  A    between atoms: C_1  and  N_2
REMARK    2  A    between atoms: C_4  and  C_5
REMARK    3  A    between atoms: C_10  and  C_11
REMARK                            x       y       z     vdW  Elec       q    Type
REMARK                         _______ _______ _______ _____ _____    ______ ____
ROOT
ATOM      1  C   UNL     1       3.626   6.012  18.896  0.00  0.00    +0.000 C 
ATOM      2  O   UNL     1       4.597   6.344  18.203  0.00  0.00    +0.000 OA
ATOM      3  N   UNL     1       2.440   6.762  18.856  0.00  0.00    +0.000 N 
ATOM      4  C   UNL     1       2.295   7.811  17.836  0.00  0.00    +0.000 C 
ATOM      5  C   UNL     1       2.266   9.256  18.370  0.00  0.00    +0.000 C 
ATOM      6  C   UNL     1       0.926   9.617  19.042  0.00  0.00    +0.000 C 
ATOM      7  S   UNL     1       0.853   9.230  20.813  0.00  0.00    +0.000 S 
ATOM      8  O   UNL     1      -0.513   8.867  21.142  0.00  0.00    +0.000 OA
ATOM      9  O   UNL     1       1.557  10.232  21.589  0.00  0.00    +0.000 OA
ATOM     10  C   UNL     1       1.802   7.749  20.980  0.00  0.00    +0.000 C 
ATOM     11  C   UNL     1       1.430   6.735  19.915  0.00  0.00    +0.000 C 
ENDROOT
BRANCH   1  15
ATOM     12  C   UNL     1       1.071   2.067  18.947  0.00  0.00    +0.000 C 
ATOM     13  N   UNL     1       2.222   2.929  19.057  0.00  0.00    +0.000 N 
ATOM     14  C   UNL     1       2.252   4.100  19.898  0.00  0.00    +0.000 C 
ATOM     15  C   UNL     1       3.646   4.699  19.697  0.00  0.00    +0.000 C 
ATOM     16  C   UNL     1       4.464   3.554  19.101  0.00  0.00    +0.000 C 
ATOM     17  C   UNL     1       3.476   2.513  18.678  0.00  0.00    +0.000 C 
ATOM     18  O   UNL     1       3.767   1.470  18.116  0.00  0.00    +0.000 OA
ENDBRANCH   1  15
BRANCH   6  19
ATOM     19  C   UNL     1       0.524  11.072  18.857  0.00  0.00    +0.000 A 
ATOM     20  C   UNL     1       1.483  12.094  18.994  0.00  0.00    +0.000 A 
ATOM     21  C   UNL     1       1.149  13.434  18.798  0.00  0.00    +0.000 A 
ATOM     22  C   UNL     1      -0.144  13.782  18.424  0.00  0.00    +0.000 A 
ATOM     23  C   UNL     1      -1.113  12.791  18.290  0.00  0.00    +0.000 A 
ATOM     24  C   UNL     1      -0.792  11.450  18.525  0.00  0.00    +0.000 A 
ATOM     25 CL   UNL     1      -2.081  10.305  18.374  0.00  0.00    +0.000 Cl
ENDBRANCH   6  19
TORSDOF 2
ENDMDL
MODEL 6
REMARK VINA RESULT:      -6.1      1.444      1.593
REMARK  Name = 
REMARK  3 active torsions:
REMARK  status: ('A' for Active; 'I' for Inactive)
REMARK    1  A    between atoms: C_1  and  N_2
REMARK    2  A    between atoms: C_4  and  C_5
REMARK    3  A    between atoms: C_10  and  C_11
REMARK                            x       y       z     vdW  Elec       q    Type
REMARK                         _______ _______ _______ _____ _____    ______ ____
ROOT
ATOM      1  C   UNL     1       2.240   6.356  19.142  0.00  0.00    +0.000 C 
ATOM      2  O   UNL     1       1.798   5.465  19.880  0.00  0.00    +0.000 OA
ATOM      3  N   UNL     1       2.126   7.703  19.516  0.00  0.00    +0.000 N 
ATOM      4  C   UNL     1       1.670   8.029  20.876  0.00  0.00    +0.000 C 
ATOM      5  C   UNL     1       0.286   8.700  20.970  0.00  0.00    +0.000 C 
ATOM      6  C   UNL     1       0.310  10.180  20.541  0.00  0.00    +0.000 C 
ATOM      7  S   UNL     1       0.039  10.446  18.767  0.00  0.00    +0.000 S 
ATOM      8  O   UNL     1       0.800  11.613  18.362  0.00  0.00    +0.000 OA
ATOM      9  O   UNL     1      -1.369  10.334  18.439  0.00  0.00    +0.000 OA
ATOM     10  C   UNL     1       0.818   9.065  17.990  0.00  0.00    +0.000 C 
ATOM     11  C   UNL     1       2.198   8.815  18.567  0.00  0.00    +0.000 C 
ENDROOT
BRANCH   1  15
ATOM     12  C   UNL     1       6.518   4.620  18.261  0.00  0.00    +0.000 C 
ATOM     13  N   UNL     1       5.108   4.878  18.099  0.00  0.00    +0.000 N 
ATOM     14  C   UNL     1       4.551   6.208  18.055  0.00  0.00    +0.000 C 
ATOM     15  C   UNL     1       3.045   6.003  17.880  0.00  0.00    +0.000 C 
ATOM     16  C   UNL     1       2.918   4.566  17.376  0.00  0.00    +0.000 C 
ATOM     17  C   UNL     1       4.250   3.925  17.606  0.00  0.00    +0.000 C 
ATOM     18  O   UNL     1       4.508   2.757  17.364  0.00  0.00    +0.000 OA
ENDBRANCH   1  15
BRANCH   6  19
ATOM     19  C   UNL     1      -0.671  11.054  21.308  0.00  0.00    +0.000 A 
ATOM     20  C   UNL     1      -1.352  12.097  20.651  0.00  0.00    +0.000 A 
ATOM     21  C   UNL     1      -2.282  12.892  21.321  0.00  0.00    +0.000 A 
ATOM     22  C   UNL     1      -2.580  12.640  22.656  0.00  0.00    +0.000 A 
ATOM     23  C   UNL     1      -1.914  11.619  23.330  0.00  0.00    +0.000 A 
ATOM     24  C   UNL     1      -0.952  10.845  22.672  0.00  0.00    +0.000 A 
ATOM     25 CL   UNL     1      -0.154   9.634  23.615  0.00  0.00    +0.000 Cl
ENDBRANCH   6  19
TORSDOF 2
ENDMDL
MODEL 7
REMARK VINA RESULT:      -5.9      3.070      8.637
REMARK  Name = 
REMARK  3 active torsions:
REMARK  status: ('A' for Active; 'I' for Inactive)
REMARK    1  A    between atoms: C_1  and  N_2
REMARK    2  A    between atoms: C_4  and  C_5
REMARK    3  A    between atoms: C_10  and  C_11
REMARK                            x       y       z     vdW  Elec       q    Type
REMARK                         _______ _______ _______ _____ _____    ______ ____
ROOT
ATOM      1  C   UNL     1       0.861   9.436  18.672  0.00  0.00    +0.000 C 
ATOM      2  O   UNL     1       0.709  10.012  17.587  0.00  0.00    +0.000 OA
ATOM      3  N   UNL     1       2.028   8.699  18.923  0.00  0.00    +0.000 N 
ATOM      4  C   UNL     1       3.147   8.792  17.972  0.00  0.00    +0.000 C 
ATOM      5  C   UNL     1       3.448   7.509  17.174  0.00  0.00    +0.000 C 
ATOM      6  C   UNL     1       4.155   6.432  18.020  0.00  0.00    +0.000 C 
ATOM      7  S   UNL     1       3.027   5.316  18.900  0.00  0.00    +0.000 S 
ATOM      8  O   UNL     1       3.657   4.928  20.148  0.00  0.00    +0.000 OA
ATOM      9  O   UNL     1       2.489   4.314  18.002  0.00  0.00    +0.000 OA
ATOM     10  C   UNL     1       1.657   6.338  19.345  0.00  0.00    +0.000 C 
ATOM     11  C   UNL     1       2.122   7.653  19.941  0.00  0.00    +0.000 C 
ENDROOT
BRANCH   1  15
ATOM     12  C   UNL     1      -0.127  12.866  21.731  0.00  0.00    +0.000 C 
ATOM     13  N   UNL     1      -0.339  11.750  20.842  0.00  0.00    +0.000 N 
ATOM     14  C   UNL     1       0.391  10.511  20.947  0.00  0.00    +0.000 C 
ATOM     15  C   UNL     1      -0.150   9.634  19.815  0.00  0.00    +0.000 C 
ATOM     16  C   UNL     1      -1.479  10.286  19.437  0.00  0.00    +0.000 C 
ATOM     17  C   UNL     1      -1.480  11.634  20.085  0.00  0.00    +0.000 C 
ATOM     18  O   UNL     1      -2.370  12.461  19.965  0.00  0.00    +0.000 OA
ENDBRANCH   1  15
BRANCH   6  19
ATOM     19  C   UNL     1       5.139   5.584  17.228  0.00  0.00    +0.000 A 
ATOM     20  C   UNL     1       4.831   5.186  15.912  0.00  0.00    +0.000 A 
ATOM     21  C   UNL     1       5.729   4.437  15.152  0.00  0.00    +0.000 A 
ATOM     22  C   UNL     1       6.971   4.097  15.676  0.00  0.00    +0.000 A 
ATOM     23  C   UNL     1       7.297   4.471  16.977  0.00  0.00    +0.000 A 
ATOM     24  C   UNL     1       6.384   5.189  17.757  0.00  0.00    +0.000 A 
ATOM     25 CL   UNL     1       6.871   5.564  19.374  0.00  0.00    +0.000 Cl
ENDBRANCH   6  19
TORSDOF 2
ENDMDL
MODEL 8
REMARK VINA RESULT:      -5.9      7.628     10.621
REMARK  Name = 
REMARK  3 active torsions:
REMARK  status: ('A' for Active; 'I' for Inactive)
REMARK    1  A    between atoms: C_1  and  N_2
REMARK    2  A    between atoms: C_4  and  C_5
REMARK    3  A    between atoms: C_10  and  C_11
REMARK                            x       y       z     vdW  Elec       q    Type
REMARK                         _______ _______ _______ _____ _____    ______ ____
ROOT
ATOM      1  C   UNL     1       3.841  14.625  18.949  0.00  0.00    +0.000 C 
ATOM      2  O   UNL     1       3.427  13.759  18.167  0.00  0.00    +0.000 OA
ATOM      3  N   UNL     1       5.134  15.150  18.800  0.00  0.00    +0.000 N 
ATOM      4  C   UNL     1       5.904  14.816  17.592  0.00  0.00    +0.000 C 
ATOM      5  C   UNL     1       7.140  13.925  17.817  0.00  0.00    +0.000 C 
ATOM      6  C   UNL     1       8.319  14.691  18.450  0.00  0.00    +0.000 C 
ATOM      7  S   UNL     1       8.311  14.704  20.264  0.00  0.00    +0.000 S 
ATOM      8  O   UNL     1       8.885  15.959  20.711  0.00  0.00    +0.000 OA
ATOM      9  O   UNL     1       8.796  13.443  20.790  0.00  0.00    +0.000 OA
ATOM     10  C   UNL     1       6.600  14.770  20.697  0.00  0.00    +0.000 C 
ATOM     11  C   UNL     1       5.867  15.815  19.878  0.00  0.00    +0.000 C 
ENDROOT
BRANCH   1  15
ATOM     12  C   UNL     1      -0.786  14.589  19.773  0.00  0.00    +0.000 C 
ATOM     13  N   UNL     1       0.631  14.622  20.041  0.00  0.00    +0.000 N 
ATOM     14  C   UNL     1       1.523  15.586  19.446  0.00  0.00    +0.000 C 
ATOM     15  C   UNL     1       2.907  15.244  20.002  0.00  0.00    +0.000 C 
ATOM     16  C   UNL     1       2.615  14.389  21.235  0.00  0.00    +0.000 C 
ATOM     17  C   UNL     1       1.173  14.001  21.141  0.00  0.00    +0.000 C 
ATOM     18  O   UNL     1       0.597  13.276  21.935  0.00  0.00    +0.000 OA
ENDBRANCH   1  15
BRANCH   6  19
ATOM     19  C   UNL     1       9.683  14.203  17.984  0.00  0.00    +0.000 A 
ATOM     20  C   UNL     1       9.928  12.823  17.837  0.00  0.00    +0.000 A 
ATOM     21  C   UNL     1      11.158  12.350  17.381  0.00  0.00    +0.000 A 
ATOM     22  C   UNL     1      12.161  13.245  17.026  0.00  0.00    +0.000 A 
ATOM     23  C   UNL     1      11.946  14.613  17.169  0.00  0.00    +0.000 A 
ATOM     24  C   UNL     1      10.728  15.091  17.665  0.00  0.00    +0.000 A 
ATOM     25 CL   UNL     1      10.583  16.806  17.846  0.00  0.00    +0.000 Cl
ENDBRANCH   6  19
TORSDOF 2
ENDMDL
MODEL 9
REMARK VINA RESULT:      -5.9      1.114      1.172
REMARK  Name = 
REMARK  3 active torsions:
REMARK  status: ('A' for Active; 'I' for Inactive)
REMARK    1  A    between atoms: C_1  and  N_2
REMARK    2  A    between atoms: C_4  and  C_5
REMARK    3  A    between atoms: C_10  and  C_11
REMARK                            x       y       z     vdW  Elec       q    Type
REMARK                         _______ _______ _______ _____ _____    ______ ____
ROOT
ATOM      1  C   UNL     1       1.851   6.169  19.963  0.00  0.00    +0.000 C 
ATOM      2  O   UNL     1       1.170   5.544  20.788  0.00  0.00    +0.000 OA
ATOM      3  N   UNL     1       2.027   7.554  20.099  0.00  0.00    +0.000 N 
ATOM      4  C   UNL     1       1.576   8.213  21.334  0.00  0.00    +0.000 C 
ATOM      5  C   UNL     1       0.381   9.172  21.177  0.00  0.00    +0.000 C 
ATOM      6  C   UNL     1       0.773  10.510  20.517  0.00  0.00    +0.000 C 
ATOM      7  S   UNL     1       0.681  10.501  18.705  0.00  0.00    +0.000 S 
ATOM      8  O   UNL     1       1.714  11.382  18.195  0.00  0.00    +0.000 OA
ATOM      9  O   UNL     1      -0.691  10.638  18.259  0.00  0.00    +0.000 OA
ATOM     10  C   UNL     1       1.167   8.866  18.247  0.00  0.00    +0.000 C 
ATOM     11  C   UNL     1       2.413   8.433  18.994  0.00  0.00    +0.000 C 
ENDROOT
BRANCH   1  15
ATOM     12  C   UNL     1       6.375   5.233  19.099  0.00  0.00    +0.000 C 
ATOM     13  N   UNL     1       4.944   5.054  19.135  0.00  0.00    +0.000 N 
ATOM     14  C   UNL     1       4.015   6.023  18.607  0.00  0.00    +0.000 C 
ATOM     15  C   UNL     1       2.630   5.427  18.864  0.00  0.00    +0.000 C 
ATOM     16  C   UNL     1       2.899   3.943  19.109  0.00  0.00    +0.000 C 
ATOM     17  C   UNL     1       4.374   3.817  19.323  0.00  0.00    +0.000 C 
ATOM     18  O   UNL     1       4.949   2.775  19.592  0.00  0.00    +0.000 OA
ENDBRANCH   1  15
BRANCH   6  19
ATOM     19  C   UNL     1      -0.026  11.699  21.028  0.00  0.00    +0.000 A 
ATOM     20  C   UNL     1      -1.382  11.542  21.378  0.00  0.00    +0.000 A 
ATOM     21  C   UNL     1      -2.129  12.607  21.880  0.00  0.00    +0.000 A 
ATOM     22  C   UNL     1      -1.530  13.846  22.078  0.00  0.00    +0.000 A 
ATOM     23  C   UNL     1      -0.193  14.029  21.733  0.00  0.00    +0.000 A 
ATOM     24  C   UNL     1       0.549  12.974  21.192  0.00  0.00    +0.000 A 
ATOM     25 CL   UNL     1       2.187  13.321  20.755  0.00  0.00    +0.000 Cl
ENDBRANCH   6  19
TORSDOF 2
ENDMDL
