MODEL 1
REMARK VINA RESULT:      -5.2      0.000      0.000
REMARK  Name = 
REMARK  3 active torsions:
REMARK  status: ('A' for Active; 'I' for Inactive)
REMARK    1  A    between atoms: C_2  and  C_3
REMARK    2  A    between atoms: N_10  and  N_20
REMARK    3  A    between atoms: C_11  and  C_13
REMARK                            x       y       z     vdW  Elec       q    Type
REMARK                         _______ _______ _______ _____ _____    ______ ____
ROOT
ATOM      1  O   UNL     1      -3.315  12.252  20.219  0.00  0.00    +0.000 OA
ATOM      2  C   UNL     1      -2.161  12.250  20.653  0.00  0.00    +0.000 C 
ATOM      3  N   UNL     1      -1.744  13.069  21.720  0.00  0.00    +0.000 N 
ATOM      4  C   UNL     1      -0.500  13.680  21.973  0.00  0.00    +0.000 C 
ATOM      5  O   UNL     1      -0.133  14.015  23.099  0.00  0.00    +0.000 OA
ENDROOT
BRANCH   2   6
ATOM      6  C   UNL     1      -1.173  11.357  19.988  0.00  0.00    +0.000 A 
ATOM      7  C   UNL     1      -0.944  11.532  18.613  0.00  0.00    +0.000 A 
ATOM      8  C   UNL     1       0.034  10.778  17.964  0.00  0.00    +0.000 A 
ATOM      9  C   UNL     1       0.772   9.838  18.681  0.00  0.00    +0.000 A 
ATOM     10 CL   UNL     1       2.009   8.943  17.890  0.00  0.00    +0.000 Cl
ATOM     11  C   UNL     1       0.517   9.620  20.034  0.00  0.00    +0.000 A 
ATOM     12  C   UNL     1      -0.471  10.365  20.688  0.00  0.00    +0.000 A 
ENDBRANCH   2   6
BRANCH   4  13
ATOM     13  C   UNL     1       0.467  13.892  20.854  0.00  0.00    +0.000 A 
ATOM     14  C   UNL     1       1.681  13.204  20.747  0.00  0.00    +0.000 A 
ATOM     15  C   UNL     1       2.594  13.557  19.746  0.00  0.00    +0.000 A 
ATOM     16  C   UNL     1       2.271  14.551  18.823  0.00  0.00    +0.000 A 
ATOM     17 CL   UNL     1       3.413  15.010  17.623  0.00  0.00    +0.000 Cl
ATOM     18  C   UNL     1       1.029  15.179  18.872  0.00  0.00    +0.000 A 
ATOM     19  C   UNL     1       0.126  14.848  19.883  0.00  0.00    +0.000 A 
ENDBRANCH   4  13
BRANCH   3  20
ATOM     20  N   UNL     1      -2.717  13.301  22.680  0.00  0.00    +0.000 N 
ATOM     21  C   UNL     1      -3.442  14.445  22.835  0.00  0.00    +0.000 A 
ATOM     22  N   UNL     1      -4.289  14.287  23.829  0.00  0.00    +0.000 NA
ATOM     23  N   UNL     1      -4.115  13.013  24.330  0.00  0.00    +0.000 NA
ATOM     24  C   UNL     1      -3.164  12.432  23.628  0.00  0.00    +0.000 A 
ENDBRANCH   3  20
TORSDOF 3
ENDMDL
MODEL 2
REMARK VINA RESULT:      -5.2      3.722      5.942
REMARK  Name = 
REMARK  3 active torsions:
REMARK  status: ('A' for Active; 'I' for Inactive)
REMARK    1  A    between atoms: C_2  and  C_3
REMARK    2  A    between atoms: N_10  and  N_20
REMARK    3  A    between atoms: C_11  and  C_13
REMARK                            x       y       z     vdW  Elec       q    Type
REMARK                         _______ _______ _______ _____ _____    ______ ____
ROOT
ATOM      1  O   UNL     1      -0.361  16.688  19.845  0.00  0.00    +0.000 OA
ATOM      2  C   UNL     1       0.022  15.548  20.114  0.00  0.00    +0.000 C 
ATOM      3  N   UNL     1       1.166  14.969  19.531  0.00  0.00    +0.000 N 
ATOM      4  C   UNL     1       1.444  13.629  19.195  0.00  0.00    +0.000 C 
ATOM      5  O   UNL     1       2.587  13.188  19.083  0.00  0.00    +0.000 OA
ENDROOT
BRANCH   2   6
ATOM      6  C   UNL     1      -0.790  14.753  21.075  0.00  0.00    +0.000 A 
ATOM      7  C   UNL     1      -2.123  14.468  20.737  0.00  0.00    +0.000 A 
ATOM      8  C   UNL     1      -2.898  13.654  21.566  0.00  0.00    +0.000 A 
ATOM      9  C   UNL     1      -2.348  13.139  22.738  0.00  0.00    +0.000 A 
ATOM     10 CL   UNL     1      -3.289  12.100  23.734  0.00  0.00    +0.000 Cl
ATOM     11  C   UNL     1      -1.043  13.460  23.109  0.00  0.00    +0.000 A 
ATOM     12  C   UNL     1      -0.265  14.284  22.288  0.00  0.00    +0.000 A 
ENDBRANCH   2   6
BRANCH   4  13
ATOM     13  C   UNL     1       0.322  12.659  19.016  0.00  0.00    +0.000 A 
ATOM     14  C   UNL     1       0.165  11.513  19.804  0.00  0.00    +0.000 A 
ATOM     15  C   UNL     1      -0.831  10.582  19.486  0.00  0.00    +0.000 A 
ATOM     16  C   UNL     1      -1.701  10.823  18.423  0.00  0.00    +0.000 A 
ATOM     17 CL   UNL     1      -2.894   9.657  18.011  0.00  0.00    +0.000 Cl
ATOM     18  C   UNL     1      -1.605  12.002  17.689  0.00  0.00    +0.000 A 
ATOM     19  C   UNL     1      -0.597  12.921  17.987  0.00  0.00    +0.000 A 
ENDBRANCH   4  13
BRANCH   3  20
ATOM     20  N   UNL     1       2.187  15.866  19.255  0.00  0.00    +0.000 N 
ATOM     21  C   UNL     1       3.028  16.436  20.163  0.00  0.00    +0.000 A 
ATOM     22  N   UNL     1       3.885  17.208  19.532  0.00  0.00    +0.000 NA
ATOM     23  N   UNL     1       3.601  17.136  18.183  0.00  0.00    +0.000 NA
ATOM     24  C   UNL     1       2.575  16.324  18.033  0.00  0.00    +0.000 A 
ENDBRANCH   3  20
TORSDOF 3
ENDMDL
MODEL 3
REMARK VINA RESULT:      -5.2      0.476      1.095
REMARK  Name = 
REMARK  3 active torsions:
REMARK  status: ('A' for Active; 'I' for Inactive)
REMARK    1  A    between atoms: C_2  and  C_3
REMARK    2  A    between atoms: N_10  and  N_20
REMARK    3  A    between atoms: C_11  and  C_13
REMARK                            x       y       z     vdW  Elec       q    Type
REMARK                         _______ _______ _______ _____ _____    ______ ____
ROOT
ATOM      1  O   UNL     1      -3.534  12.484  20.332  0.00  0.00    +0.000 OA
ATOM      2  C   UNL     1      -2.392  12.512  20.797  0.00  0.00    +0.000 C 
ATOM      3  N   UNL     1      -2.044  13.284  21.922  0.00  0.00    +0.000 N 
ATOM      4  C   UNL     1      -0.839  13.938  22.246  0.00  0.00    +0.000 C 
ATOM      5  O   UNL     1      -0.517  14.221  23.399  0.00  0.00    +0.000 OA
ENDROOT
BRANCH   2   6
ATOM      6  C   UNL     1      -1.344  11.711  20.108  0.00  0.00    +0.000 A 
ATOM      7  C   UNL     1      -1.057  12.012  18.767  0.00  0.00    +0.000 A 
ATOM      8  C   UNL     1      -0.024  11.347  18.104  0.00  0.00    +0.000 A 
ATOM      9  C   UNL     1       0.711  10.371  18.774  0.00  0.00    +0.000 A 
ATOM     10 CL   UNL     1       2.013   9.586  17.971  0.00  0.00    +0.000 Cl
ATOM     11  C   UNL     1       0.399  10.027  20.089  0.00  0.00    +0.000 A 
ATOM     12  C   UNL     1      -0.643  10.683  20.755  0.00  0.00    +0.000 A 
ENDBRANCH   2   6
BRANCH   4  13
ATOM     13  C   UNL     1       0.143  14.265  21.169  0.00  0.00    +0.000 A 
ATOM     14  C   UNL     1      -0.110  15.198  20.156  0.00  0.00    +0.000 A 
ATOM     15  C   UNL     1       0.803  15.348  19.106  0.00  0.00    +0.000 A 
ATOM     16  C   UNL     1       1.989  14.615  19.099  0.00  0.00    +0.000 A 
ATOM     17 CL   UNL     1       3.087  14.774  17.786  0.00  0.00    +0.000 Cl
ATOM     18  C   UNL     1       2.288  13.751  20.149  0.00  0.00    +0.000 A 
ATOM     19  C   UNL     1       1.368  13.579  21.185  0.00  0.00    +0.000 A 
ENDBRANCH   4  13
BRANCH   3  20
ATOM     20  N   UNL     1      -3.050  13.409  22.867  0.00  0.00    +0.000 N 
ATOM     21  C   UNL     1      -3.848  14.499  23.059  0.00  0.00    +0.000 A 
ATOM     22  N   UNL     1      -4.706  14.241  24.022  0.00  0.00    +0.000 NA
ATOM     23  N   UNL     1      -4.466  12.956  24.464  0.00  0.00    +0.000 NA
ATOM     24  C   UNL     1      -3.466  12.469  23.760  0.00  0.00    +0.000 A 
ENDBRANCH   3  20
TORSDOF 3
ENDMDL
MODEL 4
REMARK VINA RESULT:      -5.2      0.313      1.274
REMARK  Name = 
REMARK  3 active torsions:
REMARK  status: ('A' for Active; 'I' for Inactive)
REMARK    1  A    between atoms: C_2  and  C_3
REMARK    2  A    between atoms: N_10  and  N_20
REMARK    3  A    between atoms: C_11  and  C_13
REMARK                            x       y       z     vdW  Elec       q    Type
REMARK                         _______ _______ _______ _____ _____    ______ ____
ROOT
ATOM      1  O   UNL     1      -3.221  12.258  20.206  0.00  0.00    +0.000 OA
ATOM      2  C   UNL     1      -2.088  12.344  20.683  0.00  0.00    +0.000 C 
ATOM      3  N   UNL     1      -1.756  13.253  21.706  0.00  0.00    +0.000 N 
ATOM      4  C   UNL     1      -0.555  13.943  21.965  0.00  0.00    +0.000 C 
ATOM      5  O   UNL     1      -0.253  14.370  23.078  0.00  0.00    +0.000 OA
ENDROOT
BRANCH   2   6
ATOM      6  C   UNL     1      -1.030  11.463  20.117  0.00  0.00    +0.000 A 
ATOM      7  C   UNL     1      -0.406  10.544  20.976  0.00  0.00    +0.000 A 
ATOM      8  C   UNL     1       0.530   9.638  20.473  0.00  0.00    +0.000 A 
ATOM      9  C   UNL     1       0.855   9.661  19.118  0.00  0.00    +0.000 A 
ATOM     10 CL   UNL     1       1.973   8.514  18.492  0.00  0.00    +0.000 Cl
ATOM     11  C   UNL     1       0.280  10.604  18.267  0.00  0.00    +0.000 A 
ATOM     12  C   UNL     1      -0.650  11.522  18.768  0.00  0.00    +0.000 A 
ENDBRANCH   2   6
BRANCH   4  13
ATOM     13  C   UNL     1       0.444  14.132  20.871  0.00  0.00    +0.000 A 
ATOM     14  C   UNL     1       1.693  13.499  20.855  0.00  0.00    +0.000 A 
ATOM     15  C   UNL     1       2.629  13.833  19.868  0.00  0.00    +0.000 A 
ATOM     16  C   UNL     1       2.297  14.750  18.871  0.00  0.00    +0.000 A 
ATOM     17 CL   UNL     1       3.463  15.188  17.687  0.00  0.00    +0.000 Cl
ATOM     18  C   UNL     1       1.026  15.317  18.831  0.00  0.00    +0.000 A 
ATOM     19  C   UNL     1       0.099  15.006  19.827  0.00  0.00    +0.000 A 
ENDBRANCH   4  13
BRANCH   3  20
ATOM     20  N   UNL     1      -2.778  13.496  22.611  0.00  0.00    +0.000 N 
ATOM     21  C   UNL     1      -3.203  12.654  23.595  0.00  0.00    +0.000 A 
ATOM     22  N   UNL     1      -4.168  13.235  24.274  0.00  0.00    +0.000 NA
ATOM     23  N   UNL     1      -4.375  14.484  23.724  0.00  0.00    +0.000 NA
ATOM     24  C   UNL     1      -3.531  14.626  22.723  0.00  0.00    +0.000 A 
ENDBRANCH   3  20
TORSDOF 3
ENDMDL
MODEL 5
REMARK VINA RESULT:      -5.2      0.381      1.625
REMARK  Name = 
REMARK  3 active torsions:
REMARK  status: ('A' for Active; 'I' for Inactive)
REMARK    1  A    between atoms: C_2  and  C_3
REMARK    2  A    between atoms: N_10  and  N_20
REMARK    3  A    between atoms: C_11  and  C_13
REMARK                            x       y       z     vdW  Elec       q    Type
REMARK                         _______ _______ _______ _____ _____    ______ ____
ROOT
ATOM      1  O   UNL     1      -3.383  12.331  20.268  0.00  0.00    +0.000 OA
ATOM      2  C   UNL     1      -2.254  12.418  20.755  0.00  0.00    +0.000 C 
ATOM      3  N   UNL     1      -1.960  13.240  21.860  0.00  0.00    +0.000 N 
ATOM      4  C   UNL     1      -0.787  13.950  22.186  0.00  0.00    +0.000 C 
ATOM      5  O   UNL     1      -0.502  14.284  23.336  0.00  0.00    +0.000 OA
ENDROOT
BRANCH   2   6
ATOM      6  C   UNL     1      -1.161  11.636  20.114  0.00  0.00    +0.000 A 
ATOM      7  C   UNL     1      -0.533  10.634  20.872  0.00  0.00    +0.000 A 
ATOM      8  C   UNL     1       0.438   9.818  20.288  0.00  0.00    +0.000 A 
ATOM      9  C   UNL     1       0.792  10.012  18.954  0.00  0.00    +0.000 A 
ATOM     10 CL   UNL     1       1.953   8.975  18.223  0.00  0.00    +0.000 Cl
ATOM     11  C   UNL     1       0.212  11.038  18.209  0.00  0.00    +0.000 A 
ATOM     12  C   UNL     1      -0.753  11.866  18.792  0.00  0.00    +0.000 A 
ENDBRANCH   2   6
BRANCH   4  13
ATOM     13  C   UNL     1       0.204  14.280  21.120  0.00  0.00    +0.000 A 
ATOM     14  C   UNL     1      -0.061  15.170  20.072  0.00  0.00    +0.000 A 
ATOM     15  C   UNL     1       0.868  15.322  19.036  0.00  0.00    +0.000 A 
ATOM     16  C   UNL     1       2.080  14.633  19.077  0.00  0.00    +0.000 A 
ATOM     17 CL   UNL     1       3.198  14.791  17.781  0.00  0.00    +0.000 Cl
ATOM     18  C   UNL     1       2.387  13.814  20.159  0.00  0.00    +0.000 A 
ATOM     19  C   UNL     1       1.453  13.640  21.182  0.00  0.00    +0.000 A 
ENDBRANCH   4  13
BRANCH   3  20
ATOM     20  N   UNL     1      -2.991  13.357  22.779  0.00  0.00    +0.000 N 
ATOM     21  C   UNL     1      -3.365  12.420  23.696  0.00  0.00    +0.000 A 
ATOM     22  N   UNL     1      -4.359  12.893  24.416  0.00  0.00    +0.000 NA
ATOM     23  N   UNL     1      -4.636  14.167  23.962  0.00  0.00    +0.000 NA
ATOM     24  C   UNL     1      -3.804  14.431  22.976  0.00  0.00    +0.000 A 
ENDBRANCH   3  20
TORSDOF 3
ENDMDL
MODEL 6
REMARK VINA RESULT:      -5.2      3.729      5.524
REMARK  Name = 
REMARK  3 active torsions:
REMARK  status: ('A' for Active; 'I' for Inactive)
REMARK    1  A    between atoms: C_2  and  C_3
REMARK    2  A    between atoms: N_10  and  N_20
REMARK    3  A    between atoms: C_11  and  C_13
REMARK                            x       y       z     vdW  Elec       q    Type
REMARK                         _______ _______ _______ _____ _____    ______ ____
ROOT
ATOM      1  O   UNL     1       2.712  13.299  19.595  0.00  0.00    +0.000 OA
ATOM      2  C   UNL     1       1.567  13.757  19.571  0.00  0.00    +0.000 C 
ATOM      3  N   UNL     1       1.282  15.114  19.817  0.00  0.00    +0.000 N 
ATOM      4  C   UNL     1       0.162  15.719  20.421  0.00  0.00    +0.000 C 
ATOM      5  O   UNL     1      -0.162  16.888  20.215  0.00  0.00    +0.000 OA
ENDROOT
BRANCH   2   6
ATOM      6  C   UNL     1       0.449  12.813  19.299  0.00  0.00    +0.000 A 
ATOM      7  C   UNL     1      -0.381  13.071  18.196  0.00  0.00    +0.000 A 
ATOM      8  C   UNL     1      -1.388  12.168  17.850  0.00  0.00    +0.000 A 
ATOM      9  C   UNL     1      -1.578  11.018  18.614  0.00  0.00    +0.000 A 
ATOM     10 CL   UNL     1      -2.788   9.884  18.160  0.00  0.00    +0.000 Cl
ATOM     11  C   UNL     1      -0.793  10.779  19.742  0.00  0.00    +0.000 A 
ATOM     12  C   UNL     1       0.211  11.686  20.100  0.00  0.00    +0.000 A 
ENDBRANCH   2   6
BRANCH   4  13
ATOM     13  C   UNL     1      -0.727  14.917  21.312  0.00  0.00    +0.000 A 
ATOM     14  C   UNL     1      -0.311  14.392  22.541  0.00  0.00    +0.000 A 
ATOM     15  C   UNL     1      -1.158  13.536  23.255  0.00  0.00    +0.000 A 
ATOM     16  C   UNL     1      -2.435  13.253  22.772  0.00  0.00    +0.000 A 
ATOM     17 CL   UNL     1      -3.455  12.169  23.630  0.00  0.00    +0.000 Cl
ATOM     18  C   UNL     1      -2.888  13.842  21.594  0.00  0.00    +0.000 A 
ATOM     19  C   UNL     1      -2.037  14.676  20.867  0.00  0.00    +0.000 A 
ENDBRANCH   4  13
BRANCH   3  20
ATOM     20  N   UNL     1       2.260  15.995  19.382  0.00  0.00    +0.000 N 
ATOM     21  C   UNL     1       3.165  16.648  20.165  0.00  0.00    +0.000 A 
ATOM     22  N   UNL     1       3.953  17.373  19.401  0.00  0.00    +0.000 NA
ATOM     23  N   UNL     1       3.557  17.185  18.092  0.00  0.00    +0.000 NA
ATOM     24  C   UNL     1       2.536  16.353  18.097  0.00  0.00    +0.000 A 
ENDBRANCH   3  20
TORSDOF 3
ENDMDL
MODEL 7
REMARK VINA RESULT:      -5.2      3.662      5.508
REMARK  Name = 
REMARK  3 active torsions:
REMARK  status: ('A' for Active; 'I' for Inactive)
REMARK    1  A    between atoms: C_2  and  C_3
REMARK    2  A    between atoms: N_10  and  N_20
REMARK    3  A    between atoms: C_11  and  C_13
REMARK                            x       y       z     vdW  Elec       q    Type
REMARK                         _______ _______ _______ _____ _____    ______ ____
ROOT
ATOM      1  O   UNL     1       2.457  13.353  19.685  0.00  0.00    +0.000 OA
ATOM      2  C   UNL     1       1.289  13.745  19.639  0.00  0.00    +0.000 C 
ATOM      3  N   UNL     1       0.916  15.069  19.942  0.00  0.00    +0.000 N 
ATOM      4  C   UNL     1      -0.258  15.577  20.531  0.00  0.00    +0.000 C 
ATOM      5  O   UNL     1      -0.643  16.735  20.372  0.00  0.00    +0.000 OA
ENDROOT
BRANCH   2   6
ATOM      6  C   UNL     1       0.239  12.754  19.277  0.00  0.00    +0.000 A 
ATOM      7  C   UNL     1      -0.556  13.015  18.150  0.00  0.00    +0.000 A 
ATOM      8  C   UNL     1      -1.495  12.075  17.722  0.00  0.00    +0.000 A 
ATOM      9  C   UNL     1      -1.651  10.883  18.426  0.00  0.00    +0.000 A 
ATOM     10 CL   UNL     1      -2.775   9.707  17.870  0.00  0.00    +0.000 Cl
ATOM     11  C   UNL     1      -0.903  10.638  19.577  0.00  0.00    +0.000 A 
ATOM     12  C   UNL     1       0.032  11.581  20.018  0.00  0.00    +0.000 A 
ENDBRANCH   2   6
BRANCH   4  13
ATOM     13  C   UNL     1      -1.130  14.680  21.347  0.00  0.00    +0.000 A 
ATOM     14  C   UNL     1      -2.414  14.288  20.950  0.00  0.00    +0.000 A 
ATOM     15  C   UNL     1      -3.222  13.559  21.831  0.00  0.00    +0.000 A 
ATOM     16  C   UNL     1      -2.728  13.173  23.076  0.00  0.00    +0.000 A 
ATOM     17 CL   UNL     1      -3.738  12.314  24.170  0.00  0.00    +0.000 Cl
ATOM     18  C   UNL     1      -1.421  13.484  23.442  0.00  0.00    +0.000 A 
ATOM     19  C   UNL     1      -0.621  14.233  22.577  0.00  0.00    +0.000 A 
ENDBRANCH   4  13
BRANCH   3  20
ATOM     20  N   UNL     1       1.856  16.025  19.589  0.00  0.00    +0.000 N 
ATOM     21  C   UNL     1       2.699  16.680  20.437  0.00  0.00    +0.000 A 
ATOM     22  N   UNL     1       3.468  17.490  19.741  0.00  0.00    +0.000 NA
ATOM     23  N   UNL     1       3.121  17.358  18.412  0.00  0.00    +0.000 NA
ATOM     24  C   UNL     1       2.148  16.473  18.337  0.00  0.00    +0.000 A 
ENDBRANCH   3  20
TORSDOF 3
ENDMDL
MODEL 8
REMARK VINA RESULT:      -5.1      3.680      5.601
REMARK  Name = 
REMARK  3 active torsions:
REMARK  status: ('A' for Active; 'I' for Inactive)
REMARK    1  A    between atoms: C_2  and  C_3
REMARK    2  A    between atoms: N_10  and  N_20
REMARK    3  A    between atoms: C_11  and  C_13
REMARK                            x       y       z     vdW  Elec       q    Type
REMARK                         _______ _______ _______ _____ _____    ______ ____
ROOT
ATOM      1  O   UNL     1       2.582  13.106  19.315  0.00  0.00    +0.000 OA
ATOM      2  C   UNL     1       1.427  13.537  19.308  0.00  0.00    +0.000 C 
ATOM      3  N   UNL     1       1.101  14.858  19.670  0.00  0.00    +0.000 N 
ATOM      4  C   UNL     1      -0.046  15.378  20.301  0.00  0.00    +0.000 C 
ATOM      5  O   UNL     1      -0.397  16.553  20.195  0.00  0.00    +0.000 OA
ENDROOT
BRANCH   2   6
ATOM      6  C   UNL     1       0.339  12.594  18.926  0.00  0.00    +0.000 A 
ATOM      7  C   UNL     1       0.244  11.378  19.623  0.00  0.00    +0.000 A 
ATOM      8  C   UNL     1      -0.810  10.501  19.360  0.00  0.00    +0.000 A 
ATOM      9  C   UNL     1      -1.757  10.828  18.392  0.00  0.00    +0.000 A 
ATOM     10 CL   UNL     1      -3.080   9.769  18.102  0.00  0.00    +0.000 Cl
ATOM     11  C   UNL     1      -1.641  12.009  17.658  0.00  0.00    +0.000 A 
ATOM     12  C   UNL     1      -0.581  12.887  17.909  0.00  0.00    +0.000 A 
ENDBRANCH   2   6
BRANCH   4  13
ATOM     13  C   UNL     1      -0.932  14.476  21.096  0.00  0.00    +0.000 A 
ATOM     14  C   UNL     1      -2.234  14.141  20.708  0.00  0.00    +0.000 A 
ATOM     15  C   UNL     1      -3.049  13.402  21.574  0.00  0.00    +0.000 A 
ATOM     16  C   UNL     1      -2.546  12.951  22.794  0.00  0.00    +0.000 A 
ATOM     17 CL   UNL     1      -3.564  12.081  23.871  0.00  0.00    +0.000 Cl
ATOM     18  C   UNL     1      -1.224  13.207  23.147  0.00  0.00    +0.000 A 
ATOM     19  C   UNL     1      -0.416  13.964  22.298  0.00  0.00    +0.000 A 
ENDBRANCH   4  13
BRANCH   3  20
ATOM     20  N   UNL     1       2.064  15.798  19.338  0.00  0.00    +0.000 N 
ATOM     21  C   UNL     1       2.300  16.309  18.096  0.00  0.00    +0.000 A 
ATOM     22  N   UNL     1       3.268  17.197  18.172  0.00  0.00    +0.000 NA
ATOM     23  N   UNL     1       3.668  17.270  19.491  0.00  0.00    +0.000 NA
ATOM     24  C   UNL     1       2.935  16.421  20.180  0.00  0.00    +0.000 A 
ENDBRANCH   3  20
TORSDOF 3
ENDMDL
MODEL 9
REMARK VINA RESULT:      -5.1      2.185      3.311
REMARK  Name = 
REMARK  3 active torsions:
REMARK  status: ('A' for Active; 'I' for Inactive)
REMARK    1  A    between atoms: C_2  and  C_3
REMARK    2  A    between atoms: N_10  and  N_20
REMARK    3  A    between atoms: C_11  and  C_13
REMARK                            x       y       z     vdW  Elec       q    Type
REMARK                         _______ _______ _______ _____ _____    ______ ____
ROOT
ATOM      1  O   UNL     1      -2.146  14.922  20.714  0.00  0.00    +0.000 OA
ATOM      2  C   UNL     1      -2.069  13.701  20.868  0.00  0.00    +0.000 C 
ATOM      3  N   UNL     1      -1.662  13.108  22.079  0.00  0.00    +0.000 N 
ATOM      4  C   UNL     1      -0.947  11.919  22.320  0.00  0.00    +0.000 C 
ATOM      5  O   UNL     1      -1.008  11.303  23.384  0.00  0.00    +0.000 OA
ENDROOT
BRANCH   2   6
ATOM      6  C   UNL     1      -2.395  12.834  19.703  0.00  0.00    +0.000 A 
ATOM      7  C   UNL     1      -1.472  12.771  18.647  0.00  0.00    +0.000 A 
ATOM      8  C   UNL     1      -1.693  11.906  17.573  0.00  0.00    +0.000 A 
ATOM      9  C   UNL     1      -2.842  11.119  17.545  0.00  0.00    +0.000 A 
ATOM     10 CL   UNL     1      -3.090  10.020  16.245  0.00  0.00    +0.000 Cl
ATOM     11  C   UNL     1      -3.790  11.213  18.563  0.00  0.00    +0.000 A 
ATOM     12  C   UNL     1      -3.580  12.086  19.636  0.00  0.00    +0.000 A 
ENDBRANCH   2   6
BRANCH   4  13
ATOM     13  C   UNL     1      -0.111  11.319  21.238  0.00  0.00    +0.000 A 
ATOM     14  C   UNL     1       1.009  11.956  20.690  0.00  0.00    +0.000 A 
ATOM     15  C   UNL     1       1.658  11.392  19.585  0.00  0.00    +0.000 A 
ATOM     16  C   UNL     1       1.226  10.171  19.068  0.00  0.00    +0.000 A 
ATOM     17 CL   UNL     1       2.000   9.505  17.685  0.00  0.00    +0.000 Cl
ATOM     18  C   UNL     1       0.167   9.491  19.662  0.00  0.00    +0.000 A 
ATOM     19  C   UNL     1      -0.499  10.061  20.748  0.00  0.00    +0.000 A 
ENDBRANCH   4  13
BRANCH   3  20
ATOM     20  N   UNL     1      -2.039  13.807  23.215  0.00  0.00    +0.000 N 
ATOM     21  C   UNL     1      -3.266  13.780  23.810  0.00  0.00    +0.000 A 
ATOM     22  N   UNL     1      -3.243  14.542  24.882  0.00  0.00    +0.000 NA
ATOM     23  N   UNL     1      -1.973  15.073  24.991  0.00  0.00    +0.000 NA
ATOM     24  C   UNL     1      -1.261  14.622  23.980  0.00  0.00    +0.000 A 
ENDBRANCH   3  20
TORSDOF 3
ENDMDL
