MODEL 1
REMARK VINA RESULT:      -8.0      0.000      0.000
REMARK  Name = 
REMARK  6 active torsions:
REMARK  status: ('A' for Active; 'I' for Inactive)
REMARK    1  A    between atoms: C_1  and  O_2
REMARK    2  A    between atoms: O_2  and  C_3
REMARK    3  A    between atoms: N_11  and  C_12
REMARK    4  A    between atoms: C_16  and  C_17
REMARK    5  A    between atoms: C_17  and  N_18
REMARK    6  A    between atoms: C_19  and  C_21
REMARK                            x       y       z     vdW  Elec       q    Type
REMARK                         _______ _______ _______ _____ _____    ______ ____
ROOT
ATOM      1  C   UNL     1       1.988   8.428  18.742  0.00  0.00    +0.000 A 
ATOM      2  C   UNL     1       1.607   8.241  20.067  0.00  0.00    +0.000 A 
ATOM      3  C   UNL     1       1.752   6.998  20.685  0.00  0.00    +0.000 A 
ATOM      4  C   UNL     1       2.307   5.945  19.941  0.00  0.00    +0.000 A 
ATOM      5  C   UNL     1       2.721   6.103  18.614  0.00  0.00    +0.000 A 
ATOM      6  C   UNL     1       2.519   7.360  18.001  0.00  0.00    +0.000 A 
ATOM      7  C   UNL     1       3.278   4.852  18.193  0.00  0.00    +0.000 A 
ATOM      8  C   UNL     1       3.101   3.962  19.240  0.00  0.00    +0.000 A 
ATOM      9  N   UNL     1       2.523   4.625  20.287  0.00  0.00    +0.000 N 
ATOM     10  C   UNL     1       2.119   4.057  21.555  0.00  0.00    +0.000 C 
ATOM     11  C   UNL     1       3.454   2.514  19.211  0.00  0.00    +0.000 C 
ATOM     12  C   UNL     1       3.479   2.035  17.756  0.00  0.00    +0.000 C 
ATOM     13  C   UNL     1       4.345   2.953  16.886  0.00  0.00    +0.000 C 
ATOM     14  C   UNL     1       3.879   4.445  16.863  0.00  0.00    +0.000 C 
ENDROOT
BRANCH   1  16
ATOM     15  C   UNL     1       0.919  10.529  18.620  0.00  0.00    +0.000 C 
ATOM     16  O   UNL     1       1.852   9.610  18.059  0.00  0.00    +0.000 OA
ENDBRANCH   1  16
BRANCH  14  17
ATOM     17  C   UNL     1       5.076   5.334  16.454  0.00  0.00    +0.000 C 
BRANCH  17  18
ATOM     18  N   UNL     1       5.910   5.727  17.583  0.00  0.00    +0.000 N 
ATOM     19  C   UNL     1       7.212   5.261  17.747  0.00  0.00    +0.000 C 
ATOM     20  O   UNL     1       7.749   4.536  16.911  0.00  0.00    +0.000 OA
ATOM     21  H   UNL     1       5.498   6.273  18.332  0.00  0.00    +0.000 HD
BRANCH  19  22
ATOM     22  C   UNL     1       7.910   5.729  19.045  0.00  0.00    +0.000 C 
ATOM     23  F   UNL     1       8.430   6.987  18.915  0.00  0.00    +0.000 F 
ATOM     24  F   UNL     1       7.062   5.779  20.108  0.00  0.00    +0.000 F 
ATOM     25  F   UNL     1       8.949   4.927  19.406  0.00  0.00    +0.000 F 
ENDBRANCH  19  22
ENDBRANCH  17  18
ENDBRANCH  14  17
TORSDOF 4
ENDMDL
MODEL 2
REMARK VINA RESULT:      -7.8      0.813      1.093
REMARK  Name = 
REMARK  6 active torsions:
REMARK  status: ('A' for Active; 'I' for Inactive)
REMARK    1  A    between atoms: C_1  and  O_2
REMARK    2  A    between atoms: O_2  and  C_3
REMARK    3  A    between atoms: N_11  and  C_12
REMARK    4  A    between atoms: C_16  and  C_17
REMARK    5  A    between atoms: C_17  and  N_18
REMARK    6  A    between atoms: C_19  and  C_21
REMARK                            x       y       z     vdW  Elec       q    Type
REMARK                         _______ _______ _______ _____ _____    ______ ____
ROOT
ATOM      1  C   UNL     1       2.166   8.249  18.415  0.00  0.00    +0.000 A 
ATOM      2  C   UNL     1       1.804   8.215  19.758  0.00  0.00    +0.000 A 
ATOM      3  C   UNL     1       1.874   7.028  20.489  0.00  0.00    +0.000 A 
ATOM      4  C   UNL     1       2.334   5.872  19.840  0.00  0.00    +0.000 A 
ATOM      5  C   UNL     1       2.728   5.875  18.497  0.00  0.00    +0.000 A 
ATOM      6  C   UNL     1       2.602   7.080  17.771  0.00  0.00    +0.000 A 
ATOM      7  C   UNL     1       3.184   4.552  18.187  0.00  0.00    +0.000 A 
ATOM      8  C   UNL     1       2.968   3.779  19.317  0.00  0.00    +0.000 A 
ATOM      9  N   UNL     1       2.463   4.578  20.306  0.00  0.00    +0.000 N 
ATOM     10  C   UNL     1       2.050   4.163  21.629  0.00  0.00    +0.000 C 
ATOM     11  C   UNL     1       3.216   2.313  19.421  0.00  0.00    +0.000 C 
ATOM     12  C   UNL     1       3.172   1.700  18.017  0.00  0.00    +0.000 C 
ATOM     13  C   UNL     1       4.082   2.466  17.049  0.00  0.00    +0.000 C 
ATOM     14  C   UNL     1       3.723   3.979  16.893  0.00  0.00    +0.000 C 
ENDROOT
BRANCH   1  16
ATOM     15  C   UNL     1       1.610  10.539  18.274  0.00  0.00    +0.000 C 
ATOM     16  O   UNL     1       2.099   9.368  17.625  0.00  0.00    +0.000 OA
ENDBRANCH   1  16
BRANCH  14  17
ATOM     17  C   UNL     1       4.970   4.736  16.382  0.00  0.00    +0.000 C 
BRANCH  17  18
ATOM     18  N   UNL     1       6.036   4.821  17.372  0.00  0.00    +0.000 N 
ATOM     19  C   UNL     1       6.546   6.037  17.818  0.00  0.00    +0.000 C 
ATOM     20  O   UNL     1       6.079   7.111  17.441  0.00  0.00    +0.000 OA
ATOM     21  H   UNL     1       6.499   3.968  17.670  0.00  0.00    +0.000 HD
BRANCH  19  22
ATOM     22  C   UNL     1       7.726   5.921  18.811  0.00  0.00    +0.000 C 
ATOM     23  F   UNL     1       8.534   4.859  18.514  0.00  0.00    +0.000 F 
ATOM     24  F   UNL     1       8.529   7.020  18.803  0.00  0.00    +0.000 F 
ATOM     25  F   UNL     1       7.319   5.738  20.097  0.00  0.00    +0.000 F 
ENDBRANCH  19  22
ENDBRANCH  17  18
ENDBRANCH  14  17
TORSDOF 4
ENDMDL
MODEL 3
REMARK VINA RESULT:      -7.7      3.641      6.153
REMARK  Name = 
REMARK  6 active torsions:
REMARK  status: ('A' for Active; 'I' for Inactive)
REMARK    1  A    between atoms: C_1  and  O_2
REMARK    2  A    between atoms: O_2  and  C_3
REMARK    3  A    between atoms: N_11  and  C_12
REMARK    4  A    between atoms: C_16  and  C_17
REMARK    5  A    between atoms: C_17  and  N_18
REMARK    6  A    between atoms: C_19  and  C_21
REMARK                            x       y       z     vdW  Elec       q    Type
REMARK                         _______ _______ _______ _____ _____    ______ ____
ROOT
ATOM      1  C   UNL     1       6.523   5.893  16.707  0.00  0.00    +0.000 A 
ATOM      2  C   UNL     1       6.556   4.640  16.103  0.00  0.00    +0.000 A 
ATOM      3  C   UNL     1       5.616   3.662  16.432  0.00  0.00    +0.000 A 
ATOM      4  C   UNL     1       4.627   3.979  17.377  0.00  0.00    +0.000 A 
ATOM      5  C   UNL     1       4.552   5.236  17.987  0.00  0.00    +0.000 A 
ATOM      6  C   UNL     1       5.544   6.190  17.668  0.00  0.00    +0.000 A 
ATOM      7  C   UNL     1       3.403   5.221  18.844  0.00  0.00    +0.000 A 
ATOM      8  C   UNL     1       2.881   3.939  18.792  0.00  0.00    +0.000 A 
ATOM      9  N   UNL     1       3.617   3.200  17.907  0.00  0.00    +0.000 N 
ATOM     10  C   UNL     1       3.442   1.799  17.593  0.00  0.00    +0.000 C 
ATOM     11  C   UNL     1       1.729   3.443  19.597  0.00  0.00    +0.000 C 
ATOM     12  C   UNL     1       1.588   4.309  20.853  0.00  0.00    +0.000 C 
ATOM     13  C   UNL     1       1.564   5.800  20.498  0.00  0.00    +0.000 C 
ATOM     14  C   UNL     1       2.838   6.301  19.744  0.00  0.00    +0.000 C 
ENDROOT
BRANCH   1  16
ATOM     15  C   UNL     1       7.661   7.785  17.543  0.00  0.00    +0.000 C 
ATOM     16  O   UNL     1       7.426   6.894  16.456  0.00  0.00    +0.000 OA
ENDBRANCH   1  16
BRANCH  14  17
ATOM     17  C   UNL     1       2.483   7.592  18.972  0.00  0.00    +0.000 C 
BRANCH  17  18
ATOM     18  N   UNL     1       1.552   8.453  19.690  0.00  0.00    +0.000 N 
ATOM     19  C   UNL     1       0.938   9.551  19.093  0.00  0.00    +0.000 C 
ATOM     20  O   UNL     1       1.106   9.818  17.904  0.00  0.00    +0.000 OA
ATOM     21  H   UNL     1       1.425   8.315  20.687  0.00  0.00    +0.000 HD
BRANCH  19  22
ATOM     22  C   UNL     1       0.043  10.387  20.038  0.00  0.00    +0.000 C 
ATOM     23  F   UNL     1      -1.204  10.583  19.510  0.00  0.00    +0.000 F 
ATOM     24  F   UNL     1      -0.148   9.790  21.245  0.00  0.00    +0.000 F 
ATOM     25  F   UNL     1       0.547  11.626  20.284  0.00  0.00    +0.000 F 
ENDBRANCH  19  22
ENDBRANCH  17  18
ENDBRANCH  14  17
TORSDOF 4
ENDMDL
MODEL 4
REMARK VINA RESULT:      -7.5      3.587      6.038
REMARK  Name = 
REMARK  6 active torsions:
REMARK  status: ('A' for Active; 'I' for Inactive)
REMARK    1  A    between atoms: C_1  and  O_2
REMARK    2  A    between atoms: O_2  and  C_3
REMARK    3  A    between atoms: N_11  and  C_12
REMARK    4  A    between atoms: C_16  and  C_17
REMARK    5  A    between atoms: C_17  and  N_18
REMARK    6  A    between atoms: C_19  and  C_21
REMARK                            x       y       z     vdW  Elec       q    Type
REMARK                         _______ _______ _______ _____ _____    ______ ____
ROOT
ATOM      1  C   UNL     1       5.942   6.320  16.743  0.00  0.00    +0.000 A 
ATOM      2  C   UNL     1       5.953   5.245  15.859  0.00  0.00    +0.000 A 
ATOM      3  C   UNL     1       5.150   4.125  16.084  0.00  0.00    +0.000 A 
ATOM      4  C   UNL     1       4.321   4.116  17.216  0.00  0.00    +0.000 A 
ATOM      5  C   UNL     1       4.268   5.188  18.114  0.00  0.00    +0.000 A 
ATOM      6  C   UNL     1       5.125   6.288  17.884  0.00  0.00    +0.000 A 
ATOM      7  C   UNL     1       3.288   4.861  19.106  0.00  0.00    +0.000 A 
ATOM      8  C   UNL     1       2.851   3.575  18.829  0.00  0.00    +0.000 A 
ATOM      9  N   UNL     1       3.471   3.136  17.691  0.00  0.00    +0.000 N 
ATOM     10  C   UNL     1       3.338   1.831  17.082  0.00  0.00    +0.000 C 
ATOM     11  C   UNL     1       1.891   2.793  19.658  0.00  0.00    +0.000 C 
ATOM     12  C   UNL     1       1.911   3.334  21.091  0.00  0.00    +0.000 C 
ATOM     13  C   UNL     1       1.728   4.857  21.110  0.00  0.00    +0.000 C 
ATOM     14  C   UNL     1       2.816   5.645  20.313  0.00  0.00    +0.000 C 
ENDROOT
BRANCH   1  16
ATOM     15  C   UNL     1       7.660   7.659  17.653  0.00  0.00    +0.000 C 
ATOM     16  O   UNL     1       6.720   7.441  16.604  0.00  0.00    +0.000 OA
ENDBRANCH   1  16
BRANCH  14  17
ATOM     17  C   UNL     1       2.249   7.033  19.936  0.00  0.00    +0.000 C 
BRANCH  17  18
ATOM     18  N   UNL     1       1.497   7.658  21.016  0.00  0.00    +0.000 N 
ATOM     19  C   UNL     1       0.948   8.933  20.903  0.00  0.00    +0.000 C 
ATOM     20  O   UNL     1       1.020   9.577  19.857  0.00  0.00    +0.000 OA
ATOM     21  H   UNL     1       1.460   7.198  21.920  0.00  0.00    +0.000 HD
BRANCH  19  22
ATOM     22  C   UNL     1       0.253   9.456  22.182  0.00  0.00    +0.000 C 
ATOM     23  F   UNL     1      -0.127  10.763  22.051  0.00  0.00    +0.000 F 
ATOM     24  F   UNL     1      -0.878   8.763  22.485  0.00  0.00    +0.000 F 
ATOM     25  F   UNL     1       1.056   9.404  23.279  0.00  0.00    +0.000 F 
ENDBRANCH  19  22
ENDBRANCH  17  18
ENDBRANCH  14  17
TORSDOF 4
ENDMDL
MODEL 5
REMARK VINA RESULT:      -7.2      2.984      3.262
REMARK  Name = 
REMARK  6 active torsions:
REMARK  status: ('A' for Active; 'I' for Inactive)
REMARK    1  A    between atoms: C_1  and  O_2
REMARK    2  A    between atoms: O_2  and  C_3
REMARK    3  A    between atoms: N_11  and  C_12
REMARK    4  A    between atoms: C_16  and  C_17
REMARK    5  A    between atoms: C_17  and  N_18
REMARK    6  A    between atoms: C_19  and  C_21
REMARK                            x       y       z     vdW  Elec       q    Type
REMARK                         _______ _______ _______ _____ _____    ______ ____
ROOT
ATOM      1  C   UNL     1       2.142   8.180  18.323  0.00  0.00    +0.000 A 
ATOM      2  C   UNL     1       1.853   8.205  19.684  0.00  0.00    +0.000 A 
ATOM      3  C   UNL     1       1.992   7.057  20.466  0.00  0.00    +0.000 A 
ATOM      4  C   UNL     1       2.443   5.881  19.848  0.00  0.00    +0.000 A 
ATOM      5  C   UNL     1       2.763   5.825  18.487  0.00  0.00    +0.000 A 
ATOM      6  C   UNL     1       2.569   6.991  17.712  0.00  0.00    +0.000 A 
ATOM      7  C   UNL     1       3.233   4.499  18.217  0.00  0.00    +0.000 A 
ATOM      8  C   UNL     1       3.098   3.778  19.393  0.00  0.00    +0.000 A 
ATOM      9  N   UNL     1       2.628   4.614  20.369  0.00  0.00    +0.000 N 
ATOM     10  C   UNL     1       2.297   4.256  21.731  0.00  0.00    +0.000 C 
ATOM     11  C   UNL     1       3.385   2.325  19.553  0.00  0.00    +0.000 C 
ATOM     12  C   UNL     1       3.280   1.642  18.185  0.00  0.00    +0.000 C 
ATOM     13  C   UNL     1       4.117   2.379  17.132  0.00  0.00    +0.000 C 
ATOM     14  C   UNL     1       3.715   3.874  16.924  0.00  0.00    +0.000 C 
ENDROOT
BRANCH   1  16
ATOM     15  C   UNL     1       1.777  10.505  18.135  0.00  0.00    +0.000 C 
ATOM     16  O   UNL     1       2.005   9.257  17.485  0.00  0.00    +0.000 OA
ENDBRANCH   1  16
BRANCH  14  17
ATOM     17  C   UNL     1       4.914   4.631  16.308  0.00  0.00    +0.000 C 
BRANCH  17  18
ATOM     18  N   UNL     1       5.182   4.256  14.926  0.00  0.00    +0.000 N 
ATOM     19  C   UNL     1       6.456   4.316  14.369  0.00  0.00    +0.000 C 
ATOM     20  O   UNL     1       7.439   4.635  15.037  0.00  0.00    +0.000 OA
ATOM     21  H   UNL     1       4.400   4.045  14.314  0.00  0.00    +0.000 HD
BRANCH  19  22
ATOM     22  C   UNL     1       6.527   3.953  12.867  0.00  0.00    +0.000 C 
ATOM     23  F   UNL     1       5.304   4.058  12.265  0.00  0.00    +0.000 F 
ATOM     24  F   UNL     1       7.363   4.767  12.169  0.00  0.00    +0.000 F 
ATOM     25  F   UNL     1       6.945   2.676  12.651  0.00  0.00    +0.000 F 
ENDBRANCH  19  22
ENDBRANCH  17  18
ENDBRANCH  14  17
TORSDOF 4
ENDMDL
MODEL 6
REMARK VINA RESULT:      -7.2      3.839      6.448
REMARK  Name = 
REMARK  6 active torsions:
REMARK  status: ('A' for Active; 'I' for Inactive)
REMARK    1  A    between atoms: C_1  and  O_2
REMARK    2  A    between atoms: O_2  and  C_3
REMARK    3  A    between atoms: N_11  and  C_12
REMARK    4  A    between atoms: C_16  and  C_17
REMARK    5  A    between atoms: C_17  and  N_18
REMARK    6  A    between atoms: C_19  and  C_21
REMARK                            x       y       z     vdW  Elec       q    Type
REMARK                         _______ _______ _______ _____ _____    ______ ____
ROOT
ATOM      1  C   UNL     1       6.150   5.083  15.766  0.00  0.00    +0.000 A 
ATOM      2  C   UNL     1       5.897   3.731  15.556  0.00  0.00    +0.000 A 
ATOM      3  C   UNL     1       4.888   3.074  16.262  0.00  0.00    +0.000 A 
ATOM      4  C   UNL     1       4.126   3.813  17.179  0.00  0.00    +0.000 A 
ATOM      5  C   UNL     1       4.339   5.179  17.400  0.00  0.00    +0.000 A 
ATOM      6  C   UNL     1       5.396   5.806  16.703  0.00  0.00    +0.000 A 
ATOM      7  C   UNL     1       3.356   5.612  18.349  0.00  0.00    +0.000 A 
ATOM      8  C   UNL     1       2.648   4.485  18.734  0.00  0.00    +0.000 A 
ATOM      9  N   UNL     1       3.111   3.410  18.025  0.00  0.00    +0.000 N 
ATOM     10  C   UNL     1       2.681   2.035  18.157  0.00  0.00    +0.000 C 
ATOM     11  C   UNL     1       1.582   4.450  19.775  0.00  0.00    +0.000 C 
ATOM     12  C   UNL     1       1.778   5.631  20.731  0.00  0.00    +0.000 C 
ATOM     13  C   UNL     1       1.919   6.949  19.959  0.00  0.00    +0.000 C 
ATOM     14  C   UNL     1       3.112   6.980  18.952  0.00  0.00    +0.000 C 
ENDROOT
BRANCH   1  16
ATOM     15  C   UNL     1       7.522   5.286  13.856  0.00  0.00    +0.000 C 
ATOM     16  O   UNL     1       7.139   5.791  15.132  0.00  0.00    +0.000 OA
ENDBRANCH   1  16
BRANCH  14  17
ATOM     17  C   UNL     1       2.833   8.059  17.881  0.00  0.00    +0.000 C 
BRANCH  17  18
ATOM     18  N   UNL     1       1.471   8.577  17.930  0.00  0.00    +0.000 N 
ATOM     19  C   UNL     1       1.192   9.926  18.132  0.00  0.00    +0.000 C 
ATOM     20  O   UNL     1       2.087  10.765  18.221  0.00  0.00    +0.000 OA
ATOM     21  H   UNL     1       0.696   7.922  17.924  0.00  0.00    +0.000 HD
BRANCH  19  22
ATOM     22  C   UNL     1      -0.313  10.270  18.231  0.00  0.00    +0.000 C 
ATOM     23  F   UNL     1      -0.852   9.841  19.412  0.00  0.00    +0.000 F 
ATOM     24  F   UNL     1      -0.551  11.608  18.170  0.00  0.00    +0.000 F 
ATOM     25  F   UNL     1      -1.053   9.691  17.246  0.00  0.00    +0.000 F 
ENDBRANCH  19  22
ENDBRANCH  17  18
ENDBRANCH  14  17
TORSDOF 4
ENDMDL
MODEL 7
REMARK VINA RESULT:      -7.1      3.587      5.478
REMARK  Name = 
REMARK  6 active torsions:
REMARK  status: ('A' for Active; 'I' for Inactive)
REMARK    1  A    between atoms: C_1  and  O_2
REMARK    2  A    between atoms: O_2  and  C_3
REMARK    3  A    between atoms: N_11  and  C_12
REMARK    4  A    between atoms: C_16  and  C_17
REMARK    5  A    between atoms: C_17  and  N_18
REMARK    6  A    between atoms: C_19  and  C_21
REMARK                            x       y       z     vdW  Elec       q    Type
REMARK                         _______ _______ _______ _____ _____    ______ ____
ROOT
ATOM      1  C   UNL     1       5.603   5.152  16.209  0.00  0.00    +0.000 A 
ATOM      2  C   UNL     1       5.093   6.444  16.127  0.00  0.00    +0.000 A 
ATOM      3  C   UNL     1       4.109   6.882  17.015  0.00  0.00    +0.000 A 
ATOM      4  C   UNL     1       3.657   5.992  18.001  0.00  0.00    +0.000 A 
ATOM      5  C   UNL     1       4.163   4.694  18.126  0.00  0.00    +0.000 A 
ATOM      6  C   UNL     1       5.125   4.264  17.185  0.00  0.00    +0.000 A 
ATOM      7  C   UNL     1       3.519   4.096  19.258  0.00  0.00    +0.000 A 
ATOM      8  C   UNL     1       2.589   5.013  19.720  0.00  0.00    +0.000 A 
ATOM      9  N   UNL     1       2.680   6.150  18.965  0.00  0.00    +0.000 N 
ATOM     10  C   UNL     1       1.855   7.333  19.079  0.00  0.00    +0.000 C 
ATOM     11  C   UNL     1       1.626   4.780  20.834  0.00  0.00    +0.000 C 
ATOM     12  C   UNL     1       1.406   3.272  20.995  0.00  0.00    +0.000 C 
ATOM     13  C   UNL     1       2.741   2.524  21.095  0.00  0.00    +0.000 C 
ATOM     14  C   UNL     1       3.677   2.714  19.859  0.00  0.00    +0.000 C 
ENDROOT
BRANCH   1  16
ATOM     15  C   UNL     1       6.034   3.979  14.206  0.00  0.00    +0.000 C 
ATOM     16  O   UNL     1       6.550   4.641  15.358  0.00  0.00    +0.000 OA
ENDBRANCH   1  16
BRANCH  14  17
ATOM     17  C   UNL     1       5.132   2.415  20.286  0.00  0.00    +0.000 C 
BRANCH  17  18
ATOM     18  N   UNL     1       5.383   0.998  20.515  0.00  0.00    +0.000 N 
ATOM     19  C   UNL     1       6.064   0.531  21.637  0.00  0.00    +0.000 C 
ATOM     20  O   UNL     1       6.439   1.292  22.527  0.00  0.00    +0.000 OA
ATOM     21  H   UNL     1       5.150   0.333  19.784  0.00  0.00    +0.000 HD
BRANCH  19  22
ATOM     22  C   UNL     1       6.300  -0.997  21.664  0.00  0.00    +0.000 C 
ATOM     23  F   UNL     1       7.628  -1.301  21.782  0.00  0.00    +0.000 F 
ATOM     24  F   UNL     1       5.679  -1.606  22.711  0.00  0.00    +0.000 F 
ATOM     25  F   UNL     1       5.869  -1.619  20.533  0.00  0.00    +0.000 F 
ENDBRANCH  19  22
ENDBRANCH  17  18
ENDBRANCH  14  17
TORSDOF 4
ENDMDL
MODEL 8
REMARK VINA RESULT:      -7.1      3.443      5.956
REMARK  Name = 
REMARK  6 active torsions:
REMARK  status: ('A' for Active; 'I' for Inactive)
REMARK    1  A    between atoms: C_1  and  O_2
REMARK    2  A    between atoms: O_2  and  C_3
REMARK    3  A    between atoms: N_11  and  C_12
REMARK    4  A    between atoms: C_16  and  C_17
REMARK    5  A    between atoms: C_17  and  N_18
REMARK    6  A    between atoms: C_19  and  C_21
REMARK                            x       y       z     vdW  Elec       q    Type
REMARK                         _______ _______ _______ _____ _____    ______ ____
ROOT
ATOM      1  C   UNL     1       5.969   6.072  16.790  0.00  0.00    +0.000 A 
ATOM      2  C   UNL     1       6.108   4.902  16.050  0.00  0.00    +0.000 A 
ATOM      3  C   UNL     1       5.384   3.755  16.380  0.00  0.00    +0.000 A 
ATOM      4  C   UNL     1       4.502   3.816  17.470  0.00  0.00    +0.000 A 
ATOM      5  C   UNL     1       4.322   4.981  18.224  0.00  0.00    +0.000 A 
ATOM      6  C   UNL     1       5.102   6.112  17.893  0.00  0.00    +0.000 A 
ATOM      7  C   UNL     1       3.321   4.696  19.209  0.00  0.00    +0.000 A 
ATOM      8  C   UNL     1       3.000   3.355  19.078  0.00  0.00    +0.000 A 
ATOM      9  N   UNL     1       3.707   2.834  18.030  0.00  0.00    +0.000 N 
ATOM     10  C   UNL     1       3.707   1.457  17.584  0.00  0.00    +0.000 C 
ATOM     11  C   UNL     1       2.062   2.602  19.958  0.00  0.00    +0.000 C 
ATOM     12  C   UNL     1       1.968   3.314  21.312  0.00  0.00    +0.000 C 
ATOM     13  C   UNL     1       1.667   4.807  21.133  0.00  0.00    +0.000 C 
ATOM     14  C   UNL     1       2.730   5.580  20.288  0.00  0.00    +0.000 C 
ENDROOT
BRANCH   1  16
ATOM     15  C   UNL     1       7.597   7.602  17.555  0.00  0.00    +0.000 C 
ATOM     16  O   UNL     1       6.664   7.228  16.544  0.00  0.00    +0.000 OA
ENDBRANCH   1  16
BRANCH  14  17
ATOM     17  C   UNL     1       2.077   6.859  19.717  0.00  0.00    +0.000 C 
BRANCH  17  18
ATOM     18  N   UNL     1       2.009   7.949  20.683  0.00  0.00    +0.000 N 
ATOM     19  C   UNL     1       0.823   8.314  21.314  0.00  0.00    +0.000 C 
ATOM     20  O   UNL     1      -0.224   7.694  21.132  0.00  0.00    +0.000 OA
ATOM     21  H   UNL     1       2.827   8.532  20.824  0.00  0.00    +0.000 HD
BRANCH  19  22
ATOM     22  C   UNL     1       0.935   9.543  22.246  0.00  0.00    +0.000 C 
ATOM     23  F   UNL     1       2.011   9.445  23.084  0.00  0.00    +0.000 F 
ATOM     24  F   UNL     1       1.096  10.708  21.561  0.00  0.00    +0.000 F 
ATOM     25  F   UNL     1      -0.154   9.701  23.047  0.00  0.00    +0.000 F 
ENDBRANCH  19  22
ENDBRANCH  17  18
ENDBRANCH  14  17
TORSDOF 4
ENDMDL
MODEL 9
REMARK VINA RESULT:      -7.0      3.521      6.117
REMARK  Name = 
REMARK  6 active torsions:
REMARK  status: ('A' for Active; 'I' for Inactive)
REMARK    1  A    between atoms: C_1  and  O_2
REMARK    2  A    between atoms: O_2  and  C_3
REMARK    3  A    between atoms: N_11  and  C_12
REMARK    4  A    between atoms: C_16  and  C_17
REMARK    5  A    between atoms: C_17  and  N_18
REMARK    6  A    between atoms: C_19  and  C_21
REMARK                            x       y       z     vdW  Elec       q    Type
REMARK                         _______ _______ _______ _____ _____    ______ ____
ROOT
ATOM      1  C   UNL     1       6.775   5.834  18.154  0.00  0.00    +0.000 A 
ATOM      2  C   UNL     1       6.943   4.853  17.181  0.00  0.00    +0.000 A 
ATOM      3  C   UNL     1       5.970   3.874  16.977  0.00  0.00    +0.000 A 
ATOM      4  C   UNL     1       4.812   3.911  17.767  0.00  0.00    +0.000 A 
ATOM      5  C   UNL     1       4.600   4.894  18.740  0.00  0.00    +0.000 A 
ATOM      6  C   UNL     1       5.623   5.845  18.955  0.00  0.00    +0.000 A 
ATOM      7  C   UNL     1       3.306   4.656  19.308  0.00  0.00    +0.000 A 
ATOM      8  C   UNL     1       2.822   3.494  18.728  0.00  0.00    +0.000 A 
ATOM      9  N   UNL     1       3.727   3.055  17.802  0.00  0.00    +0.000 N 
ATOM     10  C   UNL     1       3.637   1.850  17.006  0.00  0.00    +0.000 C 
ATOM     11  C   UNL     1       1.541   2.821  19.084  0.00  0.00    +0.000 C 
ATOM     12  C   UNL     1       1.144   3.225  20.508  0.00  0.00    +0.000 C 
ATOM     13  C   UNL     1       1.170   4.748  20.679  0.00  0.00    +0.000 C 
ATOM     14  C   UNL     1       2.560   5.403  20.394  0.00  0.00    +0.000 C 
ENDROOT
BRANCH   1  16
ATOM     15  C   UNL     1       7.675   7.932  17.552  0.00  0.00    +0.000 C 
ATOM     16  O   UNL     1       7.697   6.811  18.432  0.00  0.00    +0.000 OA
ENDBRANCH   1  16
BRANCH  14  17
ATOM     17  C   UNL     1       2.347   6.895  20.051  0.00  0.00    +0.000 C 
BRANCH  17  18
ATOM     18  N   UNL     1       1.670   7.636  21.108  0.00  0.00    +0.000 N 
ATOM     19  C   UNL     1       0.987   8.825  20.867  0.00  0.00    +0.000 C 
ATOM     20  O   UNL     1       0.869   9.283  19.731  0.00  0.00    +0.000 OA
ATOM     21  H   UNL     1       1.787   7.336  22.070  0.00  0.00    +0.000 HD
BRANCH  19  22
ATOM     22  C   UNL     1       0.401   9.504  22.127  0.00  0.00    +0.000 C 
ATOM     23  F   UNL     1       1.218   9.346  23.212  0.00  0.00    +0.000 F 
ATOM     24  F   UNL     1       0.235  10.845  21.971  0.00  0.00    +0.000 F 
ATOM     25  F   UNL     1      -0.808   8.995  22.488  0.00  0.00    +0.000 F 
ENDBRANCH  19  22
ENDBRANCH  17  18
ENDBRANCH  14  17
TORSDOF 4
ENDMDL
