MODEL 1
REMARK VINA RESULT:      -7.5      0.000      0.000
REMARK  Name = 
REMARK  6 active torsions:
REMARK  status: ('A' for Active; 'I' for Inactive)
REMARK    1  A    between atoms: C_1  and  C_2
REMARK    2  A    between atoms: C_2  and  O_3
REMARK    3  A    between atoms: O_3  and  C_4
REMARK    4  A    between atoms: C_4  and  C_6
REMARK    5  A    between atoms: C_8  and  C_9
REMARK    6  A    between atoms: C_10  and  C_11
REMARK                            x       y       z     vdW  Elec       q    Type
REMARK                         _______ _______ _______ _____ _____    ______ ____
ROOT
ATOM      1  C   UNL     1       6.643   4.695  13.968  0.00  0.00    +0.000 A 
ATOM      2  C   UNL     1       5.434   4.825  14.697  0.00  0.00    +0.000 A 
ATOM      3  C   UNL     1       5.762   5.477  15.872  0.00  0.00    +0.000 A 
ATOM      4  O   UNL     1       7.108   5.754  15.803  0.00  0.00    +0.000 OA
ATOM      5  N   UNL     1       7.648   5.277  14.635  0.00  0.00    +0.000 NA
ENDROOT
BRANCH   1   6
ATOM      6  C   UNL     1       6.848   3.975  12.715  0.00  0.00    +0.000 C 
ATOM      7  O   UNL     1       7.469   4.450  11.770  0.00  0.00    +0.000 OA
BRANCH   6   8
ATOM      8  O   UNL     1       6.193   2.778  12.687  0.00  0.00    +0.000 OA
BRANCH   8  10
ATOM      9  C   UNL     1       4.207   3.244  11.446  0.00  0.00    +0.000 C 
ATOM     10  C   UNL     1       5.512   2.467  11.468  0.00  0.00    +0.000 C 
ENDBRANCH   8  10
ENDBRANCH   6   8
ENDBRANCH   1   6
BRANCH   3  11
ATOM     11  C   UNL     1       4.935   5.810  16.978  0.00  0.00    +0.000 C 
ATOM     12  C   UNL     1       4.239   4.856  17.617  0.00  0.00    +0.000 C 
BRANCH  12  13
ATOM     13  C   UNL     1       3.344   5.091  18.761  0.00  0.00    +0.000 A 
ATOM     14  C   UNL     1       2.920   6.371  19.137  0.00  0.00    +0.000 A 
ATOM     15  C   UNL     1       2.037   6.533  20.208  0.00  0.00    +0.000 A 
ATOM     16 CL   UNL     1       1.533   8.115  20.659  0.00  0.00    +0.000 Cl
ATOM     17  C   UNL     1       1.554   5.430  20.905  0.00  0.00    +0.000 A 
ATOM     18  C   UNL     1       1.960   4.157  20.522  0.00  0.00    +0.000 A 
ATOM     19 CL   UNL     1       1.359   2.781  21.363  0.00  0.00    +0.000 Cl
ATOM     20  C   UNL     1       2.846   3.981  19.457  0.00  0.00    +0.000 A 
ENDBRANCH  12  13
ENDBRANCH   3  11
TORSDOF 5
ENDMDL
MODEL 2
REMARK VINA RESULT:      -7.1      6.233      7.757
REMARK  Name = 
REMARK  6 active torsions:
REMARK  status: ('A' for Active; 'I' for Inactive)
REMARK    1  A    between atoms: C_1  and  C_2
REMARK    2  A    between atoms: C_2  and  O_3
REMARK    3  A    between atoms: O_3  and  C_4
REMARK    4  A    between atoms: C_4  and  C_6
REMARK    5  A    between atoms: C_8  and  C_9
REMARK    6  A    between atoms: C_10  and  C_11
REMARK                            x       y       z     vdW  Elec       q    Type
REMARK                         _______ _______ _______ _____ _____    ______ ____
ROOT
ATOM      1  C   UNL     1       6.348   5.798  17.505  0.00  0.00    +0.000 A 
ATOM      2  C   UNL     1       6.498   7.145  17.091  0.00  0.00    +0.000 A 
ATOM      3  C   UNL     1       7.549   7.659  17.827  0.00  0.00    +0.000 A 
ATOM      4  O   UNL     1       8.020   6.630  18.609  0.00  0.00    +0.000 OA
ATOM      5  N   UNL     1       7.286   5.487  18.409  0.00  0.00    +0.000 NA
ENDROOT
BRANCH   1   6
ATOM      6  C   UNL     1       5.302   4.861  17.108  0.00  0.00    +0.000 C 
ATOM      7  O   UNL     1       4.122   5.022  17.401  0.00  0.00    +0.000 OA
BRANCH   6   8
ATOM      8  O   UNL     1       5.799   3.760  16.473  0.00  0.00    +0.000 OA
BRANCH   8  10
ATOM      9  C   UNL     1       5.572   4.247  14.146  0.00  0.00    +0.000 C 
ATOM     10  C   UNL     1       6.552   4.012  15.283  0.00  0.00    +0.000 C 
ENDBRANCH   8  10
ENDBRANCH   6   8
ENDBRANCH   1   6
BRANCH   3  11
ATOM     11  C   UNL     1       8.079   8.978  17.842  0.00  0.00    +0.000 C 
ATOM     12  C   UNL     1       8.906   9.367  18.825  0.00  0.00    +0.000 C 
BRANCH  12  13
ATOM     13  C   UNL     1       9.499  10.708  18.945  0.00  0.00    +0.000 A 
ATOM     14  C   UNL     1      10.096  11.369  17.865  0.00  0.00    +0.000 A 
ATOM     15  C   UNL     1      10.607  12.659  18.025  0.00  0.00    +0.000 A 
ATOM     16 CL   UNL     1      11.344  13.452  16.687  0.00  0.00    +0.000 Cl
ATOM     17  C   UNL     1      10.519  13.313  19.250  0.00  0.00    +0.000 A 
ATOM     18  C   UNL     1       9.910  12.665  20.320  0.00  0.00    +0.000 A 
ATOM     19 CL   UNL     1       9.777  13.466  21.838  0.00  0.00    +0.000 Cl
ATOM     20  C   UNL     1       9.399  11.374  20.174  0.00  0.00    +0.000 A 
ENDBRANCH  12  13
ENDBRANCH   3  11
TORSDOF 5
ENDMDL
MODEL 3
REMARK VINA RESULT:      -6.9      0.747      2.151
REMARK  Name = 
REMARK  6 active torsions:
REMARK  status: ('A' for Active; 'I' for Inactive)
REMARK    1  A    between atoms: C_1  and  C_2
REMARK    2  A    between atoms: C_2  and  O_3
REMARK    3  A    between atoms: O_3  and  C_4
REMARK    4  A    between atoms: C_4  and  C_6
REMARK    5  A    between atoms: C_8  and  C_9
REMARK    6  A    between atoms: C_10  and  C_11
REMARK                            x       y       z     vdW  Elec       q    Type
REMARK                         _______ _______ _______ _____ _____    ______ ____
ROOT
ATOM      1  C   UNL     1       6.417   4.246  13.802  0.00  0.00    +0.000 A 
ATOM      2  C   UNL     1       5.347   4.247  14.732  0.00  0.00    +0.000 A 
ATOM      3  C   UNL     1       5.877   4.697  15.927  0.00  0.00    +0.000 A 
ATOM      4  O   UNL     1       7.199   4.989  15.684  0.00  0.00    +0.000 OA
ATOM      5  N   UNL     1       7.531   4.715  14.380  0.00  0.00    +0.000 NA
ENDROOT
BRANCH   1   6
ATOM      6  C   UNL     1       6.399   3.745  12.432  0.00  0.00    +0.000 C 
ATOM      7  O   UNL     1       7.387   3.264  11.887  0.00  0.00    +0.000 OA
BRANCH   6   8
ATOM      8  O   UNL     1       5.203   3.962  11.812  0.00  0.00    +0.000 OA
BRANCH   8  10
ATOM      9  C   UNL     1       3.355   3.252  10.475  0.00  0.00    +0.000 C 
ATOM     10  C   UNL     1       4.534   2.798  11.318  0.00  0.00    +0.000 C 
ENDBRANCH   8  10
ENDBRANCH   6   8
ENDBRANCH   1   6
BRANCH   3  11
ATOM     11  C   UNL     1       5.249   4.837  17.195  0.00  0.00    +0.000 C 
ATOM     12  C   UNL     1       3.911   4.828  17.295  0.00  0.00    +0.000 C 
BRANCH  12  13
ATOM     13  C   UNL     1       3.159   4.979  18.550  0.00  0.00    +0.000 A 
ATOM     14  C   UNL     1       2.892   3.902  19.404  0.00  0.00    +0.000 A 
ATOM     15  C   UNL     1       2.208   4.109  20.605  0.00  0.00    +0.000 A 
ATOM     16 CL   UNL     1       1.882   2.771  21.636  0.00  0.00    +0.000 Cl
ATOM     17  C   UNL     1       1.797   5.384  20.979  0.00  0.00    +0.000 A 
ATOM     18  C   UNL     1       2.078   6.458  20.141  0.00  0.00    +0.000 A 
ATOM     19 CL   UNL     1       1.591   8.045  20.597  0.00  0.00    +0.000 Cl
ATOM     20  C   UNL     1       2.756   6.265  18.936  0.00  0.00    +0.000 A 
ENDBRANCH  12  13
ENDBRANCH   3  11
TORSDOF 5
ENDMDL
MODEL 4
REMARK VINA RESULT:      -6.9      6.076      7.838
REMARK  Name = 
REMARK  6 active torsions:
REMARK  status: ('A' for Active; 'I' for Inactive)
REMARK    1  A    between atoms: C_1  and  C_2
REMARK    2  A    between atoms: C_2  and  O_3
REMARK    3  A    between atoms: O_3  and  C_4
REMARK    4  A    between atoms: C_4  and  C_6
REMARK    5  A    between atoms: C_8  and  C_9
REMARK    6  A    between atoms: C_10  and  C_11
REMARK                            x       y       z     vdW  Elec       q    Type
REMARK                         _______ _______ _______ _____ _____    ______ ____
ROOT
ATOM      1  C   UNL     1       6.239   5.465  17.676  0.00  0.00    +0.000 A 
ATOM      2  C   UNL     1       6.848   6.279  18.665  0.00  0.00    +0.000 A 
ATOM      3  C   UNL     1       7.695   7.136  17.988  0.00  0.00    +0.000 A 
ATOM      4  O   UNL     1       7.547   6.858  16.649  0.00  0.00    +0.000 OA
ATOM      5  N   UNL     1       6.651   5.835  16.457  0.00  0.00    +0.000 NA
ENDROOT
BRANCH   1   6
ATOM      6  C   UNL     1       5.352   4.327  17.891  0.00  0.00    +0.000 C 
ATOM      7  O   UNL     1       5.458   3.575  18.855  0.00  0.00    +0.000 OA
BRANCH   6   8
ATOM      8  O   UNL     1       4.476   4.144  16.860  0.00  0.00    +0.000 OA
BRANCH   8  10
ATOM      9  C   UNL     1       2.377   4.747  17.827  0.00  0.00    +0.000 C 
ATOM     10  C   UNL     1       3.193   3.620  17.217  0.00  0.00    +0.000 C 
ENDBRANCH   8  10
ENDBRANCH   6   8
ENDBRANCH   1   6
BRANCH   3  11
ATOM     11  C   UNL     1       8.584   8.118  18.504  0.00  0.00    +0.000 C 
ATOM     12  C   UNL     1       8.418   9.414  18.196  0.00  0.00    +0.000 C 
BRANCH  12  13
ATOM     13  C   UNL     1       9.284  10.508  18.662  0.00  0.00    +0.000 A 
ATOM     14  C   UNL     1      10.201  11.154  17.823  0.00  0.00    +0.000 A 
ATOM     15  C   UNL     1      10.971  12.215  18.307  0.00  0.00    +0.000 A 
ATOM     16 CL   UNL     1      12.097  12.990  17.263  0.00  0.00    +0.000 Cl
ATOM     17  C   UNL     1      10.830  12.656  19.619  0.00  0.00    +0.000 A 
ATOM     18  C   UNL     1       9.907  12.028  20.448  0.00  0.00    +0.000 A 
ATOM     19 CL   UNL     1       9.709  12.572  22.069  0.00  0.00    +0.000 Cl
ATOM     20  C   UNL     1       9.135  10.963  19.979  0.00  0.00    +0.000 A 
ENDBRANCH  12  13
ENDBRANCH   3  11
TORSDOF 5
ENDMDL
MODEL 5
REMARK VINA RESULT:      -6.8      6.465      8.096
REMARK  Name = 
REMARK  6 active torsions:
REMARK  status: ('A' for Active; 'I' for Inactive)
REMARK    1  A    between atoms: C_1  and  C_2
REMARK    2  A    between atoms: C_2  and  O_3
REMARK    3  A    between atoms: O_3  and  C_4
REMARK    4  A    between atoms: C_4  and  C_6
REMARK    5  A    between atoms: C_8  and  C_9
REMARK    6  A    between atoms: C_10  and  C_11
REMARK                            x       y       z     vdW  Elec       q    Type
REMARK                         _______ _______ _______ _____ _____    ______ ____
ROOT
ATOM      1  C   UNL     1       6.524   5.994  17.739  0.00  0.00    +0.000 A 
ATOM      2  C   UNL     1       6.632   7.341  17.310  0.00  0.00    +0.000 A 
ATOM      3  C   UNL     1       7.755   7.854  17.933  0.00  0.00    +0.000 A 
ATOM      4  O   UNL     1       8.302   6.825  18.664  0.00  0.00    +0.000 OA
ATOM      5  N   UNL     1       7.550   5.683  18.542  0.00  0.00    +0.000 NA
ENDROOT
BRANCH   1   6
ATOM      6  C   UNL     1       5.442   5.059  17.454  0.00  0.00    +0.000 C 
ATOM      7  O   UNL     1       4.611   4.728  18.294  0.00  0.00    +0.000 OA
BRANCH   6   8
ATOM      8  O   UNL     1       5.523   4.532  16.197  0.00  0.00    +0.000 OA
BRANCH   8  10
ATOM      9  C   UNL     1       6.793   4.655  14.179  0.00  0.00    +0.000 C 
ATOM     10  C   UNL     1       6.844   4.374  15.670  0.00  0.00    +0.000 C 
ENDBRANCH   8  10
ENDBRANCH   6   8
ENDBRANCH   1   6
BRANCH   3  11
ATOM     11  C   UNL     1       8.284   9.172  17.892  0.00  0.00    +0.000 C 
ATOM     12  C   UNL     1       9.029   9.637  18.906  0.00  0.00    +0.000 C 
BRANCH  12  13
ATOM     13  C   UNL     1       9.613  10.986  18.973  0.00  0.00    +0.000 A 
ATOM     14  C   UNL     1       9.583  11.764  20.137  0.00  0.00    +0.000 A 
ATOM     15  C   UNL     1      10.189  13.023  20.158  0.00  0.00    +0.000 A 
ATOM     16 CL   UNL     1      10.133  13.967  21.595  0.00  0.00    +0.000 Cl
ATOM     17  C   UNL     1      10.843  13.516  19.033  0.00  0.00    +0.000 A 
ATOM     18  C   UNL     1      10.890  12.737  17.882  0.00  0.00    +0.000 A 
ATOM     19 CL   UNL     1      11.710  13.325  16.488  0.00  0.00    +0.000 Cl
ATOM     20  C   UNL     1      10.285  11.480  17.847  0.00  0.00    +0.000 A 
ENDBRANCH  12  13
ENDBRANCH   3  11
TORSDOF 5
ENDMDL
MODEL 6
REMARK VINA RESULT:      -6.8      2.812      4.289
REMARK  Name = 
REMARK  6 active torsions:
REMARK  status: ('A' for Active; 'I' for Inactive)
REMARK    1  A    between atoms: C_1  and  C_2
REMARK    2  A    between atoms: C_2  and  O_3
REMARK    3  A    between atoms: O_3  and  C_4
REMARK    4  A    between atoms: C_4  and  C_6
REMARK    5  A    between atoms: C_8  and  C_9
REMARK    6  A    between atoms: C_10  and  C_11
REMARK                            x       y       z     vdW  Elec       q    Type
REMARK                         _______ _______ _______ _____ _____    ______ ____
ROOT
ATOM      1  C   UNL     1       5.903   5.469  16.526  0.00  0.00    +0.000 A 
ATOM      2  C   UNL     1       4.626   5.359  17.132  0.00  0.00    +0.000 A 
ATOM      3  C   UNL     1       4.264   6.641  17.502  0.00  0.00    +0.000 A 
ATOM      4  O   UNL     1       5.278   7.470  17.084  0.00  0.00    +0.000 OA
ATOM      5  N   UNL     1       6.283   6.753  16.483  0.00  0.00    +0.000 NA
ENDROOT
BRANCH   1   6
ATOM      6  C   UNL     1       6.765   4.382  16.074  0.00  0.00    +0.000 C 
ATOM      7  O   UNL     1       7.863   4.155  16.571  0.00  0.00    +0.000 OA
BRANCH   6   8
ATOM      8  O   UNL     1       6.256   3.729  14.989  0.00  0.00    +0.000 OA
BRANCH   8  10
ATOM      9  C   UNL     1       5.996   3.392  12.639  0.00  0.00    +0.000 C 
ATOM     10  C   UNL     1       6.550   4.310  13.715  0.00  0.00    +0.000 C 
ENDBRANCH   8  10
ENDBRANCH   6   8
ENDBRANCH   1   6
BRANCH   3  11
ATOM     11  C   UNL     1       3.104   7.085  18.193  0.00  0.00    +0.000 C 
ATOM     12  C   UNL     1       2.678   8.350  18.062  0.00  0.00    +0.000 C 
BRANCH  12  13
ATOM     13  C   UNL     1       1.502   8.918  18.741  0.00  0.00    +0.000 A 
ATOM     14  C   UNL     1       1.272   8.755  20.113  0.00  0.00    +0.000 A 
ATOM     15  C   UNL     1       0.160   9.350  20.715  0.00  0.00    +0.000 A 
ATOM     16 CL   UNL     1      -0.109   9.132  22.400  0.00  0.00    +0.000 Cl
ATOM     17  C   UNL     1      -0.724  10.123  19.969  0.00  0.00    +0.000 A 
ATOM     18  C   UNL     1      -0.487  10.300  18.610  0.00  0.00    +0.000 A 
ATOM     19 CL   UNL     1      -1.563  11.267  17.677  0.00  0.00    +0.000 Cl
ATOM     20  C   UNL     1       0.617   9.708  17.996  0.00  0.00    +0.000 A 
ENDBRANCH  12  13
ENDBRANCH   3  11
TORSDOF 5
ENDMDL
MODEL 7
REMARK VINA RESULT:      -6.8      6.408      8.380
REMARK  Name = 
REMARK  6 active torsions:
REMARK  status: ('A' for Active; 'I' for Inactive)
REMARK    1  A    between atoms: C_1  and  C_2
REMARK    2  A    between atoms: C_2  and  O_3
REMARK    3  A    between atoms: O_3  and  C_4
REMARK    4  A    between atoms: C_4  and  C_6
REMARK    5  A    between atoms: C_8  and  C_9
REMARK    6  A    between atoms: C_10  and  C_11
REMARK                            x       y       z     vdW  Elec       q    Type
REMARK                         _______ _______ _______ _____ _____    ______ ____
ROOT
ATOM      1  C   UNL     1       6.414   5.927  17.891  0.00  0.00    +0.000 A 
ATOM      2  C   UNL     1       6.587   7.247  17.405  0.00  0.00    +0.000 A 
ATOM      3  C   UNL     1       7.731   7.733  18.011  0.00  0.00    +0.000 A 
ATOM      4  O   UNL     1       8.227   6.711  18.787  0.00  0.00    +0.000 OA
ATOM      5  N   UNL     1       7.421   5.602  18.712  0.00  0.00    +0.000 NA
ENDROOT
BRANCH   1   6
ATOM      6  C   UNL     1       5.288   5.032  17.641  0.00  0.00    +0.000 C 
ATOM      7  O   UNL     1       5.288   4.201  16.740  0.00  0.00    +0.000 OA
BRANCH   6   8
ATOM      8  O   UNL     1       4.221   5.296  18.450  0.00  0.00    +0.000 OA
BRANCH   8  10
ATOM      9  C   UNL     1       2.760   4.802  20.273  0.00  0.00    +0.000 C 
ATOM     10  C   UNL     1       3.920   4.299  19.432  0.00  0.00    +0.000 C 
ENDBRANCH   8  10
ENDBRANCH   6   8
ENDBRANCH   1   6
BRANCH   3  11
ATOM     11  C   UNL     1       8.323   9.021  17.916  0.00  0.00    +0.000 C 
ATOM     12  C   UNL     1       8.946   9.563  18.974  0.00  0.00    +0.000 C 
BRANCH  12  13
ATOM     13  C   UNL     1       9.579  10.891  18.990  0.00  0.00    +0.000 A 
ATOM     14  C   UNL     1      10.156  11.465  17.851  0.00  0.00    +0.000 A 
ATOM     15  C   UNL     1      10.708  12.748  17.912  0.00  0.00    +0.000 A 
ATOM     16 CL   UNL     1      11.419  13.433  16.503  0.00  0.00    +0.000 Cl
ATOM     17  C   UNL     1      10.679  13.479  19.095  0.00  0.00    +0.000 A 
ATOM     18  C   UNL     1      10.090  12.917  20.223  0.00  0.00    +0.000 A 
ATOM     19 CL   UNL     1      10.032  13.815  21.690  0.00  0.00    +0.000 Cl
ATOM     20  C   UNL     1       9.539  11.635  20.176  0.00  0.00    +0.000 A 
ENDBRANCH  12  13
ENDBRANCH   3  11
TORSDOF 5
ENDMDL
MODEL 8
REMARK VINA RESULT:      -6.8      5.917      7.284
REMARK  Name = 
REMARK  6 active torsions:
REMARK  status: ('A' for Active; 'I' for Inactive)
REMARK    1  A    between atoms: C_1  and  C_2
REMARK    2  A    between atoms: C_2  and  O_3
REMARK    3  A    between atoms: O_3  and  C_4
REMARK    4  A    between atoms: C_4  and  C_6
REMARK    5  A    between atoms: C_8  and  C_9
REMARK    6  A    between atoms: C_10  and  C_11
REMARK                            x       y       z     vdW  Elec       q    Type
REMARK                         _______ _______ _______ _____ _____    ______ ____
ROOT
ATOM      1  C   UNL     1       6.962   5.305  16.735  0.00  0.00    +0.000 A 
ATOM      2  C   UNL     1       7.247   6.650  16.389  0.00  0.00    +0.000 A 
ATOM      3  C   UNL     1       7.601   7.283  17.566  0.00  0.00    +0.000 A 
ATOM      4  O   UNL     1       7.565   6.325  18.552  0.00  0.00    +0.000 OA
ATOM      5  N   UNL     1       7.176   5.111  18.043  0.00  0.00    +0.000 NA
ENDROOT
BRANCH   1   6
ATOM      6  C   UNL     1       6.431   4.261  15.865  0.00  0.00    +0.000 C 
ATOM      7  O   UNL     1       5.794   3.303  16.290  0.00  0.00    +0.000 OA
BRANCH   6   8
ATOM      8  O   UNL     1       6.809   4.423  14.564  0.00  0.00    +0.000 OA
BRANCH   8  10
ATOM      9  C   UNL     1       6.702   3.672  12.299  0.00  0.00    +0.000 C 
ATOM     10  C   UNL     1       5.918   3.882  13.583  0.00  0.00    +0.000 C 
ENDBRANCH   8  10
ENDBRANCH   6   8
ENDBRANCH   1   6
BRANCH   3  11
ATOM     11  C   UNL     1       7.929   8.648  17.791  0.00  0.00    +0.000 C 
ATOM     12  C   UNL     1       8.856   8.982  18.702  0.00  0.00    +0.000 C 
BRANCH  12  13
ATOM     13  C   UNL     1       9.261  10.359  19.025  0.00  0.00    +0.000 A 
ATOM     14  C   UNL     1       9.194  10.881  20.322  0.00  0.00    +0.000 A 
ATOM     15  C   UNL     1       9.630  12.183  20.581  0.00  0.00    +0.000 A 
ATOM     16 CL   UNL     1       9.531  12.807  22.181  0.00  0.00    +0.000 Cl
ATOM     17  C   UNL     1      10.150  12.974  19.562  0.00  0.00    +0.000 A 
ATOM     18  C   UNL     1      10.235  12.452  18.276  0.00  0.00    +0.000 A 
ATOM     19 CL   UNL     1      10.892  13.412  17.008  0.00  0.00    +0.000 Cl
ATOM     20  C   UNL     1       9.799  11.154  18.003  0.00  0.00    +0.000 A 
ENDBRANCH  12  13
ENDBRANCH   3  11
TORSDOF 5
ENDMDL
MODEL 9
REMARK VINA RESULT:      -6.7      2.616      3.631
REMARK  Name = 
REMARK  6 active torsions:
REMARK  status: ('A' for Active; 'I' for Inactive)
REMARK    1  A    between atoms: C_1  and  C_2
REMARK    2  A    between atoms: C_2  and  O_3
REMARK    3  A    between atoms: O_3  and  C_4
REMARK    4  A    between atoms: C_4  and  C_6
REMARK    5  A    between atoms: C_8  and  C_9
REMARK    6  A    between atoms: C_10  and  C_11
REMARK                            x       y       z     vdW  Elec       q    Type
REMARK                         _______ _______ _______ _____ _____    ______ ____
ROOT
ATOM      1  C   UNL     1       5.642   5.243  15.798  0.00  0.00    +0.000 A 
ATOM      2  C   UNL     1       5.364   6.587  16.150  0.00  0.00    +0.000 A 
ATOM      3  C   UNL     1       4.307   6.540  17.041  0.00  0.00    +0.000 A 
ATOM      4  O   UNL     1       4.014   5.210  17.230  0.00  0.00    +0.000 OA
ATOM      5  N   UNL     1       4.834   4.413  16.470  0.00  0.00    +0.000 NA
ENDROOT
BRANCH   1   6
ATOM      6  C   UNL     1       6.593   4.769  14.798  0.00  0.00    +0.000 C 
ATOM      7  O   UNL     1       7.610   5.388  14.503  0.00  0.00    +0.000 OA
BRANCH   6   8
ATOM      8  O   UNL     1       6.173   3.630  14.174  0.00  0.00    +0.000 OA
BRANCH   8  10
ATOM      9  C   UNL     1       4.943   3.495  12.132  0.00  0.00    +0.000 C 
ATOM     10  C   UNL     1       6.325   3.605  12.752  0.00  0.00    +0.000 C 
ENDBRANCH   8  10
ENDBRANCH   6   8
ENDBRANCH   1   6
BRANCH   3  11
ATOM     11  C   UNL     1       3.602   7.608  17.660  0.00  0.00    +0.000 C 
ATOM     12  C   UNL     1       2.494   7.366  18.376  0.00  0.00    +0.000 C 
BRANCH  12  13
ATOM     13  C   UNL     1       1.682   8.394  19.045  0.00  0.00    +0.000 A 
ATOM     14  C   UNL     1       0.952   9.357  18.337  0.00  0.00    +0.000 A 
ATOM     15  C   UNL     1       0.164  10.286  19.021  0.00  0.00    +0.000 A 
ATOM     16 CL   UNL     1      -0.720  11.465  18.134  0.00  0.00    +0.000 Cl
ATOM     17  C   UNL     1       0.079  10.261  20.410  0.00  0.00    +0.000 A 
ATOM     18  C   UNL     1       0.789   9.294  21.114  0.00  0.00    +0.000 A 
ATOM     19 CL   UNL     1       0.682   9.239  22.830  0.00  0.00    +0.000 Cl
ATOM     20  C   UNL     1       1.583   8.363  20.442  0.00  0.00    +0.000 A 
ENDBRANCH  12  13
ENDBRANCH   3  11
TORSDOF 5
ENDMDL
