MODEL 1
REMARK VINA RESULT:      -7.3      0.000      0.000
REMARK  Name = 
REMARK  5 active torsions:
REMARK  status: ('A' for Active; 'I' for Inactive)
REMARK    1  A    between atoms: C_1  and  C_2
REMARK    2  A    between atoms: C_5  and  C_6
REMARK    3  A    between atoms: C_6  and  O_8
REMARK    4  A    between atoms: C_9  and  C_10
REMARK    5  A    between atoms: C_9  and  C_11
REMARK                            x       y       z     vdW  Elec       q    Type
REMARK                         _______ _______ _______ _____ _____    ______ ____
ROOT
ATOM      1  C   UNL     1       1.020   6.752  20.801  0.00  0.00    +0.000 C 
ATOM      2  C   UNL     1       2.333   5.962  20.756  0.00  0.00    +0.000 C 
ATOM      3  C   UNL     1       2.196   4.614  21.460  0.00  0.00    +0.000 C 
ATOM      4  C   UNL     1       2.306   3.394  20.614  0.00  0.00    +0.000 C 
ATOM      5  C   UNL     1       2.631   3.351  19.310  0.00  0.00    +0.000 C 
ATOM      6  C   UNL     1       2.945   4.610  18.506  0.00  0.00    +0.000 C 
ATOM      7  C   UNL     1       1.818   4.729  17.441  0.00  0.00    +0.000 C 
ATOM      8  C   UNL     1       2.927   5.944  19.337  0.00  0.00    +0.000 C 
ENDROOT
BRANCH   6   9
ATOM      9  C   UNL     1       4.374   4.561  17.898  0.00  0.00    +0.000 A 
ATOM     10  C   UNL     1       4.608   4.186  16.564  0.00  0.00    +0.000 A 
ATOM     11  C   UNL     1       5.902   4.213  16.028  0.00  0.00    +0.000 A 
ATOM     12 CL   UNL     1       6.145   3.759  14.385  0.00  0.00    +0.000 Cl
ATOM     13  C   UNL     1       6.988   4.614  16.796  0.00  0.00    +0.000 A 
ATOM     14  C   UNL     1       6.774   5.008  18.110  0.00  0.00    +0.000 A 
ATOM     15 CL   UNL     1       8.100   5.528  19.074  0.00  0.00    +0.000 Cl
ATOM     16  C   UNL     1       5.487   4.994  18.655  0.00  0.00    +0.000 A 
ENDBRANCH   6   9
BRANCH   5  17
ATOM     17  C   UNL     1       2.653   1.957  18.742  0.00  0.00    +0.000 C 
ATOM     18  O   UNL     1       3.690   1.366  18.471  0.00  0.00    +0.000 OA
BRANCH  17  19
ATOM     19  O   UNL     1       1.465   1.370  18.520  0.00  0.00    +0.000 OA
ATOM     20  H   UNL     1       1.454   0.563  17.983  0.00  0.00    +0.000 HD
ENDBRANCH  17  19
ENDBRANCH   5  17
TORSDOF 3
ENDMDL
MODEL 2
REMARK VINA RESULT:      -7.1      0.125      2.067
REMARK  Name = 
REMARK  5 active torsions:
REMARK  status: ('A' for Active; 'I' for Inactive)
REMARK    1  A    between atoms: C_1  and  C_2
REMARK    2  A    between atoms: C_5  and  C_6
REMARK    3  A    between atoms: C_6  and  O_8
REMARK    4  A    between atoms: C_9  and  C_10
REMARK    5  A    between atoms: C_9  and  C_11
REMARK                            x       y       z     vdW  Elec       q    Type
REMARK                         _______ _______ _______ _____ _____    ______ ____
ROOT
ATOM      1  C   UNL     1       0.893   6.713  20.805  0.00  0.00    +0.000 C 
ATOM      2  C   UNL     1       2.248   5.998  20.763  0.00  0.00    +0.000 C 
ATOM      3  C   UNL     1       2.184   4.643  21.466  0.00  0.00    +0.000 C 
ATOM      4  C   UNL     1       2.365   3.433  20.619  0.00  0.00    +0.000 C 
ATOM      5  C   UNL     1       2.697   3.410  19.317  0.00  0.00    +0.000 C 
ATOM      6  C   UNL     1       2.943   4.684  18.514  0.00  0.00    +0.000 C 
ATOM      7  C   UNL     1       1.815   4.743  17.445  0.00  0.00    +0.000 C 
ATOM      8  C   UNL     1       2.847   6.015  19.347  0.00  0.00    +0.000 C 
ENDROOT
BRANCH   6   9
ATOM      9  C   UNL     1       4.375   4.717  17.912  0.00  0.00    +0.000 A 
ATOM     10  C   UNL     1       5.501   5.073  18.674  0.00  0.00    +0.000 A 
ATOM     11  C   UNL     1       6.785   5.032  18.118  0.00  0.00    +0.000 A 
ATOM     12 CL   UNL     1       8.140   5.464  19.089  0.00  0.00    +0.000 Cl
ATOM     13  C   UNL     1       6.985   4.636  16.801  0.00  0.00    +0.000 A 
ATOM     14  C   UNL     1       5.887   4.260  16.039  0.00  0.00    +0.000 A 
ATOM     15 CL   UNL     1       6.111   3.745  14.412  0.00  0.00    +0.000 Cl
ATOM     16  C   UNL     1       4.600   4.288  16.584  0.00  0.00    +0.000 A 
ENDBRANCH   6   9
BRANCH   5  17
ATOM     17  C   UNL     1       2.798   2.020  18.747  0.00  0.00    +0.000 C 
ATOM     18  O   UNL     1       3.857   1.411  18.665  0.00  0.00    +0.000 OA
BRANCH  17  19
ATOM     19  O   UNL     1       1.661   1.456  18.305  0.00  0.00    +0.000 OA
ATOM     20  H   UNL     1       0.823   1.875  18.555  0.00  0.00    +0.000 HD
ENDBRANCH  17  19
ENDBRANCH   5  17
TORSDOF 3
ENDMDL
MODEL 3
REMARK VINA RESULT:      -7.0      1.237      2.557
REMARK  Name = 
REMARK  5 active torsions:
REMARK  status: ('A' for Active; 'I' for Inactive)
REMARK    1  A    between atoms: C_1  and  C_2
REMARK    2  A    between atoms: C_5  and  C_6
REMARK    3  A    between atoms: C_6  and  O_8
REMARK    4  A    between atoms: C_9  and  C_10
REMARK    5  A    between atoms: C_9  and  C_11
REMARK                            x       y       z     vdW  Elec       q    Type
REMARK                         _______ _______ _______ _____ _____    ______ ____
ROOT
ATOM      1  C   UNL     1       0.362   4.675  20.274  0.00  0.00    +0.000 C 
ATOM      2  C   UNL     1       1.886   4.787  20.398  0.00  0.00    +0.000 C 
ATOM      3  C   UNL     1       2.425   3.867  21.492  0.00  0.00    +0.000 C 
ATOM      4  C   UNL     1       3.295   2.740  21.059  0.00  0.00    +0.000 C 
ATOM      5  C   UNL     1       3.754   2.515  19.816  0.00  0.00    +0.000 C 
ATOM      6  C   UNL     1       3.424   3.436  18.645  0.00  0.00    +0.000 C 
ATOM      7  C   UNL     1       2.565   2.589  17.663  0.00  0.00    +0.000 C 
ATOM      8  C   UNL     1       2.567   4.700  19.022  0.00  0.00    +0.000 C 
ENDROOT
BRANCH   6   9
ATOM      9  C   UNL     1       4.707   4.027  17.999  0.00  0.00    +0.000 A 
ATOM     10  C   UNL     1       5.675   4.716  18.750  0.00  0.00    +0.000 A 
ATOM     11  C   UNL     1       6.851   5.182  18.149  0.00  0.00    +0.000 A 
ATOM     12 CL   UNL     1       8.018   6.010  19.107  0.00  0.00    +0.000 Cl
ATOM     13  C   UNL     1       7.096   4.975  16.797  0.00  0.00    +0.000 A 
ATOM     14  C   UNL     1       6.161   4.279  16.043  0.00  0.00    +0.000 A 
ATOM     15 CL   UNL     1       6.453   3.992  14.372  0.00  0.00    +0.000 Cl
ATOM     16  C   UNL     1       4.988   3.800  16.632  0.00  0.00    +0.000 A 
ENDBRANCH   6   9
BRANCH   5  17
ATOM     17  C   UNL     1       4.612   1.282  19.707  0.00  0.00    +0.000 C 
ATOM     18  O   UNL     1       5.441   0.972  20.553  0.00  0.00    +0.000 OA
BRANCH  17  19
ATOM     19  O   UNL     1       4.448   0.519  18.614  0.00  0.00    +0.000 OA
ATOM     20  H   UNL     1       3.967   0.901  17.864  0.00  0.00    +0.000 HD
ENDBRANCH  17  19
ENDBRANCH   5  17
TORSDOF 3
ENDMDL
MODEL 4
REMARK VINA RESULT:      -6.9      0.798      2.317
REMARK  Name = 
REMARK  5 active torsions:
REMARK  status: ('A' for Active; 'I' for Inactive)
REMARK    1  A    between atoms: C_1  and  C_2
REMARK    2  A    between atoms: C_5  and  C_6
REMARK    3  A    between atoms: C_6  and  O_8
REMARK    4  A    between atoms: C_9  and  C_10
REMARK    5  A    between atoms: C_9  and  C_11
REMARK                            x       y       z     vdW  Elec       q    Type
REMARK                         _______ _______ _______ _____ _____    ______ ____
ROOT
ATOM      1  C   UNL     1       0.634   6.024  20.464  0.00  0.00    +0.000 C 
ATOM      2  C   UNL     1       2.144   5.760  20.467  0.00  0.00    +0.000 C 
ATOM      3  C   UNL     1       2.502   4.582  21.372  0.00  0.00    +0.000 C 
ATOM      4  C   UNL     1       3.049   3.365  20.712  0.00  0.00    +0.000 C 
ATOM      5  C   UNL     1       3.373   3.235  19.414  0.00  0.00    +0.000 C 
ATOM      6  C   UNL     1       3.214   4.378  18.415  0.00  0.00    +0.000 C 
ATOM      7  C   UNL     1       2.124   3.916  17.406  0.00  0.00    +0.000 C 
ATOM      8  C   UNL     1       2.710   5.731  19.037  0.00  0.00    +0.000 C 
ENDROOT
BRANCH   6   9
ATOM      9  C   UNL     1       4.566   4.748  17.745  0.00  0.00    +0.000 A 
ATOM     10  C   UNL     1       5.564   5.469  18.422  0.00  0.00    +0.000 A 
ATOM     11  C   UNL     1       6.797   5.733  17.812  0.00  0.00    +0.000 A 
ATOM     12 CL   UNL     1       7.999   6.608  18.681  0.00  0.00    +0.000 Cl
ATOM     13  C   UNL     1       7.069   5.289  16.524  0.00  0.00    +0.000 A 
ATOM     14  C   UNL     1       6.102   4.558  15.847  0.00  0.00    +0.000 A 
ATOM     15 CL   UNL     1       6.425   3.979  14.259  0.00  0.00    +0.000 Cl
ATOM     16  C   UNL     1       4.872   4.279  16.448  0.00  0.00    +0.000 A 
ENDBRANCH   6   9
BRANCH   5  17
ATOM     17  C   UNL     1       3.900   1.870  19.060  0.00  0.00    +0.000 C 
ATOM     18  O   UNL     1       3.342   1.129  18.261  0.00  0.00    +0.000 OA
BRANCH  17  19
ATOM     19  O   UNL     1       5.024   1.470  19.677  0.00  0.00    +0.000 OA
ATOM     20  H   UNL     1       5.745   1.129  19.125  0.00  0.00    +0.000 HD
ENDBRANCH  17  19
ENDBRANCH   5  17
TORSDOF 3
ENDMDL
MODEL 5
REMARK VINA RESULT:      -6.9      1.196      1.422
REMARK  Name = 
REMARK  5 active torsions:
REMARK  status: ('A' for Active; 'I' for Inactive)
REMARK    1  A    between atoms: C_1  and  C_2
REMARK    2  A    between atoms: C_5  and  C_6
REMARK    3  A    between atoms: C_6  and  O_8
REMARK    4  A    between atoms: C_9  and  C_10
REMARK    5  A    between atoms: C_9  and  C_11
REMARK                            x       y       z     vdW  Elec       q    Type
REMARK                         _______ _______ _______ _____ _____    ______ ____
ROOT
ATOM      1  C   UNL     1       0.544   5.001  20.262  0.00  0.00    +0.000 C 
ATOM      2  C   UNL     1       2.073   5.014  20.356  0.00  0.00    +0.000 C 
ATOM      3  C   UNL     1       2.573   4.062  21.440  0.00  0.00    +0.000 C 
ATOM      4  C   UNL     1       3.360   2.880  20.993  0.00  0.00    +0.000 C 
ATOM      5  C   UNL     1       3.778   2.625  19.741  0.00  0.00    +0.000 C 
ATOM      6  C   UNL     1       3.485   3.565  18.575  0.00  0.00    +0.000 C 
ATOM      7  C   UNL     1       2.554   2.775  17.611  0.00  0.00    +0.000 C 
ATOM      8  C   UNL     1       2.721   4.882  18.967  0.00  0.00    +0.000 C 
ENDROOT
BRANCH   6   9
ATOM      9  C   UNL     1       4.791   4.071  17.903  0.00  0.00    +0.000 A 
ATOM     10  C   UNL     1       5.053   3.878  16.535  0.00  0.00    +0.000 A 
ATOM     11  C   UNL     1       6.211   4.402  15.946  0.00  0.00    +0.000 A 
ATOM     12 CL   UNL     1       6.489   4.156  14.265  0.00  0.00    +0.000 Cl
ATOM     13  C   UNL     1       7.131   5.127  16.694  0.00  0.00    +0.000 A 
ATOM     14  C   UNL     1       6.880   5.345  18.042  0.00  0.00    +0.000 A 
ATOM     15 CL   UNL     1       7.994   6.258  18.982  0.00  0.00    +0.000 Cl
ATOM     16  C   UNL     1       5.723   4.836  18.640  0.00  0.00    +0.000 A 
ENDBRANCH   6   9
BRANCH   5  17
ATOM     17  C   UNL     1       4.552   1.339  19.617  0.00  0.00    +0.000 C 
ATOM     18  O   UNL     1       5.367   0.970  20.454  0.00  0.00    +0.000 OA
BRANCH  17  19
ATOM     19  O   UNL     1       4.327   0.594  18.522  0.00  0.00    +0.000 OA
ATOM     20  H   UNL     1       4.380  -0.369  18.613  0.00  0.00    +0.000 HD
ENDBRANCH  17  19
ENDBRANCH   5  17
TORSDOF 3
ENDMDL
MODEL 6
REMARK VINA RESULT:      -6.8      3.279      5.752
REMARK  Name = 
REMARK  5 active torsions:
REMARK  status: ('A' for Active; 'I' for Inactive)
REMARK    1  A    between atoms: C_1  and  C_2
REMARK    2  A    between atoms: C_5  and  C_6
REMARK    3  A    between atoms: C_6  and  O_8
REMARK    4  A    between atoms: C_9  and  C_10
REMARK    5  A    between atoms: C_9  and  C_11
REMARK                            x       y       z     vdW  Elec       q    Type
REMARK                         _______ _______ _______ _____ _____    ______ ____
ROOT
ATOM      1  C   UNL     1       5.975   4.887  13.883  0.00  0.00    +0.000 C 
ATOM      2  C   UNL     1       5.723   4.228  15.244  0.00  0.00    +0.000 C 
ATOM      3  C   UNL     1       7.029   3.776  15.894  0.00  0.00    +0.000 C 
ATOM      4  C   UNL     1       7.435   4.469  17.147  0.00  0.00    +0.000 C 
ATOM      5  C   UNL     1       6.713   5.373  17.833  0.00  0.00    +0.000 C 
ATOM      6  C   UNL     1       5.321   5.812  17.387  0.00  0.00    +0.000 C 
ATOM      7  C   UNL     1       5.445   7.318  17.018  0.00  0.00    +0.000 C 
ATOM      8  C   UNL     1       4.775   5.076  16.109  0.00  0.00    +0.000 C 
ENDROOT
BRANCH   6   9
ATOM      9  C   UNL     1       4.251   5.524  18.476  0.00  0.00    +0.000 A 
ATOM     10  C   UNL     1       4.115   4.261  19.078  0.00  0.00    +0.000 A 
ATOM     11  C   UNL     1       3.183   4.051  20.101  0.00  0.00    +0.000 A 
ATOM     12 CL   UNL     1       3.057   2.492  20.821  0.00  0.00    +0.000 Cl
ATOM     13  C   UNL     1       2.369   5.082  20.553  0.00  0.00    +0.000 A 
ATOM     14  C   UNL     1       2.503   6.342  19.985  0.00  0.00    +0.000 A 
ATOM     15 CL   UNL     1       1.521   7.640  20.543  0.00  0.00    +0.000 Cl
ATOM     16  C   UNL     1       3.436   6.568  18.969  0.00  0.00    +0.000 A 
ENDBRANCH   6   9
BRANCH   5  17
ATOM     17  C   UNL     1       7.410   5.891  19.062  0.00  0.00    +0.000 C 
ATOM     18  O   UNL     1       7.228   5.421  20.178  0.00  0.00    +0.000 OA
BRANCH  17  19
ATOM     19  O   UNL     1       8.252   6.925  18.896  0.00  0.00    +0.000 OA
ATOM     20  H   UNL     1       9.197   6.728  18.806  0.00  0.00    +0.000 HD
ENDBRANCH  17  19
ENDBRANCH   5  17
TORSDOF 3
ENDMDL
MODEL 7
REMARK VINA RESULT:      -6.8      3.255      5.836
REMARK  Name = 
REMARK  5 active torsions:
REMARK  status: ('A' for Active; 'I' for Inactive)
REMARK    1  A    between atoms: C_1  and  C_2
REMARK    2  A    between atoms: C_5  and  C_6
REMARK    3  A    between atoms: C_6  and  O_8
REMARK    4  A    between atoms: C_9  and  C_10
REMARK    5  A    between atoms: C_9  and  C_11
REMARK                            x       y       z     vdW  Elec       q    Type
REMARK                         _______ _______ _______ _____ _____    ______ ____
ROOT
ATOM      1  C   UNL     1       5.948   4.810  13.835  0.00  0.00    +0.000 C 
ATOM      2  C   UNL     1       5.680   4.166  15.200  0.00  0.00    +0.000 C 
ATOM      3  C   UNL     1       6.978   3.712  15.865  0.00  0.00    +0.000 C 
ATOM      4  C   UNL     1       7.379   4.414  17.114  0.00  0.00    +0.000 C 
ATOM      5  C   UNL     1       6.658   5.328  17.786  0.00  0.00    +0.000 C 
ATOM      6  C   UNL     1       5.272   5.773  17.325  0.00  0.00    +0.000 C 
ATOM      7  C   UNL     1       5.409   7.274  16.944  0.00  0.00    +0.000 C 
ATOM      8  C   UNL     1       4.732   5.028  16.050  0.00  0.00    +0.000 C 
ENDROOT
BRANCH   6   9
ATOM      9  C   UNL     1       4.192   5.502  18.409  0.00  0.00    +0.000 A 
ATOM     10  C   UNL     1       3.464   6.539  19.016  0.00  0.00    +0.000 A 
ATOM     11  C   UNL     1       2.453   6.258  19.944  0.00  0.00    +0.000 A 
ATOM     12 CL   UNL     1       1.574   7.557  20.655  0.00  0.00    +0.000 Cl
ATOM     13  C   UNL     1       2.139   4.949  20.287  0.00  0.00    +0.000 A 
ATOM     14  C   UNL     1       2.834   3.910  19.683  0.00  0.00    +0.000 A 
ATOM     15 CL   UNL     1       2.448   2.280  20.076  0.00  0.00    +0.000 Cl
ATOM     16  C   UNL     1       3.839   4.176  18.748  0.00  0.00    +0.000 A 
ENDBRANCH   6   9
BRANCH   5  17
ATOM     17  C   UNL     1       7.349   5.853  19.016  0.00  0.00    +0.000 C 
ATOM     18  O   UNL     1       7.153   5.396  20.135  0.00  0.00    +0.000 OA
BRANCH  17  19
ATOM     19  O   UNL     1       8.201   6.878  18.847  0.00  0.00    +0.000 OA
ATOM     20  H   UNL     1       8.118   7.637  19.445  0.00  0.00    +0.000 HD
ENDBRANCH  17  19
ENDBRANCH   5  17
TORSDOF 3
ENDMDL
MODEL 8
REMARK VINA RESULT:      -6.6      1.515      1.946
REMARK  Name = 
REMARK  5 active torsions:
REMARK  status: ('A' for Active; 'I' for Inactive)
REMARK    1  A    between atoms: C_1  and  C_2
REMARK    2  A    between atoms: C_5  and  C_6
REMARK    3  A    between atoms: C_6  and  O_8
REMARK    4  A    between atoms: C_9  and  C_10
REMARK    5  A    between atoms: C_9  and  C_11
REMARK                            x       y       z     vdW  Elec       q    Type
REMARK                         _______ _______ _______ _____ _____    ______ ____
ROOT
ATOM      1  C   UNL     1       0.710   8.895  18.598  0.00  0.00    +0.000 C 
ATOM      2  C   UNL     1       1.963   8.235  19.184  0.00  0.00    +0.000 C 
ATOM      3  C   UNL     1       1.698   7.678  20.581  0.00  0.00    +0.000 C 
ATOM      4  C   UNL     1       1.759   6.199  20.742  0.00  0.00    +0.000 C 
ATOM      5  C   UNL     1       2.140   5.308  19.810  0.00  0.00    +0.000 C 
ATOM      6  C   UNL     1       2.580   5.728  18.411  0.00  0.00    +0.000 C 
ATOM      7  C   UNL     1       1.515   5.150  17.435  0.00  0.00    +0.000 C 
ATOM      8  C   UNL     1       2.619   7.281  18.171  0.00  0.00    +0.000 C 
ENDROOT
BRANCH   6   9
ATOM      9  C   UNL     1       4.028   5.260  18.099  0.00  0.00    +0.000 A 
ATOM     10  C   UNL     1       4.359   4.588  16.910  0.00  0.00    +0.000 A 
ATOM     11  C   UNL     1       5.685   4.235  16.630  0.00  0.00    +0.000 A 
ATOM     12 CL   UNL     1       6.051   3.424  15.156  0.00  0.00    +0.000 Cl
ATOM     13  C   UNL     1       6.711   4.540  17.517  0.00  0.00    +0.000 A 
ATOM     14  C   UNL     1       6.406   5.221  18.688  0.00  0.00    +0.000 A 
ATOM     15 CL   UNL     1       7.662   5.629  19.791  0.00  0.00    +0.000 Cl
ATOM     16  C   UNL     1       5.088   5.588  18.975  0.00  0.00    +0.000 A 
ENDBRANCH   6   9
BRANCH   5  17
ATOM     17  C   UNL     1       2.088   3.881  20.288  0.00  0.00    +0.000 C 
ATOM     18  O   UNL     1       3.092   3.227  20.539  0.00  0.00    +0.000 OA
BRANCH  17  19
ATOM     19  O   UNL     1       0.872   3.325  20.420  0.00  0.00    +0.000 OA
ATOM     20  H   UNL     1       0.780   2.581  21.034  0.00  0.00    +0.000 HD
ENDBRANCH  17  19
ENDBRANCH   5  17
TORSDOF 3
ENDMDL
MODEL 9
REMARK VINA RESULT:      -6.6      2.601      3.471
REMARK  Name = 
REMARK  5 active torsions:
REMARK  status: ('A' for Active; 'I' for Inactive)
REMARK    1  A    between atoms: C_1  and  C_2
REMARK    2  A    between atoms: C_5  and  C_6
REMARK    3  A    between atoms: C_6  and  O_8
REMARK    4  A    between atoms: C_9  and  C_10
REMARK    5  A    between atoms: C_9  and  C_11
REMARK                            x       y       z     vdW  Elec       q    Type
REMARK                         _______ _______ _______ _____ _____    ______ ____
ROOT
ATOM      1  C   UNL     1       1.760   1.765  19.307  0.00  0.00    +0.000 C 
ATOM      2  C   UNL     1       2.187   2.609  18.102  0.00  0.00    +0.000 C 
ATOM      3  C   UNL     1       1.104   3.615  17.715  0.00  0.00    +0.000 C 
ATOM      4  C   UNL     1       1.428   5.057  17.889  0.00  0.00    +0.000 C 
ATOM      5  C   UNL     1       2.619   5.573  18.240  0.00  0.00    +0.000 C 
ATOM      6  C   UNL     1       3.839   4.698  18.512  0.00  0.00    +0.000 C 
ATOM      7  C   UNL     1       4.169   4.880  20.021  0.00  0.00    +0.000 C 
ATOM      8  C   UNL     1       3.611   3.160  18.280  0.00  0.00    +0.000 C 
ENDROOT
BRANCH   6   9
ATOM      9  C   UNL     1       5.022   5.053  17.569  0.00  0.00    +0.000 A 
ATOM     10  C   UNL     1       5.208   4.418  16.329  0.00  0.00    +0.000 A 
ATOM     11  C   UNL     1       6.248   4.804  15.475  0.00  0.00    +0.000 A 
ATOM     12 CL   UNL     1       6.434   4.010  13.958  0.00  0.00    +0.000 Cl
ATOM     13  C   UNL     1       7.122   5.826  15.825  0.00  0.00    +0.000 A 
ATOM     14  C   UNL     1       6.942   6.479  17.036  0.00  0.00    +0.000 A 
ATOM     15 CL   UNL     1       7.999   7.762  17.482  0.00  0.00    +0.000 Cl
ATOM     16  C   UNL     1       5.902   6.110  17.895  0.00  0.00    +0.000 A 
ENDBRANCH   6   9
BRANCH   5  17
ATOM     17  C   UNL     1       2.618   7.076  18.334  0.00  0.00    +0.000 C 
ATOM     18  O   UNL     1       3.020   7.799  17.431  0.00  0.00    +0.000 OA
BRANCH  17  19
ATOM     19  O   UNL     1       2.163   7.616  19.477  0.00  0.00    +0.000 OA
ATOM     20  H   UNL     1       1.958   7.016  20.210  0.00  0.00    +0.000 HD
ENDBRANCH  17  19
ENDBRANCH   5  17
TORSDOF 3
ENDMDL
