MODEL 1
REMARK VINA RESULT:      -8.9      0.000      0.000
REMARK  Name = 
REMARK  6 active torsions:
REMARK  status: ('A' for Active; 'I' for Inactive)
REMARK    1  A    between atoms: C_1  and  C_2
REMARK    2  A    between atoms: C_5  and  C_6
REMARK    3  A    between atoms: C_6  and  N_7
REMARK    4  A    between atoms: C_16  and  C_17
REMARK    5  A    between atoms: N_19  and  C_20
REMARK    6  A    between atoms: C_20  and  C_21
REMARK                            x       y       z     vdW  Elec       q    Type
REMARK                         _______ _______ _______ _____ _____    ______ ____
ROOT
ATOM      1  N   UNL     1       2.789   5.865  18.518  0.00  0.00    +0.000 N 
ATOM      2  C   UNL     1       1.949   4.792  18.143  0.00  0.00    +0.000 C 
ATOM      3  O   UNL     1       1.838   4.276  17.042  0.00  0.00    +0.000 OA
ATOM      4  C   UNL     1       1.406   4.250  19.377  0.00  0.00    +0.000 A 
ATOM      5  C   UNL     1       1.100   2.902  19.559  0.00  0.00    +0.000 A 
ATOM      6  C   UNL     1       1.453   2.330  20.775  0.00  0.00    +0.000 A 
ATOM      7  C   UNL     1       2.109   3.109  21.747  0.00  0.00    +0.000 A 
ATOM      8  C   UNL     1       2.314   4.493  21.566  0.00  0.00    +0.000 A 
ATOM      9  C   UNL     1       1.881   5.086  20.383  0.00  0.00    +0.000 A 
ATOM     10  C   UNL     1       2.276   6.444  19.772  0.00  0.00    +0.000 C 
ENDROOT
BRANCH  10  11
ATOM     11  C   UNL     1       1.963   7.803  19.101  0.00  0.00    +0.000 C 
ATOM     12  O   UNL     1       2.250   7.969  17.909  0.00  0.00    +0.000 OA
ATOM     13  N   UNL     1       1.366   8.846  19.846  0.00  0.00    +0.000 N 
ATOM     14  H   UNL     1       0.748   8.520  20.592  0.00  0.00    +0.000 HD
BRANCH  13  15
ATOM     15  C   UNL     1       0.878  10.027  19.130  0.00  0.00    +0.000 C 
BRANCH  15  16
ATOM     16  C   UNL     1      -0.643  10.208  18.951  0.00  0.00    +0.000 C 
ATOM     17  C   UNL     1      -1.214   9.989  17.558  0.00  0.00    +0.000 C 
ATOM     18  C   UNL     1      -2.537  10.718  17.643  0.00  0.00    +0.000 C 
ATOM     19  C   UNL     1      -2.199  11.898  18.531  0.00  0.00    +0.000 C 
ATOM     20  O   UNL     1      -1.108  11.500  19.380  0.00  0.00    +0.000 OA
ENDBRANCH  15  16
ENDBRANCH  13  15
ENDBRANCH  10  11
BRANCH   1  21
ATOM     21  C   UNL     1       4.189   5.508  18.676  0.00  0.00    +0.000 C 
BRANCH  21  26
ATOM     22  C   UNL     1       5.902   4.045  13.441  0.00  0.00    +0.000 C 
ATOM     23  C   UNL     1       5.721   4.475  14.865  0.00  0.00    +0.000 A 
ATOM     24  C   UNL     1       5.862   3.565  15.922  0.00  0.00    +0.000 A 
ATOM     25  C   UNL     1       5.498   3.936  17.217  0.00  0.00    +0.000 A 
ATOM     26  C   UNL     1       5.001   5.221  17.454  0.00  0.00    +0.000 A 
ATOM     27  C   UNL     1       4.993   6.168  16.428  0.00  0.00    +0.000 A 
ATOM     28  C   UNL     1       5.303   5.782  15.133  0.00  0.00    +0.000 A 
ENDBRANCH  21  26
ENDBRANCH   1  21
TORSDOF 5
ENDMDL
MODEL 2
REMARK VINA RESULT:      -8.8      0.537      1.055
REMARK  Name = 
REMARK  6 active torsions:
REMARK  status: ('A' for Active; 'I' for Inactive)
REMARK    1  A    between atoms: C_1  and  C_2
REMARK    2  A    between atoms: C_5  and  C_6
REMARK    3  A    between atoms: C_6  and  N_7
REMARK    4  A    between atoms: C_16  and  C_17
REMARK    5  A    between atoms: N_19  and  C_20
REMARK    6  A    between atoms: C_20  and  C_21
REMARK                            x       y       z     vdW  Elec       q    Type
REMARK                         _______ _______ _______ _____ _____    ______ ____
ROOT
ATOM      1  N   UNL     1       2.494   5.803  18.532  0.00  0.00    +0.000 N 
ATOM      2  C   UNL     1       1.494   4.828  18.316  0.00  0.00    +0.000 C 
ATOM      3  O   UNL     1       1.106   4.375  17.251  0.00  0.00    +0.000 OA
ATOM      4  C   UNL     1       1.169   4.282  19.623  0.00  0.00    +0.000 A 
ATOM      5  C   UNL     1       0.777   2.961  19.831  0.00  0.00    +0.000 A 
ATOM      6  C   UNL     1       1.318   2.305  20.931  0.00  0.00    +0.000 A 
ATOM      7  C   UNL     1       2.234   2.977  21.762  0.00  0.00    +0.000 A 
ATOM      8  C   UNL     1       2.531   4.343  21.576  0.00  0.00    +0.000 A 
ATOM      9  C   UNL     1       1.922   5.026  20.527  0.00  0.00    +0.000 A 
ATOM     10  C   UNL     1       2.313   6.369  19.881  0.00  0.00    +0.000 C 
ENDROOT
BRANCH  10  11
ATOM     11  C   UNL     1       2.001   7.780  19.325  0.00  0.00    +0.000 C 
ATOM     12  O   UNL     1       2.416   8.093  18.202  0.00  0.00    +0.000 OA
ATOM     13  N   UNL     1       1.260   8.704  20.098  0.00  0.00    +0.000 N 
ATOM     14  H   UNL     1       0.579   8.267  20.723  0.00  0.00    +0.000 HD
BRANCH  13  15
ATOM     15  C   UNL     1       0.792   9.934  19.458  0.00  0.00    +0.000 C 
BRANCH  15  16
ATOM     16  C   UNL     1      -0.721  10.111  19.212  0.00  0.00    +0.000 C 
ATOM     17  C   UNL     1      -1.219   9.957  17.783  0.00  0.00    +0.000 C 
ATOM     18  C   UNL     1      -2.553  10.669  17.837  0.00  0.00    +0.000 C 
ATOM     19  C   UNL     1      -2.272  11.806  18.797  0.00  0.00    +0.000 C 
ATOM     20  O   UNL     1      -1.220  11.376  19.680  0.00  0.00    +0.000 OA
ENDBRANCH  15  16
ENDBRANCH  13  15
ENDBRANCH  10  11
BRANCH   1  21
ATOM     21  C   UNL     1       3.855   5.315  18.382  0.00  0.00    +0.000 C 
BRANCH  21  26
ATOM     22  C   UNL     1       7.357   4.756  13.921  0.00  0.00    +0.000 C 
ATOM     23  C   UNL     1       6.236   4.916  14.902  0.00  0.00    +0.000 A 
ATOM     24  C   UNL     1       5.748   6.183  15.248  0.00  0.00    +0.000 A 
ATOM     25  C   UNL     1       4.845   6.321  16.304  0.00  0.00    +0.000 A 
ATOM     26  C   UNL     1       4.426   5.187  17.007  0.00  0.00    +0.000 A 
ATOM     27  C   UNL     1       4.803   3.915  16.571  0.00  0.00    +0.000 A 
ATOM     28  C   UNL     1       5.741   3.785  15.559  0.00  0.00    +0.000 A 
ENDBRANCH  21  26
ENDBRANCH   1  21
TORSDOF 5
ENDMDL
MODEL 3
REMARK VINA RESULT:      -8.6      1.102      1.287
REMARK  Name = 
REMARK  6 active torsions:
REMARK  status: ('A' for Active; 'I' for Inactive)
REMARK    1  A    between atoms: C_1  and  C_2
REMARK    2  A    between atoms: C_5  and  C_6
REMARK    3  A    between atoms: C_6  and  N_7
REMARK    4  A    between atoms: C_16  and  C_17
REMARK    5  A    between atoms: N_19  and  C_20
REMARK    6  A    between atoms: C_20  and  C_21
REMARK                            x       y       z     vdW  Elec       q    Type
REMARK                         _______ _______ _______ _____ _____    ______ ____
ROOT
ATOM      1  N   UNL     1       3.185   5.254  18.298  0.00  0.00    +0.000 N 
ATOM      2  C   UNL     1       2.187   4.300  17.998  0.00  0.00    +0.000 C 
ATOM      3  O   UNL     1       2.038   3.670  16.962  0.00  0.00    +0.000 OA
ATOM      4  C   UNL     1       1.498   4.025  19.247  0.00  0.00    +0.000 A 
ATOM      5  C   UNL     1       0.949   2.784  19.569  0.00  0.00    +0.000 A 
ATOM      6  C   UNL     1       1.137   2.325  20.867  0.00  0.00    +0.000 A 
ATOM      7  C   UNL     1       1.874   3.102  21.781  0.00  0.00    +0.000 A 
ATOM      8  C   UNL     1       2.330   4.394  21.449  0.00  0.00    +0.000 A 
ATOM      9  C   UNL     1       2.066   4.892  20.176  0.00  0.00    +0.000 A 
ATOM     10  C   UNL     1       2.725   6.072  19.434  0.00  0.00    +0.000 C 
ENDROOT
BRANCH  10  11
ATOM     11  C   UNL     1       2.690   7.364  18.584  0.00  0.00    +0.000 C 
ATOM     12  O   UNL     1       3.368   7.426  17.550  0.00  0.00    +0.000 OA
ATOM     13  N   UNL     1       1.901   8.465  18.990  0.00  0.00    +0.000 N 
ATOM     14  H   UNL     1       1.059   8.202  19.506  0.00  0.00    +0.000 HD
BRANCH  13  15
ATOM     15  C   UNL     1       1.713   9.575  18.053  0.00  0.00    +0.000 C 
BRANCH  15  16
ATOM     16  C   UNL     1       0.476  10.481  18.217  0.00  0.00    +0.000 C 
ATOM     17  C   UNL     1       0.055  10.838  19.634  0.00  0.00    +0.000 C 
ATOM     18  C   UNL     1      -1.386  11.257  19.437  0.00  0.00    +0.000 C 
ATOM     19  C   UNL     1      -1.849  10.314  18.346  0.00  0.00    +0.000 C 
ATOM     20  O   UNL     1      -0.694   9.953  17.568  0.00  0.00    +0.000 OA
ENDBRANCH  15  16
ENDBRANCH  13  15
ENDBRANCH  10  11
BRANCH   1  21
ATOM     21  C   UNL     1       4.491   4.688  18.595  0.00  0.00    +0.000 C 
BRANCH  21  26
ATOM     22  C   UNL     1       7.346   5.147  13.684  0.00  0.00    +0.000 C 
ATOM     23  C   UNL     1       6.788   4.838  15.040  0.00  0.00    +0.000 A 
ATOM     24  C   UNL     1       5.912   3.761  15.237  0.00  0.00    +0.000 A 
ATOM     25  C   UNL     1       5.252   3.610  16.457  0.00  0.00    +0.000 A 
ATOM     26  C   UNL     1       5.478   4.533  17.484  0.00  0.00    +0.000 A 
ATOM     27  C   UNL     1       6.454   5.521  17.334  0.00  0.00    +0.000 A 
ATOM     28  C   UNL     1       7.066   5.702  16.104  0.00  0.00    +0.000 A 
ENDBRANCH  21  26
ENDBRANCH   1  21
TORSDOF 5
ENDMDL
MODEL 4
REMARK VINA RESULT:      -8.5      1.571      1.955
REMARK  Name = 
REMARK  6 active torsions:
REMARK  status: ('A' for Active; 'I' for Inactive)
REMARK    1  A    between atoms: C_1  and  C_2
REMARK    2  A    between atoms: C_5  and  C_6
REMARK    3  A    between atoms: C_6  and  N_7
REMARK    4  A    between atoms: C_16  and  C_17
REMARK    5  A    between atoms: N_19  and  C_20
REMARK    6  A    between atoms: C_20  and  C_21
REMARK                            x       y       z     vdW  Elec       q    Type
REMARK                         _______ _______ _______ _____ _____    ______ ____
ROOT
ATOM      1  N   UNL     1       3.115   5.236  18.151  0.00  0.00    +0.000 N 
ATOM      2  C   UNL     1       2.033   4.347  17.962  0.00  0.00    +0.000 C 
ATOM      3  O   UNL     1       1.741   3.725  16.952  0.00  0.00    +0.000 OA
ATOM      4  C   UNL     1       1.459   4.119  19.277  0.00  0.00    +0.000 A 
ATOM      5  C   UNL     1       0.868   2.917  19.664  0.00  0.00    +0.000 A 
ATOM      6  C   UNL     1       1.158   2.450  20.941  0.00  0.00    +0.000 A 
ATOM      7  C   UNL     1       2.031   3.181  21.769  0.00  0.00    +0.000 A 
ATOM      8  C   UNL     1       2.532   4.441  21.380  0.00  0.00    +0.000 A 
ATOM      9  C   UNL     1       2.172   4.951  20.135  0.00  0.00    +0.000 A 
ATOM     10  C   UNL     1       2.825   6.084  19.321  0.00  0.00    +0.000 C 
ENDROOT
BRANCH  10  11
ATOM     11  C   UNL     1       2.786   7.374  18.466  0.00  0.00    +0.000 C 
ATOM     12  O   UNL     1       3.493   7.450  17.453  0.00  0.00    +0.000 OA
ATOM     13  N   UNL     1       1.959   8.457  18.845  0.00  0.00    +0.000 N 
ATOM     14  H   UNL     1       1.108   8.174  19.337  0.00  0.00    +0.000 HD
BRANCH  13  15
ATOM     15  C   UNL     1       1.773   9.560  17.900  0.00  0.00    +0.000 C 
BRANCH  15  16
ATOM     16  C   UNL     1       1.309  10.928  18.441  0.00  0.00    +0.000 C 
ATOM     17  C   UNL     1       2.270  12.098  18.298  0.00  0.00    +0.000 C 
ATOM     18  C   UNL     1       1.742  13.066  19.334  0.00  0.00    +0.000 C 
ATOM     19  C   UNL     1       1.280  12.137  20.438  0.00  0.00    +0.000 C 
ATOM     20  O   UNL     1       0.930  10.882  19.828  0.00  0.00    +0.000 OA
ENDBRANCH  15  16
ENDBRANCH  13  15
ENDBRANCH  10  11
BRANCH   1  21
ATOM     21  C   UNL     1       4.406   4.589  18.320  0.00  0.00    +0.000 C 
BRANCH  21  26
ATOM     22  C   UNL     1       7.593   5.205  13.636  0.00  0.00    +0.000 C 
ATOM     23  C   UNL     1       6.793   4.772  14.826  0.00  0.00    +0.000 A 
ATOM     24  C   UNL     1       5.440   4.426  14.706  0.00  0.00    +0.000 A 
ATOM     25  C   UNL     1       4.667   4.217  15.848  0.00  0.00    +0.000 A 
ATOM     26  C   UNL     1       5.252   4.347  17.112  0.00  0.00    +0.000 A 
ATOM     27  C   UNL     1       6.629   4.552  17.227  0.00  0.00    +0.000 A 
ATOM     28  C   UNL     1       7.383   4.813  16.094  0.00  0.00    +0.000 A 
ENDBRANCH  21  26
ENDBRANCH   1  21
TORSDOF 5
ENDMDL
MODEL 5
REMARK VINA RESULT:      -8.5      1.044      1.128
REMARK  Name = 
REMARK  6 active torsions:
REMARK  status: ('A' for Active; 'I' for Inactive)
REMARK    1  A    between atoms: C_1  and  C_2
REMARK    2  A    between atoms: C_5  and  C_6
REMARK    3  A    between atoms: C_6  and  N_7
REMARK    4  A    between atoms: C_16  and  C_17
REMARK    5  A    between atoms: N_19  and  C_20
REMARK    6  A    between atoms: C_20  and  C_21
REMARK                            x       y       z     vdW  Elec       q    Type
REMARK                         _______ _______ _______ _____ _____    ______ ____
ROOT
ATOM      1  N   UNL     1       2.909   5.685  18.444  0.00  0.00    +0.000 N 
ATOM      2  C   UNL     1       2.009   4.651  18.102  0.00  0.00    +0.000 C 
ATOM      3  O   UNL     1       1.885   4.091  17.024  0.00  0.00    +0.000 OA
ATOM      4  C   UNL     1       1.411   4.203  19.348  0.00  0.00    +0.000 A 
ATOM      5  C   UNL     1       1.016   2.887  19.585  0.00  0.00    +0.000 A 
ATOM      6  C   UNL     1       1.311   2.351  20.834  0.00  0.00    +0.000 A 
ATOM      7  C   UNL     1       1.998   3.133  21.782  0.00  0.00    +0.000 A 
ATOM      8  C   UNL     1       2.294   4.491  21.542  0.00  0.00    +0.000 A 
ATOM      9  C   UNL     1       1.921   5.053  20.324  0.00  0.00    +0.000 A 
ATOM     10  C   UNL     1       2.413   6.354  19.660  0.00  0.00    +0.000 C 
ENDROOT
BRANCH  10  11
ATOM     11  C   UNL     1       2.199   7.697  18.921  0.00  0.00    +0.000 C 
ATOM     12  O   UNL     1       2.602   7.818  17.757  0.00  0.00    +0.000 OA
ATOM     13  N   UNL     1       1.559   8.777  19.573  0.00  0.00    +0.000 N 
ATOM     14  H   UNL     1       0.865   8.488  20.266  0.00  0.00    +0.000 HD
BRANCH  13  15
ATOM     15  C   UNL     1       1.171   9.943  18.777  0.00  0.00    +0.000 C 
BRANCH  15  16
ATOM     16  C   UNL     1       0.479  11.126  19.486  0.00  0.00    +0.000 C 
ATOM     17  C   UNL     1      -0.717  10.807  20.370  0.00  0.00    +0.000 C 
ATOM     18  C   UNL     1      -1.408  12.150  20.460  0.00  0.00    +0.000 C 
ATOM     19  C   UNL     1      -1.170  12.728  19.080  0.00  0.00    +0.000 C 
ATOM     20  O   UNL     1       0.046  12.150  18.574  0.00  0.00    +0.000 OA
ENDBRANCH  15  16
ENDBRANCH  13  15
ENDBRANCH  10  11
BRANCH   1  21
ATOM     21  C   UNL     1       4.281   5.249  18.648  0.00  0.00    +0.000 C 
BRANCH  21  26
ATOM     22  C   UNL     1       7.112   4.631  13.740  0.00  0.00    +0.000 C 
ATOM     23  C   UNL     1       6.560   4.985  15.087  0.00  0.00    +0.000 A 
ATOM     24  C   UNL     1       7.054   4.388  16.255  0.00  0.00    +0.000 A 
ATOM     25  C   UNL     1       6.399   4.581  17.472  0.00  0.00    +0.000 A 
ATOM     26  C   UNL     1       5.252   5.380  17.519  0.00  0.00    +0.000 A 
ATOM     27  C   UNL     1       4.844   6.086  16.385  0.00  0.00    +0.000 A 
ATOM     28  C   UNL     1       5.463   5.849  15.168  0.00  0.00    +0.000 A 
ENDBRANCH  21  26
ENDBRANCH   1  21
TORSDOF 5
ENDMDL
MODEL 6
REMARK VINA RESULT:      -8.5      1.395      1.930
REMARK  Name = 
REMARK  6 active torsions:
REMARK  status: ('A' for Active; 'I' for Inactive)
REMARK    1  A    between atoms: C_1  and  C_2
REMARK    2  A    between atoms: C_5  and  C_6
REMARK    3  A    between atoms: C_6  and  N_7
REMARK    4  A    between atoms: C_16  and  C_17
REMARK    5  A    between atoms: N_19  and  C_20
REMARK    6  A    between atoms: C_20  and  C_21
REMARK                            x       y       z     vdW  Elec       q    Type
REMARK                         _______ _______ _______ _____ _____    ______ ____
ROOT
ATOM      1  N   UNL     1       2.493   5.833  18.669  0.00  0.00    +0.000 N 
ATOM      2  C   UNL     1       1.524   4.850  18.370  0.00  0.00    +0.000 C 
ATOM      3  O   UNL     1       1.153   4.470  17.270  0.00  0.00    +0.000 OA
ATOM      4  C   UNL     1       1.211   4.192  19.628  0.00  0.00    +0.000 A 
ATOM      5  C   UNL     1       0.858   2.847  19.728  0.00  0.00    +0.000 A 
ATOM      6  C   UNL     1       1.414   2.122  20.776  0.00  0.00    +0.000 A 
ATOM      7  C   UNL     1       2.307   2.753  21.663  0.00  0.00    +0.000 A 
ATOM      8  C   UNL     1       2.564   4.138  21.587  0.00  0.00    +0.000 A 
ATOM      9  C   UNL     1       1.938   4.883  20.592  0.00  0.00    +0.000 A 
ATOM     10  C   UNL     1       2.290   6.285  20.057  0.00  0.00    +0.000 C 
ENDROOT
BRANCH  10  11
ATOM     11  C   UNL     1       1.938   7.725  19.613  0.00  0.00    +0.000 C 
ATOM     12  O   UNL     1       2.203   8.084  18.458  0.00  0.00    +0.000 OA
ATOM     13  N   UNL     1       1.331   8.624  20.521  0.00  0.00    +0.000 N 
ATOM     14  H   UNL     1       0.732   8.169  21.213  0.00  0.00    +0.000 HD
BRANCH  13  15
ATOM     15  C   UNL     1       0.808   9.891  20.006  0.00  0.00    +0.000 C 
BRANCH  15  16
ATOM     16  C   UNL     1       0.274  10.933  21.010  0.00  0.00    +0.000 C 
ATOM     17  C   UNL     1      -0.261  10.416  22.337  0.00  0.00    +0.000 C 
ATOM     18  C   UNL     1      -1.120  11.571  22.802  0.00  0.00    +0.000 C 
ATOM     19  C   UNL     1      -1.695  12.090  21.500  0.00  0.00    +0.000 C 
ATOM     20  O   UNL     1      -0.759  11.767  20.456  0.00  0.00    +0.000 OA
ENDBRANCH  15  16
ENDBRANCH  13  15
ENDBRANCH  10  11
BRANCH   1  21
ATOM     21  C   UNL     1       3.869   5.399  18.488  0.00  0.00    +0.000 C 
BRANCH  21  26
ATOM     22  C   UNL     1       7.249   4.824  13.936  0.00  0.00    +0.000 C 
ATOM     23  C   UNL     1       6.155   4.979  14.948  0.00  0.00    +0.000 A 
ATOM     24  C   UNL     1       5.649   6.243  15.283  0.00  0.00    +0.000 A 
ATOM     25  C   UNL     1       4.775   6.384  16.362  0.00  0.00    +0.000 A 
ATOM     26  C   UNL     1       4.401   5.255  17.099  0.00  0.00    +0.000 A 
ATOM     27  C   UNL     1       4.794   3.983  16.678  0.00  0.00    +0.000 A 
ATOM     28  C   UNL     1       5.704   3.852  15.641  0.00  0.00    +0.000 A 
ENDBRANCH  21  26
ENDBRANCH   1  21
TORSDOF 5
ENDMDL
MODEL 7
REMARK VINA RESULT:      -8.5      1.138      1.538
REMARK  Name = 
REMARK  6 active torsions:
REMARK  status: ('A' for Active; 'I' for Inactive)
REMARK    1  A    between atoms: C_1  and  C_2
REMARK    2  A    between atoms: C_5  and  C_6
REMARK    3  A    between atoms: C_6  and  N_7
REMARK    4  A    between atoms: C_16  and  C_17
REMARK    5  A    between atoms: N_19  and  C_20
REMARK    6  A    between atoms: C_20  and  C_21
REMARK                            x       y       z     vdW  Elec       q    Type
REMARK                         _______ _______ _______ _____ _____    ______ ____
ROOT
ATOM      1  N   UNL     1       2.919   5.754  18.267  0.00  0.00    +0.000 N 
ATOM      2  C   UNL     1       1.988   4.725  18.000  0.00  0.00    +0.000 C 
ATOM      3  O   UNL     1       1.816   4.123  16.951  0.00  0.00    +0.000 OA
ATOM      4  C   UNL     1       1.424   4.343  19.283  0.00  0.00    +0.000 A 
ATOM      5  C   UNL     1       1.012   3.046  19.590  0.00  0.00    +0.000 A 
ATOM      6  C   UNL     1       1.339   2.558  20.850  0.00  0.00    +0.000 A 
ATOM      7  C   UNL     1       2.072   3.365  21.740  0.00  0.00    +0.000 A 
ATOM      8  C   UNL     1       2.387   4.704  21.432  0.00  0.00    +0.000 A 
ATOM      9  C   UNL     1       1.983   5.223  20.204  0.00  0.00    +0.000 A 
ATOM     10  C   UNL     1       2.477   6.484  19.469  0.00  0.00    +0.000 C 
ENDROOT
BRANCH  10  11
ATOM     11  C   UNL     1       2.264   7.798  18.680  0.00  0.00    +0.000 C 
ATOM     12  O   UNL     1       2.835   7.950  17.592  0.00  0.00    +0.000 OA
ATOM     13  N   UNL     1       1.436   8.818  19.203  0.00  0.00    +0.000 N 
ATOM     14  H   UNL     1       0.669   8.471  19.783  0.00  0.00    +0.000 HD
BRANCH  13  15
ATOM     15  C   UNL     1       1.077   9.942  18.335  0.00  0.00    +0.000 C 
BRANCH  15  16
ATOM     16  C   UNL     1       0.605  11.259  18.985  0.00  0.00    +0.000 C 
ATOM     17  C   UNL     1       1.577  12.429  18.977  0.00  0.00    +0.000 C 
ATOM     18  C   UNL     1       1.025  13.303  20.081  0.00  0.00    +0.000 C 
ATOM     19  C   UNL     1       0.526  12.281  21.082  0.00  0.00    +0.000 C 
ATOM     20  O   UNL     1       0.186  11.090  20.350  0.00  0.00    +0.000 OA
ENDBRANCH  15  16
ENDBRANCH  13  15
ENDBRANCH  10  11
BRANCH   1  21
ATOM     21  C   UNL     1       4.288   5.298  18.443  0.00  0.00    +0.000 C 
BRANCH  21  26
ATOM     22  C   UNL     1       6.048   3.930  13.198  0.00  0.00    +0.000 C 
ATOM     23  C   UNL     1       5.855   4.320  14.632  0.00  0.00    +0.000 A 
ATOM     24  C   UNL     1       5.927   3.369  15.659  0.00  0.00    +0.000 A 
ATOM     25  C   UNL     1       5.552   3.713  16.959  0.00  0.00    +0.000 A 
ATOM     26  C   UNL     1       5.113   5.013  17.230  0.00  0.00    +0.000 A 
ATOM     27  C   UNL     1       5.176   5.993  16.238  0.00  0.00    +0.000 A 
ATOM     28  C   UNL     1       5.496   5.637  14.937  0.00  0.00    +0.000 A 
ENDBRANCH  21  26
ENDBRANCH   1  21
TORSDOF 5
ENDMDL
MODEL 8
REMARK VINA RESULT:      -8.4      1.429      1.728
REMARK  Name = 
REMARK  6 active torsions:
REMARK  status: ('A' for Active; 'I' for Inactive)
REMARK    1  A    between atoms: C_1  and  C_2
REMARK    2  A    between atoms: C_5  and  C_6
REMARK    3  A    between atoms: C_6  and  N_7
REMARK    4  A    between atoms: C_16  and  C_17
REMARK    5  A    between atoms: N_19  and  C_20
REMARK    6  A    between atoms: C_20  and  C_21
REMARK                            x       y       z     vdW  Elec       q    Type
REMARK                         _______ _______ _______ _____ _____    ______ ____
ROOT
ATOM      1  N   UNL     1       2.770   5.972  18.967  0.00  0.00    +0.000 N 
ATOM      2  C   UNL     1       1.954   4.973  18.391  0.00  0.00    +0.000 C 
ATOM      3  O   UNL     1       1.870   4.659  17.213  0.00  0.00    +0.000 OA
ATOM      4  C   UNL     1       1.399   4.213  19.498  0.00  0.00    +0.000 A 
ATOM      5  C   UNL     1       1.111   2.851  19.431  0.00  0.00    +0.000 A 
ATOM      6  C   UNL     1       1.452   2.076  20.534  0.00  0.00    +0.000 A 
ATOM      7  C   UNL     1       2.078   2.678  21.642  0.00  0.00    +0.000 A 
ATOM      8  C   UNL     1       2.265   4.075  21.712  0.00  0.00    +0.000 A 
ATOM      9  C   UNL     1       1.843   4.863  20.645  0.00  0.00    +0.000 A 
ATOM     10  C   UNL     1       2.227   6.313  20.294  0.00  0.00    +0.000 C 
ENDROOT
BRANCH  10  11
ATOM     11  C   UNL     1       1.904   7.766  19.868  0.00  0.00    +0.000 C 
ATOM     12  O   UNL     1       2.271   8.166  18.756  0.00  0.00    +0.000 OA
ATOM     13  N   UNL     1       1.207   8.629  20.745  0.00  0.00    +0.000 N 
ATOM     14  H   UNL     1       0.551   8.147  21.363  0.00  0.00    +0.000 HD
BRANCH  13  15
ATOM     15  C   UNL     1       0.721   9.910  20.228  0.00  0.00    +0.000 C 
BRANCH  15  16
ATOM     16  C   UNL     1       0.158  10.945  21.223  0.00  0.00    +0.000 C 
ATOM     17  C   UNL     1      -0.418  10.417  22.528  0.00  0.00    +0.000 C 
ATOM     18  C   UNL     1      -1.289  11.571  22.976  0.00  0.00    +0.000 C 
ATOM     19  C   UNL     1      -1.822  12.102  21.661  0.00  0.00    +0.000 C 
ATOM     20  O   UNL     1      -0.855  11.786  20.644  0.00  0.00    +0.000 OA
ENDBRANCH  15  16
ENDBRANCH  13  15
ENDBRANCH  10  11
BRANCH   1  21
ATOM     21  C   UNL     1       4.173   5.611  19.087  0.00  0.00    +0.000 C 
BRANCH  21  26
ATOM     22  C   UNL     1       5.768   4.282  13.780  0.00  0.00    +0.000 C 
ATOM     23  C   UNL     1       5.619   4.672  15.219  0.00  0.00    +0.000 A 
ATOM     24  C   UNL     1       5.767   3.729  16.245  0.00  0.00    +0.000 A 
ATOM     25  C   UNL     1       5.433   4.065  17.558  0.00  0.00    +0.000 A 
ATOM     26  C   UNL     1       4.958   5.350  17.842  0.00  0.00    +0.000 A 
ATOM     27  C   UNL     1       4.945   6.327  16.845  0.00  0.00    +0.000 A 
ATOM     28  C   UNL     1       5.225   5.976  15.533  0.00  0.00    +0.000 A 
ENDBRANCH  21  26
ENDBRANCH   1  21
TORSDOF 5
ENDMDL
MODEL 9
REMARK VINA RESULT:      -8.3      1.415      2.052
REMARK  Name = 
REMARK  6 active torsions:
REMARK  status: ('A' for Active; 'I' for Inactive)
REMARK    1  A    between atoms: C_1  and  C_2
REMARK    2  A    between atoms: C_5  and  C_6
REMARK    3  A    between atoms: C_6  and  N_7
REMARK    4  A    between atoms: C_16  and  C_17
REMARK    5  A    between atoms: N_19  and  C_20
REMARK    6  A    between atoms: C_20  and  C_21
REMARK                            x       y       z     vdW  Elec       q    Type
REMARK                         _______ _______ _______ _____ _____    ______ ____
ROOT
ATOM      1  N   UNL     1       2.530   5.799  18.439  0.00  0.00    +0.000 N 
ATOM      2  C   UNL     1       1.541   4.805  18.262  0.00  0.00    +0.000 C 
ATOM      3  O   UNL     1       1.158   4.306  17.214  0.00  0.00    +0.000 OA
ATOM      4  C   UNL     1       1.224   4.305  19.588  0.00  0.00    +0.000 A 
ATOM      5  C   UNL     1       0.849   2.988  19.847  0.00  0.00    +0.000 A 
ATOM      6  C   UNL     1       1.399   2.380  20.970  0.00  0.00    +0.000 A 
ATOM      7  C   UNL     1       2.307   3.095  21.774  0.00  0.00    +0.000 A 
ATOM      8  C   UNL     1       2.588   4.457  21.536  0.00  0.00    +0.000 A 
ATOM      9  C   UNL     1       1.969   5.091  20.462  0.00  0.00    +0.000 A 
ATOM     10  C   UNL     1       2.343   6.414  19.765  0.00  0.00    +0.000 C 
ENDROOT
BRANCH  10  11
ATOM     11  C   UNL     1       2.013   7.799  19.157  0.00  0.00    +0.000 C 
ATOM     12  O   UNL     1       2.461   8.091  18.041  0.00  0.00    +0.000 OA
ATOM     13  N   UNL     1       1.220   8.723  19.875  0.00  0.00    +0.000 N 
ATOM     14  H   UNL     1       0.528   8.285  20.487  0.00  0.00    +0.000 HD
BRANCH  13  15
ATOM     15  C   UNL     1       0.741   9.921  19.181  0.00  0.00    +0.000 C 
BRANCH  15  16
ATOM     16  C   UNL     1       1.507  11.245  19.376  0.00  0.00    +0.000 C 
ATOM     17  C   UNL     1       0.690  12.481  19.722  0.00  0.00    +0.000 C 
ATOM     18  C   UNL     1       1.634  13.599  19.339  0.00  0.00    +0.000 C 
ATOM     19  C   UNL     1       2.326  13.032  18.116  0.00  0.00    +0.000 C 
ATOM     20  O   UNL     1       2.314  11.599  18.239  0.00  0.00    +0.000 OA
ENDBRANCH  15  16
ENDBRANCH  13  15
ENDBRANCH  10  11
BRANCH   1  21
ATOM     21  C   UNL     1       3.897   5.322  18.305  0.00  0.00    +0.000 C 
BRANCH  21  26
ATOM     22  C   UNL     1       7.432   4.774  13.869  0.00  0.00    +0.000 C 
ATOM     23  C   UNL     1       6.303   4.915  14.844  0.00  0.00    +0.000 A 
ATOM     24  C   UNL     1       5.755   6.169  15.145  0.00  0.00    +0.000 A 
ATOM     25  C   UNL     1       4.844   6.302  16.194  0.00  0.00    +0.000 A 
ATOM     26  C   UNL     1       4.476   5.174  16.936  0.00  0.00    +0.000 A 
ATOM     27  C   UNL     1       4.913   3.907  16.545  0.00  0.00    +0.000 A 
ATOM     28  C   UNL     1       5.860   3.785  15.539  0.00  0.00    +0.000 A 
ENDBRANCH  21  26
ENDBRANCH   1  21
TORSDOF 5
ENDMDL
