MODEL 1
REMARK VINA RESULT:      -6.7      0.000      0.000
REMARK  Name = 
REMARK  5 active torsions:
REMARK  status: ('A' for Active; 'I' for Inactive)
REMARK    1  A    between atoms: C_1  and  O_2
REMARK    2  A    between atoms: O_2  and  C_3
REMARK    3  A    between atoms: N_8  and  C_9
REMARK    4  A    between atoms: C_9  and  C_10
REMARK    5  A    between atoms: C_10  and  C_11
REMARK                            x       y       z     vdW  Elec       q    Type
REMARK                         _______ _______ _______ _____ _____    ______ ____
ROOT
ATOM      1  C   UNL     1       6.658   4.659  14.558  0.00  0.00    +0.000 C 
ATOM      2  O   UNL     1       6.516   3.589  13.976  0.00  0.00    +0.000 OA
ATOM      3  N   UNL     1       5.824   5.102  15.558  0.00  0.00    +0.000 N 
ATOM      4  C   UNL     1       4.738   4.248  16.027  0.00  0.00    +0.000 C 
ATOM      5  C   UNL     1       4.797   4.090  17.558  0.00  0.00    +0.000 C 
ATOM      6  N   UNL     1       4.825   5.372  18.302  0.00  0.00    +0.000 NA
ATOM      7  C   UNL     1       5.962   6.182  17.788  0.00  0.00    +0.000 C 
ATOM      8  C   UNL     1       5.971   6.382  16.256  0.00  0.00    +0.000 C 
ENDROOT
BRANCH   1  10
ATOM      9  C   UNL     1       8.124   5.522  12.939  0.00  0.00    +0.000 C 
ATOM     10  O   UNL     1       7.669   5.528  14.293  0.00  0.00    +0.000 OA
ENDBRANCH   1  10
BRANCH   6  11
ATOM     11  C   UNL     1       3.562   6.129  18.194  0.00  0.00    +0.000 C 
BRANCH  11  12
ATOM     12  C   UNL     1       2.809   6.294  19.526  0.00  0.00    +0.000 C 
BRANCH  12  13
ATOM     13  C   UNL     1       2.187   4.983  19.939  0.00  0.00    +0.000 A 
ATOM     14  C   UNL     1       2.374   4.490  21.238  0.00  0.00    +0.000 A 
ATOM     15  C   UNL     1       1.864   3.243  21.599  0.00  0.00    +0.000 A 
ATOM     16  C   UNL     1       1.166   2.481  20.665  0.00  0.00    +0.000 A 
ATOM     17  C   UNL     1       0.970   2.966  19.373  0.00  0.00    +0.000 A 
ATOM     18  C   UNL     1       1.478   4.213  19.010  0.00  0.00    +0.000 A 
ENDBRANCH  12  13
ENDBRANCH  11  12
ENDBRANCH   6  11
TORSDOF 4
ENDMDL
MODEL 2
REMARK VINA RESULT:      -6.6      2.448      3.240
REMARK  Name = 
REMARK  5 active torsions:
REMARK  status: ('A' for Active; 'I' for Inactive)
REMARK    1  A    between atoms: C_1  and  O_2
REMARK    2  A    between atoms: O_2  and  C_3
REMARK    3  A    between atoms: N_8  and  C_9
REMARK    4  A    between atoms: C_9  and  C_10
REMARK    5  A    between atoms: C_10  and  C_11
REMARK                            x       y       z     vdW  Elec       q    Type
REMARK                         _______ _______ _______ _____ _____    ______ ____
ROOT
ATOM      1  C   UNL     1       7.737   7.214  18.061  0.00  0.00    +0.000 C 
ATOM      2  O   UNL     1       8.513   7.040  18.995  0.00  0.00    +0.000 OA
ATOM      3  N   UNL     1       6.680   6.380  17.779  0.00  0.00    +0.000 N 
ATOM      4  C   UNL     1       6.392   5.253  18.660  0.00  0.00    +0.000 C 
ATOM      5  C   UNL     1       4.918   5.279  19.107  0.00  0.00    +0.000 C 
ATOM      6  N   UNL     1       3.945   5.344  17.990  0.00  0.00    +0.000 NA
ATOM      7  C   UNL     1       4.285   6.521  17.147  0.00  0.00    +0.000 C 
ATOM      8  C   UNL     1       5.751   6.565  16.661  0.00  0.00    +0.000 C 
ENDROOT
BRANCH   1  10
ATOM      9  C   UNL     1       8.205   9.501  17.803  0.00  0.00    +0.000 C 
ATOM     10  O   UNL     1       7.823   8.263  17.201  0.00  0.00    +0.000 OA
ENDBRANCH   1  10
BRANCH   6  11
ATOM     11  C   UNL     1       3.921   4.114  17.174  0.00  0.00    +0.000 C 
BRANCH  11  12
ATOM     12  C   UNL     1       2.639   3.276  17.332  0.00  0.00    +0.000 C 
BRANCH  12  13
ATOM     13  C   UNL     1       2.296   3.119  18.794  0.00  0.00    +0.000 A 
ATOM     14  C   UNL     1       1.151   3.732  19.321  0.00  0.00    +0.000 A 
ATOM     15  C   UNL     1       0.873   3.651  20.685  0.00  0.00    +0.000 A 
ATOM     16  C   UNL     1       1.738   2.958  21.530  0.00  0.00    +0.000 A 
ATOM     17  C   UNL     1       2.875   2.341  21.013  0.00  0.00    +0.000 A 
ATOM     18  C   UNL     1       3.155   2.419  19.650  0.00  0.00    +0.000 A 
ENDBRANCH  12  13
ENDBRANCH  11  12
ENDBRANCH   6  11
TORSDOF 4
ENDMDL
MODEL 3
REMARK VINA RESULT:      -6.5      1.203      2.233
REMARK  Name = 
REMARK  5 active torsions:
REMARK  status: ('A' for Active; 'I' for Inactive)
REMARK    1  A    between atoms: C_1  and  O_2
REMARK    2  A    between atoms: O_2  and  C_3
REMARK    3  A    between atoms: N_8  and  C_9
REMARK    4  A    between atoms: C_9  and  C_10
REMARK    5  A    between atoms: C_10  and  C_11
REMARK                            x       y       z     vdW  Elec       q    Type
REMARK                         _______ _______ _______ _____ _____    ______ ____
ROOT
ATOM      1  C   UNL     1       7.078   4.789  14.279  0.00  0.00    +0.000 C 
ATOM      2  O   UNL     1       7.876   5.621  13.861  0.00  0.00    +0.000 OA
ATOM      3  N   UNL     1       6.593   4.773  15.566  0.00  0.00    +0.000 N 
ATOM      4  C   UNL     1       6.972   5.833  16.496  0.00  0.00    +0.000 C 
ATOM      5  C   UNL     1       5.721   6.471  17.128  0.00  0.00    +0.000 C 
ATOM      6  N   UNL     1       4.803   5.501  17.772  0.00  0.00    +0.000 NA
ATOM      7  C   UNL     1       4.444   4.465  16.767  0.00  0.00    +0.000 C 
ATOM      8  C   UNL     1       5.651   3.780  16.087  0.00  0.00    +0.000 C 
ENDROOT
BRANCH   1  10
ATOM      9  C   UNL     1       6.888   3.875  12.124  0.00  0.00    +0.000 C 
ATOM     10  O   UNL     1       6.567   3.789  13.513  0.00  0.00    +0.000 OA
ENDBRANCH   1  10
BRANCH   6  11
ATOM     11  C   UNL     1       5.379   4.874  18.977  0.00  0.00    +0.000 C 
BRANCH  11  12
ATOM     12  C   UNL     1       4.815   3.477  19.294  0.00  0.00    +0.000 C 
BRANCH  12  13
ATOM     13  C   UNL     1       3.362   3.579  19.687  0.00  0.00    +0.000 A 
ATOM     14  C   UNL     1       2.452   2.588  19.293  0.00  0.00    +0.000 A 
ATOM     15  C   UNL     1       1.096   2.719  19.592  0.00  0.00    +0.000 A 
ATOM     16  C   UNL     1       0.641   3.840  20.283  0.00  0.00    +0.000 A 
ATOM     17  C   UNL     1       1.540   4.826  20.683  0.00  0.00    +0.000 A 
ATOM     18  C   UNL     1       2.897   4.698  20.388  0.00  0.00    +0.000 A 
ENDBRANCH  12  13
ENDBRANCH  11  12
ENDBRANCH   6  11
TORSDOF 4
ENDMDL
MODEL 4
REMARK VINA RESULT:      -6.5      1.201      2.035
REMARK  Name = 
REMARK  5 active torsions:
REMARK  status: ('A' for Active; 'I' for Inactive)
REMARK    1  A    between atoms: C_1  and  O_2
REMARK    2  A    between atoms: O_2  and  C_3
REMARK    3  A    between atoms: N_8  and  C_9
REMARK    4  A    between atoms: C_9  and  C_10
REMARK    5  A    between atoms: C_10  and  C_11
REMARK                            x       y       z     vdW  Elec       q    Type
REMARK                         _______ _______ _______ _____ _____    ______ ____
ROOT
ATOM      1  C   UNL     1       7.047   4.792  14.305  0.00  0.00    +0.000 C 
ATOM      2  O   UNL     1       7.903   5.564  13.887  0.00  0.00    +0.000 OA
ATOM      3  N   UNL     1       6.569   4.806  15.595  0.00  0.00    +0.000 N 
ATOM      4  C   UNL     1       7.032   5.828  16.528  0.00  0.00    +0.000 C 
ATOM      5  C   UNL     1       5.837   6.556  17.171  0.00  0.00    +0.000 C 
ATOM      6  N   UNL     1       4.851   5.655  17.815  0.00  0.00    +0.000 NA
ATOM      7  C   UNL     1       4.409   4.655  16.807  0.00  0.00    +0.000 C 
ATOM      8  C   UNL     1       5.557   3.884  16.116  0.00  0.00    +0.000 C 
ENDROOT
BRANCH   1  10
ATOM      9  C   UNL     1       6.859   3.842  12.166  0.00  0.00    +0.000 C 
ATOM     10  O   UNL     1       6.458   3.838  13.537  0.00  0.00    +0.000 OA
ENDBRANCH   1  10
BRANCH   6  11
ATOM     11  C   UNL     1       5.385   4.978  19.013  0.00  0.00    +0.000 C 
BRANCH  11  12
ATOM     12  C   UNL     1       4.802   3.575  19.259  0.00  0.00    +0.000 C 
BRANCH  12  13
ATOM     13  C   UNL     1       3.334   3.673  19.597  0.00  0.00    +0.000 A 
ATOM     14  C   UNL     1       2.850   4.763  20.334  0.00  0.00    +0.000 A 
ATOM     15  C   UNL     1       1.508   4.817  20.711  0.00  0.00    +0.000 A 
ATOM     16  C   UNL     1       0.644   3.783  20.357  0.00  0.00    +0.000 A 
ATOM     17  C   UNL     1       1.116   2.699  19.620  0.00  0.00    +0.000 A 
ATOM     18  C   UNL     1       2.456   2.643  19.239  0.00  0.00    +0.000 A 
ENDBRANCH  12  13
ENDBRANCH  11  12
ENDBRANCH   6  11
TORSDOF 4
ENDMDL
MODEL 5
REMARK VINA RESULT:      -6.4      0.703      1.288
REMARK  Name = 
REMARK  5 active torsions:
REMARK  status: ('A' for Active; 'I' for Inactive)
REMARK    1  A    between atoms: C_1  and  O_2
REMARK    2  A    between atoms: O_2  and  C_3
REMARK    3  A    between atoms: N_8  and  C_9
REMARK    4  A    between atoms: C_9  and  C_10
REMARK    5  A    between atoms: C_10  and  C_11
REMARK                            x       y       z     vdW  Elec       q    Type
REMARK                         _______ _______ _______ _____ _____    ______ ____
ROOT
ATOM      1  C   UNL     1       6.772   4.737  14.256  0.00  0.00    +0.000 C 
ATOM      2  O   UNL     1       6.369   3.925  13.430  0.00  0.00    +0.000 OA
ATOM      3  N   UNL     1       6.065   5.100  15.379  0.00  0.00    +0.000 N 
ATOM      4  C   UNL     1       4.792   4.450  15.675  0.00  0.00    +0.000 C 
ATOM      5  C   UNL     1       4.789   3.891  17.109  0.00  0.00    +0.000 C 
ATOM      6  N   UNL     1       5.132   4.889  18.152  0.00  0.00    +0.000 NA
ATOM      7  C   UNL     1       6.444   5.495  17.799  0.00  0.00    +0.000 C 
ATOM      8  C   UNL     1       6.523   6.077  16.370  0.00  0.00    +0.000 C 
ENDROOT
BRANCH   1  10
ATOM      9  C   UNL     1       8.361   5.729  12.840  0.00  0.00    +0.000 C 
ATOM     10  O   UNL     1       7.973   5.366  14.166  0.00  0.00    +0.000 OA
ENDBRANCH   1  10
BRANCH   6  11
ATOM     11  C   UNL     1       4.105   5.936  18.307  0.00  0.00    +0.000 C 
BRANCH  11  12
ATOM     12  C   UNL     1       2.667   5.457  18.035  0.00  0.00    +0.000 C 
BRANCH  12  13
ATOM     13  C   UNL     1       2.217   4.516  19.126  0.00  0.00    +0.000 A 
ATOM     14  C   UNL     1       1.386   3.428  18.822  0.00  0.00    +0.000 A 
ATOM     15  C   UNL     1       0.909   2.601  19.838  0.00  0.00    +0.000 A 
ATOM     16  C   UNL     1       1.257   2.857  21.163  0.00  0.00    +0.000 A 
ATOM     17  C   UNL     1       2.087   3.932  21.473  0.00  0.00    +0.000 A 
ATOM     18  C   UNL     1       2.567   4.760  20.459  0.00  0.00    +0.000 A 
ENDBRANCH  12  13
ENDBRANCH  11  12
ENDBRANCH   6  11
TORSDOF 4
ENDMDL
MODEL 6
REMARK VINA RESULT:      -6.3      3.178      7.198
REMARK  Name = 
REMARK  5 active torsions:
REMARK  status: ('A' for Active; 'I' for Inactive)
REMARK    1  A    between atoms: C_1  and  O_2
REMARK    2  A    between atoms: O_2  and  C_3
REMARK    3  A    between atoms: N_8  and  C_9
REMARK    4  A    between atoms: C_9  and  C_10
REMARK    5  A    between atoms: C_10  and  C_11
REMARK                            x       y       z     vdW  Elec       q    Type
REMARK                         _______ _______ _______ _____ _____    ______ ____
ROOT
ATOM      1  C   UNL     1       1.807   4.797  20.248  0.00  0.00    +0.000 C 
ATOM      2  O   UNL     1       1.620   5.778  20.960  0.00  0.00    +0.000 OA
ATOM      3  N   UNL     1       2.789   4.725  19.287  0.00  0.00    +0.000 N 
ATOM      4  C   UNL     1       3.727   5.832  19.126  0.00  0.00    +0.000 C 
ATOM      5  C   UNL     1       5.179   5.324  19.181  0.00  0.00    +0.000 C 
ATOM      6  N   UNL     1       5.478   4.230  18.225  0.00  0.00    +0.000 NA
ATOM      7  C   UNL     1       4.501   3.132  18.457  0.00  0.00    +0.000 C 
ATOM      8  C   UNL     1       3.019   3.568  18.419  0.00  0.00    +0.000 C 
ENDROOT
BRANCH   1  10
ATOM      9  C   UNL     1       1.397   2.818  21.443  0.00  0.00    +0.000 C 
ATOM     10  O   UNL     1       1.072   3.657  20.333  0.00  0.00    +0.000 OA
ENDBRANCH   1  10
BRANCH   6  11
ATOM     11  C   UNL     1       5.437   4.668  16.817  0.00  0.00    +0.000 C 
BRANCH  11  12
ATOM     12  C   UNL     1       6.819   4.948  16.201  0.00  0.00    +0.000 C 
BRANCH  12  13
ATOM     13  C   UNL     1       6.789   4.691  14.713  0.00  0.00    +0.000 A 
ATOM     14  C   UNL     1       5.915   3.733  14.180  0.00  0.00    +0.000 A 
ATOM     15  C   UNL     1       5.937   3.442  12.816  0.00  0.00    +0.000 A 
ATOM     16  C   UNL     1       6.834   4.103  11.979  0.00  0.00    +0.000 A 
ATOM     17  C   UNL     1       7.701   5.060  12.500  0.00  0.00    +0.000 A 
ATOM     18  C   UNL     1       7.680   5.355  13.863  0.00  0.00    +0.000 A 
ENDBRANCH  12  13
ENDBRANCH  11  12
ENDBRANCH   6  11
TORSDOF 4
ENDMDL
MODEL 7
REMARK VINA RESULT:      -6.3      3.031      7.080
REMARK  Name = 
REMARK  5 active torsions:
REMARK  status: ('A' for Active; 'I' for Inactive)
REMARK    1  A    between atoms: C_1  and  O_2
REMARK    2  A    between atoms: O_2  and  C_3
REMARK    3  A    between atoms: N_8  and  C_9
REMARK    4  A    between atoms: C_9  and  C_10
REMARK    5  A    between atoms: C_10  and  C_11
REMARK                            x       y       z     vdW  Elec       q    Type
REMARK                         _______ _______ _______ _____ _____    ______ ____
ROOT
ATOM      1  C   UNL     1       1.949   3.719  19.853  0.00  0.00    +0.000 C 
ATOM      2  O   UNL     1       0.817   4.170  19.984  0.00  0.00    +0.000 OA
ATOM      3  N   UNL     1       2.850   4.170  18.917  0.00  0.00    +0.000 N 
ATOM      4  C   UNL     1       2.498   5.297  18.058  0.00  0.00    +0.000 C 
ATOM      5  C   UNL     1       3.584   6.387  18.122  0.00  0.00    +0.000 C 
ATOM      6  N   UNL     1       4.953   5.899  17.826  0.00  0.00    +0.000 NA
ATOM      7  C   UNL     1       5.252   4.769  18.746  0.00  0.00    +0.000 C 
ATOM      8  C   UNL     1       4.202   3.635  18.738  0.00  0.00    +0.000 C 
ENDROOT
BRANCH   1  10
ATOM      9  C   UNL     1       1.766   2.523  21.866  0.00  0.00    +0.000 C 
ATOM     10  O   UNL     1       2.455   2.725  20.632  0.00  0.00    +0.000 OA
ENDBRANCH   1  10
BRANCH   6  11
ATOM     11  C   UNL     1       5.124   5.480  16.421  0.00  0.00    +0.000 C 
BRANCH  11  12
ATOM     12  C   UNL     1       6.586   5.221  16.013  0.00  0.00    +0.000 C 
BRANCH  12  13
ATOM     13  C   UNL     1       6.657   4.823  14.559  0.00  0.00    +0.000 A 
ATOM     14  C   UNL     1       5.798   3.837  14.053  0.00  0.00    +0.000 A 
ATOM     15  C   UNL     1       5.913   3.415  12.729  0.00  0.00    +0.000 A 
ATOM     16  C   UNL     1       6.886   3.973  11.903  0.00  0.00    +0.000 A 
ATOM     17  C   UNL     1       7.740   4.958  12.396  0.00  0.00    +0.000 A 
ATOM     18  C   UNL     1       7.627   5.383  13.719  0.00  0.00    +0.000 A 
ENDBRANCH  12  13
ENDBRANCH  11  12
ENDBRANCH   6  11
TORSDOF 4
ENDMDL
MODEL 8
REMARK VINA RESULT:      -6.3      2.519      3.130
REMARK  Name = 
REMARK  5 active torsions:
REMARK  status: ('A' for Active; 'I' for Inactive)
REMARK    1  A    between atoms: C_1  and  O_2
REMARK    2  A    between atoms: O_2  and  C_3
REMARK    3  A    between atoms: N_8  and  C_9
REMARK    4  A    between atoms: C_9  and  C_10
REMARK    5  A    between atoms: C_10  and  C_11
REMARK                            x       y       z     vdW  Elec       q    Type
REMARK                         _______ _______ _______ _____ _____    ______ ____
ROOT
ATOM      1  C   UNL     1       7.711   7.196  18.041  0.00  0.00    +0.000 C 
ATOM      2  O   UNL     1       8.547   6.966  18.908  0.00  0.00    +0.000 OA
ATOM      3  N   UNL     1       6.633   6.382  17.781  0.00  0.00    +0.000 N 
ATOM      4  C   UNL     1       6.400   5.203  18.610  0.00  0.00    +0.000 C 
ATOM      5  C   UNL     1       4.960   5.202  19.156  0.00  0.00    +0.000 C 
ATOM      6  N   UNL     1       3.914   5.335  18.114  0.00  0.00    +0.000 NA
ATOM      7  C   UNL     1       4.201   6.561  17.322  0.00  0.00    +0.000 C 
ATOM      8  C   UNL     1       5.632   6.634  16.743  0.00  0.00    +0.000 C 
ENDROOT
BRANCH   1  10
ATOM      9  C   UNL     1       8.174   9.494  17.890  0.00  0.00    +0.000 C 
ATOM     10  O   UNL     1       7.742   8.296  17.242  0.00  0.00    +0.000 OA
ENDBRANCH   1  10
BRANCH   6  11
ATOM     11  C   UNL     1       3.829   4.157  17.229  0.00  0.00    +0.000 C 
BRANCH  11  12
ATOM     12  C   UNL     1       3.800   2.809  17.972  0.00  0.00    +0.000 C 
BRANCH  12  13
ATOM     13  C   UNL     1       2.865   2.887  19.155  0.00  0.00    +0.000 A 
ATOM     14  C   UNL     1       3.338   2.617  20.447  0.00  0.00    +0.000 A 
ATOM     15  C   UNL     1       2.461   2.615  21.531  0.00  0.00    +0.000 A 
ATOM     16  C   UNL     1       1.107   2.880  21.331  0.00  0.00    +0.000 A 
ATOM     17  C   UNL     1       0.631   3.154  20.050  0.00  0.00    +0.000 A 
ATOM     18  C   UNL     1       1.506   3.159  18.964  0.00  0.00    +0.000 A 
ENDBRANCH  12  13
ENDBRANCH  11  12
ENDBRANCH   6  11
TORSDOF 4
ENDMDL
MODEL 9
REMARK VINA RESULT:      -6.3      2.937      6.867
REMARK  Name = 
REMARK  5 active torsions:
REMARK  status: ('A' for Active; 'I' for Inactive)
REMARK    1  A    between atoms: C_1  and  O_2
REMARK    2  A    between atoms: O_2  and  C_3
REMARK    3  A    between atoms: N_8  and  C_9
REMARK    4  A    between atoms: C_9  and  C_10
REMARK    5  A    between atoms: C_10  and  C_11
REMARK                            x       y       z     vdW  Elec       q    Type
REMARK                         _______ _______ _______ _____ _____    ______ ____
ROOT
ATOM      1  C   UNL     1       2.127   3.532  19.531  0.00  0.00    +0.000 C 
ATOM      2  O   UNL     1       0.961   3.883  19.677  0.00  0.00    +0.000 OA
ATOM      3  N   UNL     1       3.008   4.146  18.671  0.00  0.00    +0.000 N 
ATOM      4  C   UNL     1       2.589   5.329  17.926  0.00  0.00    +0.000 C 
ATOM      5  C   UNL     1       3.588   6.482  18.133  0.00  0.00    +0.000 C 
ATOM      6  N   UNL     1       4.995   6.131  17.825  0.00  0.00    +0.000 NA
ATOM      7  C   UNL     1       5.361   4.934  18.630  0.00  0.00    +0.000 C 
ATOM      8  C   UNL     1       4.400   3.733  18.475  0.00  0.00    +0.000 C 
ENDROOT
BRANCH   1  10
ATOM      9  C   UNL     1       2.513   2.555  21.631  0.00  0.00    +0.000 C 
ATOM     10  O   UNL     1       2.691   2.502  20.214  0.00  0.00    +0.000 OA
ENDBRANCH   1  10
BRANCH   6  11
ATOM     11  C   UNL     1       5.225   5.877  16.390  0.00  0.00    +0.000 C 
BRANCH  11  12
ATOM     12  C   UNL     1       6.661   5.442  16.047  0.00  0.00    +0.000 C 
BRANCH  12  13
ATOM     13  C   UNL     1       6.711   4.862  14.654  0.00  0.00    +0.000 A 
ATOM     14  C   UNL     1       7.662   5.321  13.731  0.00  0.00    +0.000 A 
ATOM     15  C   UNL     1       7.662   4.840  12.422  0.00  0.00    +0.000 A 
ATOM     16  C   UNL     1       6.711   3.902  12.026  0.00  0.00    +0.000 A 
ATOM     17  C   UNL     1       5.766   3.436  12.939  0.00  0.00    +0.000 A 
ATOM     18  C   UNL     1       5.765   3.913  14.249  0.00  0.00    +0.000 A 
ENDBRANCH  12  13
ENDBRANCH  11  12
ENDBRANCH   6  11
TORSDOF 4
ENDMDL
