MODEL 1
REMARK VINA RESULT:      -7.0      0.000      0.000
REMARK  Name = 
REMARK  5 active torsions:
REMARK  status: ('A' for Active; 'I' for Inactive)
REMARK    1  A    between atoms: C_1  and  C_2
REMARK    2  A    between atoms: C_6  and  N_7
REMARK    3  A    between atoms: C_8  and  C_10
REMARK    4  A    between atoms: C_10  and  C_11
REMARK    5  A    between atoms: C_11  and  N_12
REMARK                            x       y       z     vdW  Elec       q    Type
REMARK                         _______ _______ _______ _____ _____    ______ ____
ROOT
ATOM      1  N   UNL     1       6.461   5.237  16.024  0.00  0.00    +0.000 N 
ATOM      2  C   UNL     1       7.171   4.775  17.099  0.00  0.00    +0.000 C 
ATOM      3  O   UNL     1       8.167   4.084  16.957  0.00  0.00    +0.000 OA
ATOM      4  H   UNL     1       5.687   5.892  16.221  0.00  0.00    +0.000 HD
ENDROOT
BRANCH   1  10
ATOM      5  C   UNL     1       5.342   2.560  11.997  0.00  0.00    +0.000 C 
ATOM      6  C   UNL     1       6.176   3.618  12.656  0.00  0.00    +0.000 A 
ATOM      7  C   UNL     1       7.168   4.291  11.932  0.00  0.00    +0.000 A 
ATOM      8  C   UNL     1       7.941   5.269  12.549  0.00  0.00    +0.000 A 
ATOM      9  C   UNL     1       7.730   5.595  13.889  0.00  0.00    +0.000 A 
ATOM     10  C   UNL     1       6.728   4.943  14.643  0.00  0.00    +0.000 A 
ATOM     11  C   UNL     1       5.965   3.943  14.008  0.00  0.00    +0.000 A 
ENDBRANCH   1  10
BRANCH   2  12
ATOM     12  C   UNL     1       6.782   5.154  18.503  0.00  0.00    +0.000 C 
BRANCH  12  13
ATOM     13  C   UNL     1       5.251   5.304  18.615  0.00  0.00    +0.000 C 
BRANCH  13  14
ATOM     14  N   UNL     1       4.510   4.085  18.213  0.00  0.00    +0.000 NA
ATOM     15  C   UNL     1       4.280   3.244  19.412  0.00  0.00    +0.000 C 
ATOM     16  C   UNL     1       3.590   1.928  19.029  0.00  0.00    +0.000 C 
ATOM     17  C   UNL     1       2.259   2.223  18.337  0.00  0.00    +0.000 C 
ATOM     18  C   UNL     1       2.506   3.118  17.126  0.00  0.00    +0.000 C 
ATOM     19  C   UNL     1       3.214   4.403  17.564  0.00  0.00    +0.000 C 
ENDBRANCH  13  14
ENDBRANCH  12  13
ENDBRANCH   2  12
TORSDOF 4
ENDMDL
MODEL 2
REMARK VINA RESULT:      -6.7      1.763      1.955
REMARK  Name = 
REMARK  5 active torsions:
REMARK  status: ('A' for Active; 'I' for Inactive)
REMARK    1  A    between atoms: C_1  and  C_2
REMARK    2  A    between atoms: C_6  and  N_7
REMARK    3  A    between atoms: C_8  and  C_10
REMARK    4  A    between atoms: C_10  and  C_11
REMARK    5  A    between atoms: C_11  and  N_12
REMARK                            x       y       z     vdW  Elec       q    Type
REMARK                         _______ _______ _______ _____ _____    ______ ____
ROOT
ATOM      1  N   UNL     1       5.316   4.702  15.833  0.00  0.00    +0.000 N 
ATOM      2  C   UNL     1       4.950   5.903  16.379  0.00  0.00    +0.000 C 
ATOM      3  O   UNL     1       5.088   6.950  15.768  0.00  0.00    +0.000 OA
ATOM      4  H   UNL     1       5.082   3.853  16.371  0.00  0.00    +0.000 HD
ENDROOT
BRANCH   1  10
ATOM      5  C   UNL     1       5.230   2.497  11.387  0.00  0.00    +0.000 C 
ATOM      6  C   UNL     1       5.903   3.417  12.362  0.00  0.00    +0.000 A 
ATOM      7  C   UNL     1       7.097   4.062  12.018  0.00  0.00    +0.000 A 
ATOM      8  C   UNL     1       7.719   4.912  12.927  0.00  0.00    +0.000 A 
ATOM      9  C   UNL     1       7.157   5.136  14.183  0.00  0.00    +0.000 A 
ATOM     10  C   UNL     1       5.945   4.509  14.556  0.00  0.00    +0.000 A 
ATOM     11  C   UNL     1       5.337   3.638  13.630  0.00  0.00    +0.000 A 
ENDBRANCH   1  10
BRANCH   2  12
ATOM     12  C   UNL     1       4.302   5.969  17.736  0.00  0.00    +0.000 C 
BRANCH  12  13
ATOM     13  C   UNL     1       4.792   4.807  18.624  0.00  0.00    +0.000 C 
BRANCH  13  14
ATOM     14  N   UNL     1       3.689   4.043  19.252  0.00  0.00    +0.000 NA
ATOM     15  C   UNL     1       2.968   4.928  20.199  0.00  0.00    +0.000 C 
ATOM     16  C   UNL     1       1.869   4.152  20.937  0.00  0.00    +0.000 C 
ATOM     17  C   UNL     1       0.886   3.558  19.928  0.00  0.00    +0.000 C 
ATOM     18  C   UNL     1       1.646   2.678  18.939  0.00  0.00    +0.000 C 
ATOM     19  C   UNL     1       2.741   3.497  18.250  0.00  0.00    +0.000 C 
ENDBRANCH  13  14
ENDBRANCH  12  13
ENDBRANCH   2  12
TORSDOF 4
ENDMDL
MODEL 3
REMARK VINA RESULT:      -6.7      1.008      1.590
REMARK  Name = 
REMARK  5 active torsions:
REMARK  status: ('A' for Active; 'I' for Inactive)
REMARK    1  A    between atoms: C_1  and  C_2
REMARK    2  A    between atoms: C_6  and  N_7
REMARK    3  A    between atoms: C_8  and  C_10
REMARK    4  A    between atoms: C_10  and  C_11
REMARK    5  A    between atoms: C_11  and  N_12
REMARK                            x       y       z     vdW  Elec       q    Type
REMARK                         _______ _______ _______ _____ _____    ______ ____
ROOT
ATOM      1  N   UNL     1       5.648   5.094  15.820  0.00  0.00    +0.000 N 
ATOM      2  C   UNL     1       6.205   4.809  17.037  0.00  0.00    +0.000 C 
ATOM      3  O   UNL     1       7.308   4.295  17.130  0.00  0.00    +0.000 OA
ATOM      4  H   UNL     1       4.755   5.613  15.824  0.00  0.00    +0.000 HD
ENDROOT
BRANCH   1  10
ATOM      5  C   UNL     1       5.438   2.408  11.652  0.00  0.00    +0.000 C 
ATOM      6  C   UNL     1       6.113   3.461  12.480  0.00  0.00    +0.000 A 
ATOM      7  C   UNL     1       7.250   4.119  11.997  0.00  0.00    +0.000 A 
ATOM      8  C   UNL     1       7.875   5.092  12.770  0.00  0.00    +0.000 A 
ATOM      9  C   UNL     1       7.370   5.428  14.026  0.00  0.00    +0.000 A 
ATOM     10  C   UNL     1       6.216   4.790  14.536  0.00  0.00    +0.000 A 
ATOM     11  C   UNL     1       5.606   3.794  13.747  0.00  0.00    +0.000 A 
ENDBRANCH   1  10
BRANCH   2  12
ATOM     12  C   UNL     1       5.499   5.176  18.315  0.00  0.00    +0.000 C 
BRANCH  12  13
ATOM     13  C   UNL     1       5.050   3.906  19.066  0.00  0.00    +0.000 C 
BRANCH  13  14
ATOM     14  N   UNL     1       3.585   3.834  19.275  0.00  0.00    +0.000 NA
ATOM     15  C   UNL     1       2.909   3.860  17.955  0.00  0.00    +0.000 C 
ATOM     16  C   UNL     1       1.384   3.874  18.126  0.00  0.00    +0.000 C 
ATOM     17  C   UNL     1       0.939   2.641  18.914  0.00  0.00    +0.000 C 
ATOM     18  C   UNL     1       1.668   2.608  20.254  0.00  0.00    +0.000 C 
ATOM     19  C   UNL     1       3.182   2.618  20.023  0.00  0.00    +0.000 C 
ENDBRANCH  13  14
ENDBRANCH  12  13
ENDBRANCH   2  12
TORSDOF 4
ENDMDL
MODEL 4
REMARK VINA RESULT:      -6.7      1.409      1.593
REMARK  Name = 
REMARK  5 active torsions:
REMARK  status: ('A' for Active; 'I' for Inactive)
REMARK    1  A    between atoms: C_1  and  C_2
REMARK    2  A    between atoms: C_6  and  N_7
REMARK    3  A    between atoms: C_8  and  C_10
REMARK    4  A    between atoms: C_10  and  C_11
REMARK    5  A    between atoms: C_11  and  N_12
REMARK                            x       y       z     vdW  Elec       q    Type
REMARK                         _______ _______ _______ _____ _____    ______ ____
ROOT
ATOM      1  N   UNL     1       6.502   4.903  15.880  0.00  0.00    +0.000 N 
ATOM      2  C   UNL     1       5.777   5.919  16.442  0.00  0.00    +0.000 C 
ATOM      3  O   UNL     1       5.215   6.757  15.757  0.00  0.00    +0.000 OA
ATOM      4  H   UNL     1       6.869   4.181  16.520  0.00  0.00    +0.000 HD
ENDROOT
BRANCH   1  10
ATOM      5  C   UNL     1       5.382   2.495  11.687  0.00  0.00    +0.000 C 
ATOM      6  C   UNL     1       6.200   3.524  12.409  0.00  0.00    +0.000 A 
ATOM      7  C   UNL     1       7.163   4.273  11.720  0.00  0.00    +0.000 A 
ATOM      8  C   UNL     1       7.921   5.224  12.395  0.00  0.00    +0.000 A 
ATOM      9  C   UNL     1       7.725   5.447  13.757  0.00  0.00    +0.000 A 
ATOM     10  C   UNL     1       6.752   4.716  14.478  0.00  0.00    +0.000 A 
ATOM     11  C   UNL     1       6.004   3.744  13.783  0.00  0.00    +0.000 A 
ENDBRANCH   1  10
BRANCH   2  12
ATOM     12  C   UNL     1       5.595   6.005  17.934  0.00  0.00    +0.000 C 
BRANCH  12  13
ATOM     13  C   UNL     1       5.605   4.595  18.559  0.00  0.00    +0.000 C 
BRANCH  13  14
ATOM     14  N   UNL     1       4.249   4.035  18.767  0.00  0.00    +0.000 NA
ATOM     15  C   UNL     1       3.295   5.150  18.979  0.00  0.00    +0.000 C 
ATOM     16  C   UNL     1       1.890   4.613  19.284  0.00  0.00    +0.000 C 
ATOM     17  C   UNL     1       1.411   3.730  18.130  0.00  0.00    +0.000 C 
ATOM     18  C   UNL     1       2.419   2.608  17.899  0.00  0.00    +0.000 C 
ATOM     19  C   UNL     1       3.803   3.202  17.622  0.00  0.00    +0.000 C 
ENDBRANCH  13  14
ENDBRANCH  12  13
ENDBRANCH   2  12
TORSDOF 4
ENDMDL
MODEL 5
REMARK VINA RESULT:      -6.7      1.878      2.209
REMARK  Name = 
REMARK  5 active torsions:
REMARK  status: ('A' for Active; 'I' for Inactive)
REMARK    1  A    between atoms: C_1  and  C_2
REMARK    2  A    between atoms: C_6  and  N_7
REMARK    3  A    between atoms: C_8  and  C_10
REMARK    4  A    between atoms: C_10  and  C_11
REMARK    5  A    between atoms: C_11  and  N_12
REMARK                            x       y       z     vdW  Elec       q    Type
REMARK                         _______ _______ _______ _____ _____    ______ ____
ROOT
ATOM      1  N   UNL     1       5.637   4.523  15.988  0.00  0.00    +0.000 N 
ATOM      2  C   UNL     1       5.051   5.626  16.548  0.00  0.00    +0.000 C 
ATOM      3  O   UNL     1       4.867   6.647  15.905  0.00  0.00    +0.000 OA
ATOM      4  H   UNL     1       5.672   3.668  16.566  0.00  0.00    +0.000 HD
ENDROOT
BRANCH   1  10
ATOM      5  C   UNL     1       5.268   2.519  11.462  0.00  0.00    +0.000 C 
ATOM      6  C   UNL     1       5.975   3.434  12.418  0.00  0.00    +0.000 A 
ATOM      7  C   UNL     1       7.094   4.165  12.002  0.00  0.00    +0.000 A 
ATOM      8  C   UNL     1       7.748   5.009  12.894  0.00  0.00    +0.000 A 
ATOM      9  C   UNL     1       7.291   5.142  14.205  0.00  0.00    +0.000 A 
ATOM     10  C   UNL     1       6.156   4.426  14.652  0.00  0.00    +0.000 A 
ATOM     11  C   UNL     1       5.516   3.562  13.741  0.00  0.00    +0.000 A 
ENDBRANCH   1  10
BRANCH   2  12
ATOM     12  C   UNL     1       4.552   5.600  17.968  0.00  0.00    +0.000 C 
BRANCH  12  13
ATOM     13  C   UNL     1       3.138   6.209  18.053  0.00  0.00    +0.000 C 
BRANCH  13  14
ATOM     14  N   UNL     1       2.143   5.299  18.668  0.00  0.00    +0.000 NA
ATOM     15  C   UNL     1       2.175   3.998  17.956  0.00  0.00    +0.000 C 
ATOM     16  C   UNL     1       1.099   3.052  18.506  0.00  0.00    +0.000 C 
ATOM     17  C   UNL     1       1.318   2.831  20.003  0.00  0.00    +0.000 C 
ATOM     18  C   UNL     1       1.318   4.179  20.719  0.00  0.00    +0.000 C 
ATOM     19  C   UNL     1       2.394   5.087  20.115  0.00  0.00    +0.000 C 
ENDBRANCH  13  14
ENDBRANCH  12  13
ENDBRANCH   2  12
TORSDOF 4
ENDMDL
MODEL 6
REMARK VINA RESULT:      -6.6      1.030      1.129
REMARK  Name = 
REMARK  5 active torsions:
REMARK  status: ('A' for Active; 'I' for Inactive)
REMARK    1  A    between atoms: C_1  and  C_2
REMARK    2  A    between atoms: C_6  and  N_7
REMARK    3  A    between atoms: C_8  and  C_10
REMARK    4  A    between atoms: C_10  and  C_11
REMARK    5  A    between atoms: C_11  and  N_12
REMARK                            x       y       z     vdW  Elec       q    Type
REMARK                         _______ _______ _______ _____ _____    ______ ____
ROOT
ATOM      1  N   UNL     1       6.015   4.703  15.973  0.00  0.00    +0.000 N 
ATOM      2  C   UNL     1       6.346   5.733  16.811  0.00  0.00    +0.000 C 
ATOM      3  O   UNL     1       6.997   6.689  16.423  0.00  0.00    +0.000 OA
ATOM      4  H   UNL     1       5.384   3.977  16.349  0.00  0.00    +0.000 HD
ENDROOT
BRANCH   1  10
ATOM      5  C   UNL     1       5.283   2.539  11.566  0.00  0.00    +0.000 C 
ATOM      6  C   UNL     1       6.057   3.494  12.425  0.00  0.00    +0.000 A 
ATOM      7  C   UNL     1       7.125   4.224  11.889  0.00  0.00    +0.000 A 
ATOM      8  C   UNL     1       7.841   5.106  12.691  0.00  0.00    +0.000 A 
ATOM      9  C   UNL     1       7.499   5.278  14.032  0.00  0.00    +0.000 A 
ATOM     10  C   UNL     1       6.417   4.566  14.600  0.00  0.00    +0.000 A 
ATOM     11  C   UNL     1       5.713   3.663  13.778  0.00  0.00    +0.000 A 
ENDBRANCH   1  10
BRANCH   2  12
ATOM     12  C   UNL     1       5.863   5.754  18.237  0.00  0.00    +0.000 C 
BRANCH  12  13
ATOM     13  C   UNL     1       5.437   4.339  18.681  0.00  0.00    +0.000 C 
BRANCH  13  14
ATOM     14  N   UNL     1       4.121   3.925  18.140  0.00  0.00    +0.000 NA
ATOM     15  C   UNL     1       3.744   2.620  18.735  0.00  0.00    +0.000 C 
ATOM     16  C   UNL     1       2.425   2.112  18.138  0.00  0.00    +0.000 C 
ATOM     17  C   UNL     1       1.316   3.135  18.381  0.00  0.00    +0.000 C 
ATOM     18  C   UNL     1       1.732   4.481  17.795  0.00  0.00    +0.000 C 
ATOM     19  C   UNL     1       3.061   4.928  18.410  0.00  0.00    +0.000 C 
ENDBRANCH  13  14
ENDBRANCH  12  13
ENDBRANCH   2  12
TORSDOF 4
ENDMDL
MODEL 7
REMARK VINA RESULT:      -6.6      4.152      7.104
REMARK  Name = 
REMARK  5 active torsions:
REMARK  status: ('A' for Active; 'I' for Inactive)
REMARK    1  A    between atoms: C_1  and  C_2
REMARK    2  A    between atoms: C_6  and  N_7
REMARK    3  A    between atoms: C_8  and  C_10
REMARK    4  A    between atoms: C_10  and  C_11
REMARK    5  A    between atoms: C_11  and  N_12
REMARK                            x       y       z     vdW  Elec       q    Type
REMARK                         _______ _______ _______ _____ _____    ______ ____
ROOT
ATOM      1  N   UNL     1       2.450   5.741  20.749  0.00  0.00    +0.000 N 
ATOM      2  C   UNL     1       1.679   4.615  20.850  0.00  0.00    +0.000 C 
ATOM      3  O   UNL     1       0.559   4.564  20.369  0.00  0.00    +0.000 OA
ATOM      4  H   UNL     1       3.420   5.677  21.097  0.00  0.00    +0.000 HD
ENDROOT
BRANCH   1  10
ATOM      5  C   UNL     1       0.123  10.098  21.244  0.00  0.00    +0.000 C 
ATOM      6  C   UNL     1       0.904   9.137  20.398  0.00  0.00    +0.000 A 
ATOM      7  C   UNL     1       1.235   9.465  19.077  0.00  0.00    +0.000 A 
ATOM      8  C   UNL     1       1.956   8.570  18.295  0.00  0.00    +0.000 A 
ATOM      9  C   UNL     1       2.364   7.343  18.819  0.00  0.00    +0.000 A 
ATOM     10  C   UNL     1       2.056   6.988  20.153  0.00  0.00    +0.000 A 
ATOM     11  C   UNL     1       1.310   7.899  20.926  0.00  0.00    +0.000 A 
ENDBRANCH   1  10
BRANCH   2  12
ATOM     12  C   UNL     1       2.211   3.370  21.508  0.00  0.00    +0.000 C 
BRANCH  12  13
ATOM     13  C   UNL     1       3.306   2.725  20.633  0.00  0.00    +0.000 C 
BRANCH  13  14
ATOM     14  N   UNL     1       3.529   3.437  19.352  0.00  0.00    +0.000 NA
ATOM     15  C   UNL     1       4.973   3.747  19.218  0.00  0.00    +0.000 C 
ATOM     16  C   UNL     1       5.238   4.560  17.944  0.00  0.00    +0.000 C 
ATOM     17  C   UNL     1       4.757   3.780  16.720  0.00  0.00    +0.000 C 
ATOM     18  C   UNL     1       3.280   3.437  16.887  0.00  0.00    +0.000 C 
ATOM     19  C   UNL     1       3.072   2.646  18.183  0.00  0.00    +0.000 C 
ENDBRANCH  13  14
ENDBRANCH  12  13
ENDBRANCH   2  12
TORSDOF 4
ENDMDL
MODEL 8
REMARK VINA RESULT:      -6.5      1.447      1.971
REMARK  Name = 
REMARK  5 active torsions:
REMARK  status: ('A' for Active; 'I' for Inactive)
REMARK    1  A    between atoms: C_1  and  C_2
REMARK    2  A    between atoms: C_6  and  N_7
REMARK    3  A    between atoms: C_8  and  C_10
REMARK    4  A    between atoms: C_10  and  C_11
REMARK    5  A    between atoms: C_11  and  N_12
REMARK                            x       y       z     vdW  Elec       q    Type
REMARK                         _______ _______ _______ _____ _____    ______ ____
ROOT
ATOM      1  N   UNL     1       6.187   5.159  15.877  0.00  0.00    +0.000 N 
ATOM      2  C   UNL     1       6.866   4.796  17.009  0.00  0.00    +0.000 C 
ATOM      3  O   UNL     1       7.938   4.215  16.951  0.00  0.00    +0.000 OA
ATOM      4  H   UNL     1       5.336   5.730  16.005  0.00  0.00    +0.000 HD
ENDROOT
BRANCH   1  10
ATOM      5  C   UNL     1       5.445   2.487  11.761  0.00  0.00    +0.000 C 
ATOM      6  C   UNL     1       6.212   3.547  12.494  0.00  0.00    +0.000 A 
ATOM      7  C   UNL     1       7.261   4.226  11.863  0.00  0.00    +0.000 A 
ATOM      8  C   UNL     1       7.971   5.206  12.549  0.00  0.00    +0.000 A 
ATOM      9  C   UNL     1       7.640   5.528  13.865  0.00  0.00    +0.000 A 
ATOM     10  C   UNL     1       6.577   4.869  14.525  0.00  0.00    +0.000 A 
ATOM     11  C   UNL     1       5.879   3.867  13.822  0.00  0.00    +0.000 A 
ENDBRANCH   1  10
BRANCH   2  12
ATOM     12  C   UNL     1       6.343   5.157  18.373  0.00  0.00    +0.000 C 
BRANCH  12  13
ATOM     13  C   UNL     1       5.374   4.071  18.883  0.00  0.00    +0.000 C 
BRANCH  13  14
ATOM     14  N   UNL     1       4.276   4.610  19.720  0.00  0.00    +0.000 NA
ATOM     15  C   UNL     1       3.590   5.693  18.976  0.00  0.00    +0.000 C 
ATOM     16  C   UNL     1       2.499   6.339  19.840  0.00  0.00    +0.000 C 
ATOM     17  C   UNL     1       1.484   5.279  20.272  0.00  0.00    +0.000 C 
ATOM     18  C   UNL     1       2.208   4.154  21.005  0.00  0.00    +0.000 C 
ATOM     19  C   UNL     1       3.297   3.564  20.105  0.00  0.00    +0.000 C 
ENDBRANCH  13  14
ENDBRANCH  12  13
ENDBRANCH   2  12
TORSDOF 4
ENDMDL
MODEL 9
REMARK VINA RESULT:      -6.5      5.214      7.705
REMARK  Name = 
REMARK  5 active torsions:
REMARK  status: ('A' for Active; 'I' for Inactive)
REMARK    1  A    between atoms: C_1  and  C_2
REMARK    2  A    between atoms: C_6  and  N_7
REMARK    3  A    between atoms: C_8  and  C_10
REMARK    4  A    between atoms: C_10  and  C_11
REMARK    5  A    between atoms: C_11  and  N_12
REMARK                            x       y       z     vdW  Elec       q    Type
REMARK                         _______ _______ _______ _____ _____    ______ ____
ROOT
ATOM      1  N   UNL     1       6.823   7.698  16.888  0.00  0.00    +0.000 N 
ATOM      2  C   UNL     1       7.783   8.049  17.798  0.00  0.00    +0.000 C 
ATOM      3  O   UNL     1       8.249   7.237  18.580  0.00  0.00    +0.000 OA
ATOM      4  H   UNL     1       6.546   8.416  16.199  0.00  0.00    +0.000 HD
ENDROOT
BRANCH   1  10
ATOM      5  C   UNL     1       2.900   4.802  17.817  0.00  0.00    +0.000 C 
ATOM      6  C   UNL     1       4.268   4.978  17.227  0.00  0.00    +0.000 A 
ATOM      7  C   UNL     1       4.899   3.911  16.575  0.00  0.00    +0.000 A 
ATOM      8  C   UNL     1       6.169   4.078  16.032  0.00  0.00    +0.000 A 
ATOM      9  C   UNL     1       6.821   5.308  16.124  0.00  0.00    +0.000 A 
ATOM     10  C   UNL     1       6.204   6.407  16.765  0.00  0.00    +0.000 A 
ATOM     11  C   UNL     1       4.925   6.216  17.325  0.00  0.00    +0.000 A 
ENDBRANCH   1  10
BRANCH   2  12
ATOM     12  C   UNL     1       8.347   9.445  17.827  0.00  0.00    +0.000 C 
BRANCH  12  13
ATOM     13  C   UNL     1       8.935   9.759  19.218  0.00  0.00    +0.000 C 
BRANCH  13  14
ATOM     14  N   UNL     1      10.131  10.632  19.167  0.00  0.00    +0.000 NA
ATOM     15  C   UNL     1      10.115  11.396  17.896  0.00  0.00    +0.000 C 
ATOM     16  C   UNL     1      11.382  12.252  17.761  0.00  0.00    +0.000 C 
ATOM     17  C   UNL     1      11.488  13.213  18.946  0.00  0.00    +0.000 C 
ATOM     18  C   UNL     1      11.468  12.416  20.247  0.00  0.00    +0.000 C 
ATOM     19  C   UNL     1      10.195  11.567  20.317  0.00  0.00    +0.000 C 
ENDBRANCH  13  14
ENDBRANCH  12  13
ENDBRANCH   2  12
TORSDOF 4
ENDMDL
