MODEL 1
REMARK VINA RESULT:      -9.2      0.000      0.000
REMARK  Name = 
REMARK  5 active torsions:
REMARK  status: ('A' for Active; 'I' for Inactive)
REMARK    1  A    between atoms: C_1  and  C_2
REMARK    2  A    between atoms: C_7  and  C_8
REMARK    3  A    between atoms: N_12  and  C_13
REMARK    4  A    between atoms: C_13  and  C_14
REMARK    5  A    between atoms: C_18  and  C_19
REMARK                            x       y       z     vdW  Elec       q    Type
REMARK                         _______ _______ _______ _____ _____    ______ ____
ROOT
ATOM      1  C   UNL     1       4.279   6.546  17.542  0.00  0.00    +0.000 A 
ATOM      2  C   UNL     1       3.867   7.777  17.148  0.00  0.00    +0.000 A 
ATOM      3  N   UNL     1       2.846   8.519  17.724  0.00  0.00    +0.000 NA
ATOM      4  C   UNL     1       2.227   8.028  18.769  0.00  0.00    +0.000 A 
ATOM      5  N   UNL     1       1.183   8.678  19.411  0.00  0.00    +0.000 N 
ATOM      6  N   UNL     1       2.631   6.781  19.250  0.00  0.00    +0.000 N 
ATOM      7  C   UNL     1       2.146   6.018  20.286  0.00  0.00    +0.000 A 
ATOM      8  N   UNL     1       2.805   4.892  20.357  0.00  0.00    +0.000 NA
ATOM      9  N   UNL     1       3.738   4.876  19.341  0.00  0.00    +0.000 NA
ATOM     10  C   UNL     1       3.622   6.013  18.678  0.00  0.00    +0.000 A 
ATOM     11  H   UNL     1       1.345   8.806  20.409  0.00  0.00    +0.000 HD
ENDROOT
BRANCH   1  18
ATOM     12  C   UNL     1       7.283   7.134  17.518  0.00  0.00    +0.000 C 
ATOM     13  C   UNL     1       6.645   6.070  16.676  0.00  0.00    +0.000 A 
ATOM     14  N   UNL     1       7.509   5.375  15.881  0.00  0.00    +0.000 NA
ATOM     15  C   UNL     1       7.012   4.379  15.120  0.00  0.00    +0.000 A 
ATOM     16  C   UNL     1       5.675   4.038  15.097  0.00  0.00    +0.000 A 
ATOM     17  C   UNL     1       4.797   4.766  15.898  0.00  0.00    +0.000 A 
ATOM     18  C   UNL     1       5.266   5.814  16.707  0.00  0.00    +0.000 A 
ENDBRANCH   1  18
BRANCH   5  19
ATOM     19  C   UNL     1       0.484   9.828  18.825  0.00  0.00    +0.000 C 
BRANCH  19  20
ATOM     20  C   UNL     1      -0.180  10.636  19.915  0.00  0.00    +0.000 A 
ATOM     21  C   UNL     1      -0.500  11.983  19.701  0.00  0.00    +0.000 A 
ATOM     22  F   UNL     1      -0.316  12.512  18.484  0.00  0.00    +0.000 F 
ATOM     23  C   UNL     1      -1.022  12.808  20.717  0.00  0.00    +0.000 A 
ATOM     24  C   UNL     1      -1.135  12.362  22.044  0.00  0.00    +0.000 A 
ATOM     25  C   UNL     1      -0.651  11.079  22.247  0.00  0.00    +0.000 A 
ATOM     26  C   UNL     1      -0.391  10.180  21.203  0.00  0.00    +0.000 A 
ATOM     27  C   UNL     1      -0.365   8.840  21.850  0.00  0.00    +0.000 C 
ATOM     28  C   UNL     1       0.401   9.312  23.064  0.00  0.00    +0.000 C 
ATOM     29  O   UNL     1      -0.312  10.521  23.472  0.00  0.00    +0.000 OA
BRANCH  24  30
ATOM     30  C   UNL     1      -1.937  13.132  23.066  0.00  0.00    +0.000 C 
ATOM     31  C   UNL     1      -1.359  14.237  23.910  0.00  0.00    +0.000 C 
ATOM     32  C   UNL     1      -2.363  14.559  22.842  0.00  0.00    +0.000 C 
ENDBRANCH  24  30
ENDBRANCH  19  20
ENDBRANCH   5  19
TORSDOF 4
ENDMDL
MODEL 2
REMARK VINA RESULT:      -8.7      1.921      2.274
REMARK  Name = 
REMARK  5 active torsions:
REMARK  status: ('A' for Active; 'I' for Inactive)
REMARK    1  A    between atoms: C_1  and  C_2
REMARK    2  A    between atoms: C_7  and  C_8
REMARK    3  A    between atoms: N_12  and  C_13
REMARK    4  A    between atoms: C_13  and  C_14
REMARK    5  A    between atoms: C_18  and  C_19
REMARK                            x       y       z     vdW  Elec       q    Type
REMARK                         _______ _______ _______ _____ _____    ______ ____
ROOT
ATOM      1  C   UNL     1       4.253   6.506  17.623  0.00  0.00    +0.000 A 
ATOM      2  C   UNL     1       3.892   7.696  17.082  0.00  0.00    +0.000 A 
ATOM      3  N   UNL     1       2.872   8.521  17.533  0.00  0.00    +0.000 NA
ATOM      4  C   UNL     1       2.199   8.161  18.598  0.00  0.00    +0.000 A 
ATOM      5  N   UNL     1       1.150   8.902  19.124  0.00  0.00    +0.000 N 
ATOM      6  N   UNL     1       2.549   6.964  19.227  0.00  0.00    +0.000 N 
ATOM      7  C   UNL     1       2.002   6.330  20.318  0.00  0.00    +0.000 A 
ATOM      8  N   UNL     1       2.626   5.202  20.536  0.00  0.00    +0.000 NA
ATOM      9  N   UNL     1       3.596   5.054  19.567  0.00  0.00    +0.000 NA
ATOM     10  C   UNL     1       3.538   6.115  18.781  0.00  0.00    +0.000 A 
ATOM     11  H   UNL     1       1.278   9.133  20.108  0.00  0.00    +0.000 HD
ENDROOT
BRANCH   1  18
ATOM     12  C   UNL     1       7.283   6.903  17.806  0.00  0.00    +0.000 C 
ATOM     13  C   UNL     1       6.641   5.831  16.977  0.00  0.00    +0.000 A 
ATOM     14  N   UNL     1       7.515   5.035  16.295  0.00  0.00    +0.000 NA
ATOM     15  C   UNL     1       7.012   4.027  15.554  0.00  0.00    +0.000 A 
ATOM     16  C   UNL     1       5.661   3.769  15.443  0.00  0.00    +0.000 A 
ATOM     17  C   UNL     1       4.775   4.598  16.129  0.00  0.00    +0.000 A 
ATOM     18  C   UNL     1       5.249   5.663  16.912  0.00  0.00    +0.000 A 
ENDBRANCH   1  18
BRANCH   5  19
ATOM     19  C   UNL     1       0.508   9.999  18.390  0.00  0.00    +0.000 C 
BRANCH  19  20
ATOM     20  C   UNL     1       0.807  11.315  19.067  0.00  0.00    +0.000 A 
ATOM     21  C   UNL     1       1.930  12.064  18.691  0.00  0.00    +0.000 A 
ATOM     22  F   UNL     1       2.668  11.656  17.649  0.00  0.00    +0.000 F 
ATOM     23  C   UNL     1       2.313  13.243  19.361  0.00  0.00    +0.000 A 
ATOM     24  C   UNL     1       1.663  13.672  20.529  0.00  0.00    +0.000 A 
ATOM     25  C   UNL     1       0.665  12.813  20.963  0.00  0.00    +0.000 A 
ATOM     26  C   UNL     1       0.115  11.805  20.159  0.00  0.00    +0.000 A 
ATOM     27  C   UNL     1      -1.186  11.470  20.801  0.00  0.00    +0.000 C 
ATOM     28  C   UNL     1      -0.639  11.531  22.209  0.00  0.00    +0.000 C 
ATOM     29  O   UNL     1       0.108  12.786  22.234  0.00  0.00    +0.000 OA
BRANCH  24  30
ATOM     30  C   UNL     1       1.883  15.058  21.087  0.00  0.00    +0.000 C 
ATOM     31  C   UNL     1       2.933  15.377  22.119  0.00  0.00    +0.000 C 
ATOM     32  C   UNL     1       3.081  15.891  20.716  0.00  0.00    +0.000 C 
ENDBRANCH  24  30
ENDBRANCH  19  20
ENDBRANCH   5  19
TORSDOF 4
ENDMDL
MODEL 3
REMARK VINA RESULT:      -8.5      2.013      2.831
REMARK  Name = 
REMARK  5 active torsions:
REMARK  status: ('A' for Active; 'I' for Inactive)
REMARK    1  A    between atoms: C_1  and  C_2
REMARK    2  A    between atoms: C_7  and  C_8
REMARK    3  A    between atoms: N_12  and  C_13
REMARK    4  A    between atoms: C_13  and  C_14
REMARK    5  A    between atoms: C_18  and  C_19
REMARK                            x       y       z     vdW  Elec       q    Type
REMARK                         _______ _______ _______ _____ _____    ______ ____
ROOT
ATOM      1  C   UNL     1       4.495   5.084  17.493  0.00  0.00    +0.000 A 
ATOM      2  C   UNL     1       4.781   6.124  18.315  0.00  0.00    +0.000 A 
ATOM      3  N   UNL     1       3.952   6.633  19.305  0.00  0.00    +0.000 NA
ATOM      4  C   UNL     1       2.795   6.056  19.512  0.00  0.00    +0.000 A 
ATOM      5  N   UNL     1       1.884   6.492  20.464  0.00  0.00    +0.000 N 
ATOM      6  N   UNL     1       2.457   4.952  18.724  0.00  0.00    +0.000 N 
ATOM      7  C   UNL     1       1.315   4.186  18.694  0.00  0.00    +0.000 A 
ATOM      8  N   UNL     1       1.416   3.273  17.766  0.00  0.00    +0.000 NA
ATOM      9  N   UNL     1       2.634   3.432  17.138  0.00  0.00    +0.000 NA
ATOM     10  C   UNL     1       3.250   4.447  17.718  0.00  0.00    +0.000 A 
ATOM     11  H   UNL     1       1.606   5.761  21.116  0.00  0.00    +0.000 HD
ENDROOT
BRANCH   1  18
ATOM     12  C   UNL     1       7.520   4.727  17.800  0.00  0.00    +0.000 C 
ATOM     13  C   UNL     1       6.807   4.617  16.486  0.00  0.00    +0.000 A 
ATOM     14  N   UNL     1       7.613   4.348  15.418  0.00  0.00    +0.000 NA
ATOM     15  C   UNL     1       7.038   4.201  14.208  0.00  0.00    +0.000 A 
ATOM     16  C   UNL     1       5.679   4.322  13.994  0.00  0.00    +0.000 A 
ATOM     17  C   UNL     1       4.866   4.615  15.088  0.00  0.00    +0.000 A 
ATOM     18  C   UNL     1       5.418   4.779  16.368  0.00  0.00    +0.000 A 
ENDBRANCH   1  18
BRANCH   5  19
ATOM     19  C   UNL     1       1.995   7.797  21.127  0.00  0.00    +0.000 C 
BRANCH  19  20
ATOM     20  C   UNL     1       1.035   8.777  20.495  0.00  0.00    +0.000 A 
ATOM     21  C   UNL     1       1.247   9.230  19.187  0.00  0.00    +0.000 A 
ATOM     22  F   UNL     1       2.242   8.698  18.465  0.00  0.00    +0.000 F 
ATOM     23  C   UNL     1       0.443  10.223  18.590  0.00  0.00    +0.000 A 
ATOM     24  C   UNL     1      -0.543  10.909  19.317  0.00  0.00    +0.000 A 
ATOM     25  C   UNL     1      -0.607  10.549  20.654  0.00  0.00    +0.000 A 
ATOM     26  C   UNL     1      -0.006   9.391  21.168  0.00  0.00    +0.000 A 
ATOM     27  C   UNL     1      -0.698   9.143  22.462  0.00  0.00    +0.000 C 
ATOM     28  C   UNL     1      -0.721  10.600  22.863  0.00  0.00    +0.000 C 
ATOM     29  O   UNL     1      -1.213  11.278  21.666  0.00  0.00    +0.000 OA
BRANCH  24  30
ATOM     30  C   UNL     1      -1.577  11.764  18.624  0.00  0.00    +0.000 C 
ATOM     31  C   UNL     1      -2.681  11.197  17.770  0.00  0.00    +0.000 C 
ATOM     32  C   UNL     1      -3.007  11.829  19.092  0.00  0.00    +0.000 C 
ENDBRANCH  24  30
ENDBRANCH  19  20
ENDBRANCH   5  19
TORSDOF 4
ENDMDL
MODEL 4
REMARK VINA RESULT:      -8.4      2.995      4.000
REMARK  Name = 
REMARK  5 active torsions:
REMARK  status: ('A' for Active; 'I' for Inactive)
REMARK    1  A    between atoms: C_1  and  C_2
REMARK    2  A    between atoms: C_7  and  C_8
REMARK    3  A    between atoms: N_12  and  C_13
REMARK    4  A    between atoms: C_13  and  C_14
REMARK    5  A    between atoms: C_18  and  C_19
REMARK                            x       y       z     vdW  Elec       q    Type
REMARK                         _______ _______ _______ _____ _____    ______ ____
ROOT
ATOM      1  C   UNL     1       2.246   7.472  18.470  0.00  0.00    +0.000 A 
ATOM      2  C   UNL     1       2.042   8.481  17.587  0.00  0.00    +0.000 A 
ATOM      3  N   UNL     1       1.465   9.710  17.871  0.00  0.00    +0.000 NA
ATOM      4  C   UNL     1       1.105   9.963  19.105  0.00  0.00    +0.000 A 
ATOM      5  N   UNL     1       0.505  11.152  19.495  0.00  0.00    +0.000 N 
ATOM      6  N   UNL     1       1.326   8.979  20.072  0.00  0.00    +0.000 N 
ATOM      7  C   UNL     1       1.020   8.954  21.413  0.00  0.00    +0.000 A 
ATOM      8  N   UNL     1       1.375   7.808  21.929  0.00  0.00    +0.000 NA
ATOM      9  N   UNL     1       1.909   7.031  20.922  0.00  0.00    +0.000 NA
ATOM     10  C   UNL     1       1.870   7.742  19.809  0.00  0.00    +0.000 A 
ATOM     11  H   UNL     1       0.998  11.617  20.256  0.00  0.00    +0.000 HD
ENDROOT
BRANCH   1  18
ATOM     12  C   UNL     1       5.065   6.941  17.401  0.00  0.00    +0.000 C 
ATOM     13  C   UNL     1       3.997   5.890  17.466  0.00  0.00    +0.000 A 
ATOM     14  N   UNL     1       4.373   4.663  17.004  0.00  0.00    +0.000 NA
ATOM     15  C   UNL     1       3.476   3.659  17.062  0.00  0.00    +0.000 A 
ATOM     16  C   UNL     1       2.196   3.814  17.554  0.00  0.00    +0.000 A 
ATOM     17  C   UNL     1       1.815   5.075  18.008  0.00  0.00    +0.000 A 
ATOM     18  C   UNL     1       2.712   6.154  17.965  0.00  0.00    +0.000 A 
ENDBRANCH   1  18
BRANCH   5  19
ATOM     19  C   UNL     1      -0.042  12.117  18.535  0.00  0.00    +0.000 C 
BRANCH  19  20
ATOM     20  C   UNL     1      -1.541  12.208  18.696  0.00  0.00    +0.000 A 
ATOM     21  C   UNL     1      -2.094  12.801  19.838  0.00  0.00    +0.000 A 
ATOM     22  F   UNL     1      -1.282  13.387  20.727  0.00  0.00    +0.000 F 
ATOM     23  C   UNL     1      -3.482  12.817  20.087  0.00  0.00    +0.000 A 
ATOM     24  C   UNL     1      -4.386  12.126  19.265  0.00  0.00    +0.000 A 
ATOM     25  C   UNL     1      -3.781  11.413  18.241  0.00  0.00    +0.000 A 
ATOM     26  C   UNL     1      -2.454  11.617  17.841  0.00  0.00    +0.000 A 
ATOM     27  C   UNL     1      -2.372  11.036  16.473  0.00  0.00    +0.000 C 
ATOM     28  C   UNL     1      -3.208   9.823  16.813  0.00  0.00    +0.000 C 
ATOM     29  O   UNL     1      -4.362  10.385  17.511  0.00  0.00    +0.000 OA
BRANCH  24  30
ATOM     30  C   UNL     1      -5.874  12.362  19.362  0.00  0.00    +0.000 C 
ATOM     31  C   UNL     1      -6.830  11.376  19.983  0.00  0.00    +0.000 C 
ATOM     32  C   UNL     1      -6.551  12.682  20.668  0.00  0.00    +0.000 C 
ENDBRANCH  24  30
ENDBRANCH  19  20
ENDBRANCH   5  19
TORSDOF 4
ENDMDL
MODEL 5
REMARK VINA RESULT:      -8.4      2.956      3.934
REMARK  Name = 
REMARK  5 active torsions:
REMARK  status: ('A' for Active; 'I' for Inactive)
REMARK    1  A    between atoms: C_1  and  C_2
REMARK    2  A    between atoms: C_7  and  C_8
REMARK    3  A    between atoms: N_12  and  C_13
REMARK    4  A    between atoms: C_13  and  C_14
REMARK    5  A    between atoms: C_18  and  C_19
REMARK                            x       y       z     vdW  Elec       q    Type
REMARK                         _______ _______ _______ _____ _____    ______ ____
ROOT
ATOM      1  C   UNL     1       2.830   7.269  18.251  0.00  0.00    +0.000 A 
ATOM      2  C   UNL     1       2.575   8.345  17.465  0.00  0.00    +0.000 A 
ATOM      3  N   UNL     1       1.756   9.416  17.790  0.00  0.00    +0.000 NA
ATOM      4  C   UNL     1       1.192   9.438  18.972  0.00  0.00    +0.000 A 
ATOM      5  N   UNL     1       0.344  10.453  19.394  0.00  0.00    +0.000 N 
ATOM      6  N   UNL     1       1.448   8.379  19.846  0.00  0.00    +0.000 N 
ATOM      7  C   UNL     1       0.971   8.123  21.110  0.00  0.00    +0.000 A 
ATOM      8  N   UNL     1       1.449   6.987  21.545  0.00  0.00    +0.000 NA
ATOM      9  N   UNL     1       2.244   6.450  20.554  0.00  0.00    +0.000 NA
ATOM     10  C   UNL     1       2.233   7.291  19.535  0.00  0.00    +0.000 A 
ATOM     11  H   UNL     1       0.638  10.882  20.270  0.00  0.00    +0.000 HD
ENDROOT
BRANCH   1  18
ATOM     12  C   UNL     1       1.629   4.500  17.742  0.00  0.00    +0.000 C 
ATOM     13  C   UNL     1       3.058   4.845  17.446  0.00  0.00    +0.000 A 
ATOM     14  N   UNL     1       3.799   3.822  16.931  0.00  0.00    +0.000 NA
ATOM     15  C   UNL     1       5.085   4.067  16.608  0.00  0.00    +0.000 A 
ATOM     16  C   UNL     1       5.689   5.295  16.784  0.00  0.00    +0.000 A 
ATOM     17  C   UNL     1       4.929   6.330  17.328  0.00  0.00    +0.000 A 
ATOM     18  C   UNL     1       3.587   6.123  17.683  0.00  0.00    +0.000 A 
ENDBRANCH   1  18
BRANCH   5  19
ATOM     19  C   UNL     1      -0.228  11.442  18.472  0.00  0.00    +0.000 C 
BRANCH  19  20
ATOM     20  C   UNL     1      -1.736  11.415  18.562  0.00  0.00    +0.000 A 
ATOM     21  C   UNL     1      -2.496  10.869  17.520  0.00  0.00    +0.000 A 
ATOM     22  F   UNL     1      -1.869  10.268  16.500  0.00  0.00    +0.000 F 
ATOM     23  C   UNL     1      -3.905  10.914  17.506  0.00  0.00    +0.000 A 
ATOM     24  C   UNL     1      -4.629  11.625  18.476  0.00  0.00    +0.000 A 
ATOM     25  C   UNL     1      -3.833  12.292  19.394  0.00  0.00    +0.000 A 
ATOM     26  C   UNL     1      -2.467  12.025  19.565  0.00  0.00    +0.000 A 
ATOM     27  C   UNL     1      -2.135  12.575  20.907  0.00  0.00    +0.000 C 
ATOM     28  C   UNL     1      -2.961  13.827  20.728  0.00  0.00    +0.000 C 
ATOM     29  O   UNL     1      -4.238  13.327  20.224  0.00  0.00    +0.000 OA
BRANCH  24  30
ATOM     30  C   UNL     1      -6.122  11.452  18.625  0.00  0.00    +0.000 C 
ATOM     31  C   UNL     1      -6.777  10.126  18.912  0.00  0.00    +0.000 C 
ATOM     32  C   UNL     1      -6.771  11.200  19.960  0.00  0.00    +0.000 C 
ENDBRANCH  24  30
ENDBRANCH  19  20
ENDBRANCH   5  19
TORSDOF 4
ENDMDL
MODEL 6
REMARK VINA RESULT:      -8.4      2.930      3.930
REMARK  Name = 
REMARK  5 active torsions:
REMARK  status: ('A' for Active; 'I' for Inactive)
REMARK    1  A    between atoms: C_1  and  C_2
REMARK    2  A    between atoms: C_7  and  C_8
REMARK    3  A    between atoms: N_12  and  C_13
REMARK    4  A    between atoms: C_13  and  C_14
REMARK    5  A    between atoms: C_18  and  C_19
REMARK                            x       y       z     vdW  Elec       q    Type
REMARK                         _______ _______ _______ _____ _____    ______ ____
ROOT
ATOM      1  C   UNL     1       2.831   7.349  18.298  0.00  0.00    +0.000 A 
ATOM      2  C   UNL     1       2.675   8.442  17.510  0.00  0.00    +0.000 A 
ATOM      3  N   UNL     1       1.907   9.558  17.807  0.00  0.00    +0.000 NA
ATOM      4  C   UNL     1       1.293   9.607  18.963  0.00  0.00    +0.000 A 
ATOM      5  N   UNL     1       0.488  10.668  19.354  0.00  0.00    +0.000 N 
ATOM      6  N   UNL     1       1.447   8.530  19.839  0.00  0.00    +0.000 N 
ATOM      7  C   UNL     1       0.900   8.295  21.079  0.00  0.00    +0.000 A 
ATOM      8  N   UNL     1       1.290   7.131  21.524  0.00  0.00    +0.000 NA
ATOM      9  N   UNL     1       2.096   6.553  20.566  0.00  0.00    +0.000 NA
ATOM     10  C   UNL     1       2.179   7.399  19.554  0.00  0.00    +0.000 A 
ATOM     11  H   UNL     1       0.767  11.073  20.246  0.00  0.00    +0.000 HD
ENDROOT
BRANCH   1  18
ATOM     12  C   UNL     1       1.511   4.634  17.790  0.00  0.00    +0.000 C 
ATOM     13  C   UNL     1       2.960   4.909  17.518  0.00  0.00    +0.000 A 
ATOM     14  N   UNL     1       3.662   3.847  17.026  0.00  0.00    +0.000 NA
ATOM     15  C   UNL     1       4.964   4.029  16.726  0.00  0.00    +0.000 A 
ATOM     16  C   UNL     1       5.622   5.229  16.903  0.00  0.00    +0.000 A 
ATOM     17  C   UNL     1       4.901   6.303  17.423  0.00  0.00    +0.000 A 
ATOM     18  C   UNL     1       3.544   6.163  17.754  0.00  0.00    +0.000 A 
ENDBRANCH   1  18
BRANCH   5  19
ATOM     19  C   UNL     1       0.017  11.694  18.417  0.00  0.00    +0.000 C 
BRANCH  19  20
ATOM     20  C   UNL     1      -1.459  11.943  18.627  0.00  0.00    +0.000 A 
ATOM     21  C   UNL     1      -1.914  12.520  19.820  0.00  0.00    +0.000 A 
ATOM     22  F   UNL     1      -1.020  12.952  20.719  0.00  0.00    +0.000 F 
ATOM     23  C   UNL     1      -3.284  12.677  20.110  0.00  0.00    +0.000 A 
ATOM     24  C   UNL     1      -4.280  12.147  19.274  0.00  0.00    +0.000 A 
ATOM     25  C   UNL     1      -3.785  11.437  18.191  0.00  0.00    +0.000 A 
ATOM     26  C   UNL     1      -2.451  11.515  17.765  0.00  0.00    +0.000 A 
ATOM     27  C   UNL     1      -2.468  11.018  16.363  0.00  0.00    +0.000 C 
ATOM     28  C   UNL     1      -3.429   9.888  16.652  0.00  0.00    +0.000 C 
ATOM     29  O   UNL     1      -4.495  10.531  17.417  0.00  0.00    +0.000 OA
BRANCH  24  30
ATOM     30  C   UNL     1      -5.729  12.543  19.430  0.00  0.00    +0.000 C 
ATOM     31  C   UNL     1      -6.788  11.614  19.966  0.00  0.00    +0.000 C 
ATOM     32  C   UNL     1      -6.350  12.799  20.777  0.00  0.00    +0.000 C 
ENDBRANCH  24  30
ENDBRANCH  19  20
ENDBRANCH   5  19
TORSDOF 4
ENDMDL
MODEL 7
REMARK VINA RESULT:      -8.4      1.441      2.172
REMARK  Name = 
REMARK  5 active torsions:
REMARK  status: ('A' for Active; 'I' for Inactive)
REMARK    1  A    between atoms: C_1  and  C_2
REMARK    2  A    between atoms: C_7  and  C_8
REMARK    3  A    between atoms: N_12  and  C_13
REMARK    4  A    between atoms: C_13  and  C_14
REMARK    5  A    between atoms: C_18  and  C_19
REMARK                            x       y       z     vdW  Elec       q    Type
REMARK                         _______ _______ _______ _____ _____    ______ ____
ROOT
ATOM      1  C   UNL     1       4.366   6.297  17.576  0.00  0.00    +0.000 A 
ATOM      2  C   UNL     1       3.972   7.527  17.159  0.00  0.00    +0.000 A 
ATOM      3  N   UNL     1       2.958   8.291  17.717  0.00  0.00    +0.000 NA
ATOM      4  C   UNL     1       2.326   7.825  18.766  0.00  0.00    +0.000 A 
ATOM      5  N   UNL     1       1.287   8.500  19.392  0.00  0.00    +0.000 N 
ATOM      6  N   UNL     1       2.712   6.581  19.270  0.00  0.00    +0.000 N 
ATOM      7  C   UNL     1       2.210   5.842  20.316  0.00  0.00    +0.000 A 
ATOM      8  N   UNL     1       2.855   4.709  20.409  0.00  0.00    +0.000 NA
ATOM      9  N   UNL     1       3.793   4.665  19.399  0.00  0.00    +0.000 NA
ATOM     10  C   UNL     1       3.695   5.792  18.716  0.00  0.00    +0.000 A 
ATOM     11  H   UNL     1       1.445   8.641  20.388  0.00  0.00    +0.000 HD
ENDROOT
BRANCH   1  18
ATOM     12  C   UNL     1       7.360   6.141  18.192  0.00  0.00    +0.000 C 
ATOM     13  C   UNL     1       6.724   5.458  17.019  0.00  0.00    +0.000 A 
ATOM     14  N   UNL     1       7.586   4.755  16.229  0.00  0.00    +0.000 NA
ATOM     15  C   UNL     1       7.081   4.086  15.173  0.00  0.00    +0.000 A 
ATOM     16  C   UNL     1       5.740   4.087  14.846  0.00  0.00    +0.000 A 
ATOM     17  C   UNL     1       4.869   4.823  15.649  0.00  0.00    +0.000 A 
ATOM     18  C   UNL     1       5.347   5.539  16.758  0.00  0.00    +0.000 A 
ENDBRANCH   1  18
BRANCH   5  19
ATOM     19  C   UNL     1       0.607   9.649  18.782  0.00  0.00    +0.000 C 
BRANCH  19  20
ATOM     20  C   UNL     1       0.278  10.673  19.843  0.00  0.00    +0.000 A 
ATOM     21  C   UNL     1      -0.416  10.295  20.999  0.00  0.00    +0.000 A 
ATOM     22  F   UNL     1      -0.684   8.998  21.205  0.00  0.00    +0.000 F 
ATOM     23  C   UNL     1      -0.839  11.227  21.968  0.00  0.00    +0.000 A 
ATOM     24  C   UNL     1      -0.700  12.611  21.769  0.00  0.00    +0.000 A 
ATOM     25  C   UNL     1      -0.160  12.949  20.538  0.00  0.00    +0.000 A 
ATOM     26  C   UNL     1       0.499  12.031  19.708  0.00  0.00    +0.000 A 
ATOM     27  C   UNL     1       1.306  12.867  18.779  0.00  0.00    +0.000 C 
ATOM     28  C   UNL     1       0.220  13.898  18.576  0.00  0.00    +0.000 C 
ATOM     29  O   UNL     1      -0.229  14.196  19.934  0.00  0.00    +0.000 OA
BRANCH  24  30
ATOM     30  C   UNL     1      -0.894  13.590  22.902  0.00  0.00    +0.000 C 
ATOM     31  C   UNL     1      -1.955  14.660  22.898  0.00  0.00    +0.000 C 
ATOM     32  C   UNL     1      -2.063  13.502  23.847  0.00  0.00    +0.000 C 
ENDBRANCH  24  30
ENDBRANCH  19  20
ENDBRANCH   5  19
TORSDOF 4
ENDMDL
MODEL 8
REMARK VINA RESULT:      -8.4      2.377      3.050
REMARK  Name = 
REMARK  5 active torsions:
REMARK  status: ('A' for Active; 'I' for Inactive)
REMARK    1  A    between atoms: C_1  and  C_2
REMARK    2  A    between atoms: C_7  and  C_8
REMARK    3  A    between atoms: N_12  and  C_13
REMARK    4  A    between atoms: C_13  and  C_14
REMARK    5  A    between atoms: C_18  and  C_19
REMARK                            x       y       z     vdW  Elec       q    Type
REMARK                         _______ _______ _______ _____ _____    ______ ____
ROOT
ATOM      1  C   UNL     1       4.135   6.574  17.801  0.00  0.00    +0.000 A 
ATOM      2  C   UNL     1       3.967   7.808  17.265  0.00  0.00    +0.000 A 
ATOM      3  N   UNL     1       2.998   8.731  17.632  0.00  0.00    +0.000 NA
ATOM      4  C   UNL     1       2.178   8.425  18.607  0.00  0.00    +0.000 A 
ATOM      5  N   UNL     1       1.164   9.267  19.042  0.00  0.00    +0.000 N 
ATOM      6  N   UNL     1       2.326   7.183  19.229  0.00  0.00    +0.000 N 
ATOM      7  C   UNL     1       1.598   6.591  20.234  0.00  0.00    +0.000 A 
ATOM      8  N   UNL     1       2.068   5.397  20.480  0.00  0.00    +0.000 NA
ATOM      9  N   UNL     1       3.117   5.163  19.615  0.00  0.00    +0.000 NA
ATOM     10  C   UNL     1       3.260   6.240  18.863  0.00  0.00    +0.000 A 
ATOM     11  H   UNL     1       1.207   9.461  20.041  0.00  0.00    +0.000 HD
ENDROOT
BRANCH   1  18
ATOM     12  C   UNL     1       6.738   5.653  19.125  0.00  0.00    +0.000 C 
ATOM     13  C   UNL     1       6.307   5.211  17.758  0.00  0.00    +0.000 A 
ATOM     14  N   UNL     1       7.172   4.360  17.134  0.00  0.00    +0.000 NA
ATOM     15  C   UNL     1       6.835   3.893  15.914  0.00  0.00    +0.000 A 
ATOM     16  C   UNL     1       5.669   4.241  15.265  0.00  0.00    +0.000 A 
ATOM     17  C   UNL     1       4.800   5.125  15.903  0.00  0.00    +0.000 A 
ATOM     18  C   UNL     1       5.107   5.641  17.172  0.00  0.00    +0.000 A 
ENDBRANCH   1  18
BRANCH   5  19
ATOM     19  C   UNL     1       0.728  10.443  18.280  0.00  0.00    +0.000 C 
BRANCH  19  20
ATOM     20  C   UNL     1      -0.740  10.702  18.531  0.00  0.00    +0.000 A 
ATOM     21  C   UNL     1      -1.707  10.172  17.667  0.00  0.00    +0.000 A 
ATOM     22  F   UNL     1      -1.324   9.342  16.688  0.00  0.00    +0.000 F 
ATOM     23  C   UNL     1      -3.079  10.470  17.794  0.00  0.00    +0.000 A 
ATOM     24  C   UNL     1      -3.546  11.418  18.718  0.00  0.00    +0.000 A 
ATOM     25  C   UNL     1      -2.538  12.043  19.438  0.00  0.00    +0.000 A 
ATOM     26  C   UNL     1      -1.225  11.557  19.502  0.00  0.00    +0.000 A 
ATOM     27  C   UNL     1      -0.636  12.205  20.706  0.00  0.00    +0.000 C 
ATOM     28  C   UNL     1      -1.262  13.553  20.429  0.00  0.00    +0.000 C 
ATOM     29  O   UNL     1      -2.658  13.232  20.143  0.00  0.00    +0.000 OA
BRANCH  24  30
ATOM     30  C   UNL     1      -5.015  11.539  19.047  0.00  0.00    +0.000 C 
ATOM     31  C   UNL     1      -5.909  12.601  18.462  0.00  0.00    +0.000 C 
ATOM     32  C   UNL     1      -6.090  11.166  18.061  0.00  0.00    +0.000 C 
ENDBRANCH  24  30
ENDBRANCH  19  20
ENDBRANCH   5  19
TORSDOF 4
ENDMDL
MODEL 9
REMARK VINA RESULT:      -8.3      3.219      9.203
REMARK  Name = 
REMARK  5 active torsions:
REMARK  status: ('A' for Active; 'I' for Inactive)
REMARK    1  A    between atoms: C_1  and  C_2
REMARK    2  A    between atoms: C_7  and  C_8
REMARK    3  A    between atoms: N_12  and  C_13
REMARK    4  A    between atoms: C_13  and  C_14
REMARK    5  A    between atoms: C_18  and  C_19
REMARK                            x       y       z     vdW  Elec       q    Type
REMARK                         _______ _______ _______ _____ _____    ______ ____
ROOT
ATOM      1  C   UNL     1      -1.034  12.297  20.084  0.00  0.00    +0.000 A 
ATOM      2  C   UNL     1       0.307  12.149  20.217  0.00  0.00    +0.000 A 
ATOM      3  N   UNL     1       1.102  11.253  19.517  0.00  0.00    +0.000 NA
ATOM      4  C   UNL     1       0.540  10.491  18.611  0.00  0.00    +0.000 A 
ATOM      5  N   UNL     1       1.239   9.552  17.865  0.00  0.00    +0.000 N 
ATOM      6  N   UNL     1      -0.833  10.625  18.396  0.00  0.00    +0.000 N 
ATOM      7  C   UNL     1      -1.680   9.943  17.553  0.00  0.00    +0.000 A 
ATOM      8  N   UNL     1      -2.904  10.374  17.709  0.00  0.00    +0.000 NA
ATOM      9  N   UNL     1      -2.896  11.346  18.688  0.00  0.00    +0.000 NA
ATOM     10  C   UNL     1      -1.647  11.485  19.099  0.00  0.00    +0.000 A 
ATOM     11  H   UNL     1       1.126   9.675  16.860  0.00  0.00    +0.000 HD
ENDROOT
BRANCH   1  18
ATOM     12  C   UNL     1      -1.712  11.519  22.966  0.00  0.00    +0.000 C 
ATOM     13  C   UNL     1      -2.086  12.838  22.359  0.00  0.00    +0.000 A 
ATOM     14  N   UNL     1      -2.765  13.679  23.192  0.00  0.00    +0.000 NA
ATOM     15  C   UNL     1      -3.106  14.898  22.726  0.00  0.00    +0.000 A 
ATOM     16  C   UNL     1      -2.813  15.330  21.448  0.00  0.00    +0.000 A 
ATOM     17  C   UNL     1      -2.135  14.457  20.599  0.00  0.00    +0.000 A 
ATOM     18  C   UNL     1      -1.761  13.177  21.036  0.00  0.00    +0.000 A 
ENDBRANCH   1  18
BRANCH   5  19
ATOM     19  C   UNL     1       2.598   9.118  18.209  0.00  0.00    +0.000 C 
BRANCH  19  20
ATOM     20  C   UNL     1       2.571   7.691  18.705  0.00  0.00    +0.000 A 
ATOM     21  C   UNL     1       1.837   7.355  19.850  0.00  0.00    +0.000 A 
ATOM     22  F   UNL     1       1.070   8.288  20.430  0.00  0.00    +0.000 F 
ATOM     23  C   UNL     1       1.864   6.064  20.415  0.00  0.00    +0.000 A 
ATOM     24  C   UNL     1       2.730   5.068  19.936  0.00  0.00    +0.000 A 
ATOM     25  C   UNL     1       3.560   5.492  18.910  0.00  0.00    +0.000 A 
ATOM     26  C   UNL     1       3.344   6.671  18.183  0.00  0.00    +0.000 A 
ATOM     27  C   UNL     1       4.130   6.498  16.931  0.00  0.00    +0.000 C 
ATOM     28  C   UNL     1       5.320   5.878  17.626  0.00  0.00    +0.000 C 
ATOM     29  O   UNL     1       4.724   4.863  18.491  0.00  0.00    +0.000 OA
BRANCH  24  30
ATOM     30  C   UNL     1       2.570   3.624  20.348  0.00  0.00    +0.000 C 
ATOM     31  C   UNL     1       2.043   3.201  21.694  0.00  0.00    +0.000 C 
ATOM     32  C   UNL     1       1.220   2.966  20.460  0.00  0.00    +0.000 C 
ENDBRANCH  24  30
ENDBRANCH  19  20
ENDBRANCH   5  19
TORSDOF 4
ENDMDL
