MODEL 1
REMARK VINA RESULT:      -7.3      0.000      0.000
REMARK  Name = 
REMARK  4 active torsions:
REMARK  status: ('A' for Active; 'I' for Inactive)
REMARK    1  A    between atoms: C_1  and  C_2
REMARK    2  A    between atoms: C_2  and  C_3
REMARK    3  A    between atoms: C_2  and  C_4
REMARK    4  A    between atoms: C_6  and  C_7
REMARK                            x       y       z     vdW  Elec       q    Type
REMARK                         _______ _______ _______ _____ _____    ______ ____
ROOT
ATOM      1  C   UNL     1       6.890   5.610  17.004  0.00  0.00    +0.000 A 
ATOM      2  N   UNL     1       5.807   5.124  17.515  0.00  0.00    +0.000 NA
ATOM      3  C   UNL     1       4.979   4.387  16.697  0.00  0.00    +0.000 A 
ATOM      4  C   UNL     1       5.232   4.172  15.398  0.00  0.00    +0.000 A 
ATOM      5  C   UNL     1       6.468   4.721  14.834  0.00  0.00    +0.000 A 
ATOM      6  O   UNL     1       6.785   4.524  13.666  0.00  0.00    +0.000 OA
ATOM      7  N   UNL     1       7.235   5.442  15.694  0.00  0.00    +0.000 N 
ATOM      8  H   UNL     1       8.095   5.812  15.318  0.00  0.00    +0.000 HD
ENDROOT
BRANCH   3   9
ATOM      9  C   UNL     1       3.753   3.817  17.319  0.00  0.00    +0.000 A 
ATOM     10  C   UNL     1       3.652   2.470  17.686  0.00  0.00    +0.000 A 
ATOM     11  C   UNL     1       2.486   2.022  18.289  0.00  0.00    +0.000 A 
ATOM     12  N   UNL     1       1.427   2.812  18.557  0.00  0.00    +0.000 NA
ATOM     13  C   UNL     1       1.545   4.112  18.215  0.00  0.00    +0.000 A 
ATOM     14  C   UNL     1       2.666   4.651  17.606  0.00  0.00    +0.000 A 
ENDBRANCH   3   9
BRANCH   1  16
ATOM     15  C   UNL     1       7.633   7.891  17.714  0.00  0.00    +0.000 C 
ATOM     16  C   UNL     1       7.857   6.391  17.885  0.00  0.00    +0.000 C 
ATOM     17  C   UNL     1       7.750   5.980  19.350  0.00  0.00    +0.000 C 
ENDBRANCH   1  16
TORSDOF 2
ENDMDL
MODEL 2
REMARK VINA RESULT:      -7.3      0.062      1.174
REMARK  Name = 
REMARK  4 active torsions:
REMARK  status: ('A' for Active; 'I' for Inactive)
REMARK    1  A    between atoms: C_1  and  C_2
REMARK    2  A    between atoms: C_2  and  C_3
REMARK    3  A    between atoms: C_2  and  C_4
REMARK    4  A    between atoms: C_6  and  C_7
REMARK                            x       y       z     vdW  Elec       q    Type
REMARK                         _______ _______ _______ _____ _____    ______ ____
ROOT
ATOM      1  C   UNL     1       6.882   5.603  17.001  0.00  0.00    +0.000 A 
ATOM      2  N   UNL     1       5.800   5.134  17.532  0.00  0.00    +0.000 NA
ATOM      3  C   UNL     1       4.962   4.383  16.737  0.00  0.00    +0.000 A 
ATOM      4  C   UNL     1       5.203   4.137  15.442  0.00  0.00    +0.000 A 
ATOM      5  C   UNL     1       6.437   4.666  14.855  0.00  0.00    +0.000 A 
ATOM      6  O   UNL     1       6.744   4.441  13.690  0.00  0.00    +0.000 OA
ATOM      7  N   UNL     1       7.215   5.403  15.693  0.00  0.00    +0.000 N 
ATOM      8  H   UNL     1       8.074   5.759  15.301  0.00  0.00    +0.000 HD
ENDROOT
BRANCH   3   9
ATOM      9  C   UNL     1       3.738   3.834  17.382  0.00  0.00    +0.000 A 
ATOM     10  C   UNL     1       2.603   4.615  17.628  0.00  0.00    +0.000 A 
ATOM     11  C   UNL     1       1.490   4.022  18.206  0.00  0.00    +0.000 A 
ATOM     12  N   UNL     1       1.424   2.720  18.546  0.00  0.00    +0.000 NA
ATOM     13  C   UNL     1       2.518   1.974  18.287  0.00  0.00    +0.000 A 
ATOM     14  C   UNL     1       3.677   2.476  17.717  0.00  0.00    +0.000 A 
ENDBRANCH   3   9
BRANCH   1  16
ATOM     15  C   UNL     1       7.615   7.895  17.684  0.00  0.00    +0.000 C 
ATOM     16  C   UNL     1       7.860   6.399  17.856  0.00  0.00    +0.000 C 
ATOM     17  C   UNL     1       7.792   5.993  19.325  0.00  0.00    +0.000 C 
ENDBRANCH   1  16
TORSDOF 2
ENDMDL
MODEL 3
REMARK VINA RESULT:      -7.0      1.639      3.371
REMARK  Name = 
REMARK  4 active torsions:
REMARK  status: ('A' for Active; 'I' for Inactive)
REMARK    1  A    between atoms: C_1  and  C_2
REMARK    2  A    between atoms: C_2  and  C_3
REMARK    3  A    between atoms: C_2  and  C_4
REMARK    4  A    between atoms: C_6  and  C_7
REMARK                            x       y       z     vdW  Elec       q    Type
REMARK                         _______ _______ _______ _____ _____    ______ ____
ROOT
ATOM      1  C   UNL     1       6.455   4.604  14.864  0.00  0.00    +0.000 A 
ATOM      2  N   UNL     1       5.418   4.112  15.459  0.00  0.00    +0.000 NA
ATOM      3  C   UNL     1       5.054   4.648  16.675  0.00  0.00    +0.000 A 
ATOM      4  C   UNL     1       5.736   5.634  17.276  0.00  0.00    +0.000 A 
ATOM      5  C   UNL     1       6.903   6.190  16.586  0.00  0.00    +0.000 A 
ATOM      6  O   UNL     1       7.543   7.124  17.056  0.00  0.00    +0.000 OA
ATOM      7  N   UNL     1       7.209   5.611  15.394  0.00  0.00    +0.000 N 
ATOM      8  H   UNL     1       8.003   5.997  14.906  0.00  0.00    +0.000 HD
ENDROOT
BRANCH   3   9
ATOM      9  C   UNL     1       3.842   4.080  17.324  0.00  0.00    +0.000 A 
ATOM     10  C   UNL     1       2.761   4.875  17.725  0.00  0.00    +0.000 A 
ATOM     11  C   UNL     1       1.654   4.265  18.297  0.00  0.00    +0.000 A 
ATOM     12  N   UNL     1       1.542   2.936  18.487  0.00  0.00    +0.000 NA
ATOM     13  C   UNL     1       2.583   2.180  18.080  0.00  0.00    +0.000 A 
ATOM     14  C   UNL     1       3.732   2.696  17.503  0.00  0.00    +0.000 A 
ENDBRANCH   3   9
BRANCH   1  16
ATOM     15  C   UNL     1       5.638   3.590  12.728  0.00  0.00    +0.000 C 
ATOM     16  C   UNL     1       6.865   4.073  13.496  0.00  0.00    +0.000 C 
ATOM     17  C   UNL     1       7.646   5.109  12.695  0.00  0.00    +0.000 C 
ENDBRANCH   1  16
TORSDOF 2
ENDMDL
MODEL 4
REMARK VINA RESULT:      -6.9      1.783      3.327
REMARK  Name = 
REMARK  4 active torsions:
REMARK  status: ('A' for Active; 'I' for Inactive)
REMARK    1  A    between atoms: C_1  and  C_2
REMARK    2  A    between atoms: C_2  and  C_3
REMARK    3  A    between atoms: C_2  and  C_4
REMARK    4  A    between atoms: C_6  and  C_7
REMARK                            x       y       z     vdW  Elec       q    Type
REMARK                         _______ _______ _______ _____ _____    ______ ____
ROOT
ATOM      1  C   UNL     1       6.431   4.384  14.815  0.00  0.00    +0.000 A 
ATOM      2  N   UNL     1       5.556   3.815  15.577  0.00  0.00    +0.000 NA
ATOM      3  C   UNL     1       5.380   4.316  16.849  0.00  0.00    +0.000 A 
ATOM      4  C   UNL     1       6.089   5.344  17.337  0.00  0.00    +0.000 A 
ATOM      5  C   UNL     1       7.071   5.986  16.459  0.00  0.00    +0.000 A 
ATOM      6  O   UNL     1       7.720   6.960  16.824  0.00  0.00    +0.000 OA
ATOM      7  N   UNL     1       7.197   5.439  15.221  0.00  0.00    +0.000 N 
ATOM      8  H   UNL     1       7.861   5.883  14.605  0.00  0.00    +0.000 HD
ENDROOT
BRANCH   3   9
ATOM      9  C   UNL     1       4.347   3.658  17.694  0.00  0.00    +0.000 A 
ATOM     10  C   UNL     1       4.564   3.346  19.041  0.00  0.00    +0.000 A 
ATOM     11  C   UNL     1       3.540   2.759  19.770  0.00  0.00    +0.000 A 
ATOM     12  N   UNL     1       2.325   2.472  19.261  0.00  0.00    +0.000 NA
ATOM     13  C   UNL     1       2.123   2.794  17.967  0.00  0.00    +0.000 A 
ATOM     14  C   UNL     1       3.085   3.378  17.158  0.00  0.00    +0.000 A 
ENDBRANCH   3   9
BRANCH   1  16
ATOM     15  C   UNL     1       5.270   3.629  12.732  0.00  0.00    +0.000 C 
ATOM     16  C   UNL     1       6.624   3.892  13.386  0.00  0.00    +0.000 C 
ATOM     17  C   UNL     1       7.459   4.864  12.559  0.00  0.00    +0.000 C 
ENDBRANCH   1  16
TORSDOF 2
ENDMDL
MODEL 5
REMARK VINA RESULT:      -6.9      1.655      3.163
REMARK  Name = 
REMARK  4 active torsions:
REMARK  status: ('A' for Active; 'I' for Inactive)
REMARK    1  A    between atoms: C_1  and  C_2
REMARK    2  A    between atoms: C_2  and  C_3
REMARK    3  A    between atoms: C_2  and  C_4
REMARK    4  A    between atoms: C_6  and  C_7
REMARK                            x       y       z     vdW  Elec       q    Type
REMARK                         _______ _______ _______ _____ _____    ______ ____
ROOT
ATOM      1  C   UNL     1       6.515   4.659  14.870  0.00  0.00    +0.000 A 
ATOM      2  N   UNL     1       5.458   4.171  15.433  0.00  0.00    +0.000 NA
ATOM      3  C   UNL     1       5.057   4.711  16.636  0.00  0.00    +0.000 A 
ATOM      4  C   UNL     1       5.723   5.695  17.256  0.00  0.00    +0.000 A 
ATOM      5  C   UNL     1       6.914   6.245  16.603  0.00  0.00    +0.000 A 
ATOM      6  O   UNL     1       7.542   7.177  17.091  0.00  0.00    +0.000 OA
ATOM      7  N   UNL     1       7.255   5.663  15.423  0.00  0.00    +0.000 N 
ATOM      8  H   UNL     1       8.066   6.045  14.959  0.00  0.00    +0.000 HD
ENDROOT
BRANCH   3   9
ATOM      9  C   UNL     1       3.822   4.148  17.247  0.00  0.00    +0.000 A 
ATOM     10  C   UNL     1       3.585   2.771  17.330  0.00  0.00    +0.000 A 
ATOM     11  C   UNL     1       2.422   2.325  17.941  0.00  0.00    +0.000 A 
ATOM     12  N   UNL     1       1.494   3.141  18.478  0.00  0.00    +0.000 NA
ATOM     13  C   UNL     1       1.744   4.465  18.407  0.00  0.00    +0.000 A 
ATOM     14  C   UNL     1       2.873   5.007  17.813  0.00  0.00    +0.000 A 
ENDBRANCH   3   9
BRANCH   1  16
ATOM     15  C   UNL     1       5.774   3.556  12.750  0.00  0.00    +0.000 C 
ATOM     16  C   UNL     1       6.966   4.124  13.517  0.00  0.00    +0.000 C 
ATOM     17  C   UNL     1       7.694   5.186  12.700  0.00  0.00    +0.000 C 
ENDBRANCH   1  16
TORSDOF 2
ENDMDL
MODEL 6
REMARK VINA RESULT:      -6.8      0.972      1.177
REMARK  Name = 
REMARK  4 active torsions:
REMARK  status: ('A' for Active; 'I' for Inactive)
REMARK    1  A    between atoms: C_1  and  C_2
REMARK    2  A    between atoms: C_2  and  C_3
REMARK    3  A    between atoms: C_2  and  C_4
REMARK    4  A    between atoms: C_6  and  C_7
REMARK                            x       y       z     vdW  Elec       q    Type
REMARK                         _______ _______ _______ _____ _____    ______ ____
ROOT
ATOM      1  C   UNL     1       6.868   5.297  17.266  0.00  0.00    +0.000 A 
ATOM      2  N   UNL     1       5.868   4.809  17.925  0.00  0.00    +0.000 NA
ATOM      3  C   UNL     1       4.999   3.973  17.259  0.00  0.00    +0.000 A 
ATOM      4  C   UNL     1       5.128   3.663  15.961  0.00  0.00    +0.000 A 
ATOM      5  C   UNL     1       6.271   4.215  15.228  0.00  0.00    +0.000 A 
ATOM      6  O   UNL     1       6.476   3.936  14.052  0.00  0.00    +0.000 OA
ATOM      7  N   UNL     1       7.085   5.036  15.944  0.00  0.00    +0.000 N 
ATOM      8  H   UNL     1       7.883   5.409  15.451  0.00  0.00    +0.000 HD
ENDROOT
BRANCH   3   9
ATOM      9  C   UNL     1       3.873   3.405  18.050  0.00  0.00    +0.000 A 
ATOM     10  C   UNL     1       2.680   2.974  17.457  0.00  0.00    +0.000 A 
ATOM     11  C   UNL     1       1.689   2.429  18.261  0.00  0.00    +0.000 A 
ATOM     12  N   UNL     1       1.803   2.276  19.595  0.00  0.00    +0.000 NA
ATOM     13  C   UNL     1       2.964   2.679  20.150  0.00  0.00    +0.000 A 
ATOM     14  C   UNL     1       4.010   3.238  19.433  0.00  0.00    +0.000 A 
ENDBRANCH   3   9
BRANCH   1  16
ATOM     15  C   UNL     1       7.605   7.655  17.659  0.00  0.00    +0.000 C 
ATOM     16  C   UNL     1       7.880   6.188  17.976  0.00  0.00    +0.000 C 
ATOM     17  C   UNL     1       7.896   5.940  19.481  0.00  0.00    +0.000 C 
ENDBRANCH   1  16
TORSDOF 2
ENDMDL
MODEL 7
REMARK VINA RESULT:      -6.8      2.800      5.949
REMARK  Name = 
REMARK  4 active torsions:
REMARK  status: ('A' for Active; 'I' for Inactive)
REMARK    1  A    between atoms: C_1  and  C_2
REMARK    2  A    between atoms: C_2  and  C_3
REMARK    3  A    between atoms: C_2  and  C_4
REMARK    4  A    between atoms: C_6  and  C_7
REMARK                            x       y       z     vdW  Elec       q    Type
REMARK                         _______ _______ _______ _____ _____    ______ ____
ROOT
ATOM      1  C   UNL     1       2.435   3.970  19.409  0.00  0.00    +0.000 A 
ATOM      2  N   UNL     1       3.450   3.906  18.610  0.00  0.00    +0.000 NA
ATOM      3  C   UNL     1       4.055   5.086  18.236  0.00  0.00    +0.000 A 
ATOM      4  C   UNL     1       3.627   6.291  18.639  0.00  0.00    +0.000 A 
ATOM      5  C   UNL     1       2.482   6.349  19.551  0.00  0.00    +0.000 A 
ATOM      6  O   UNL     1       2.068   7.413  19.997  0.00  0.00    +0.000 OA
ATOM      7  N   UNL     1       1.930   5.149  19.876  0.00  0.00    +0.000 N 
ATOM      8  H   UNL     1       1.149   5.179  20.514  0.00  0.00    +0.000 HD
ENDROOT
BRANCH   3   9
ATOM      9  C   UNL     1       5.237   4.979  17.338  0.00  0.00    +0.000 A 
ATOM     10  C   UNL     1       5.166   5.246  15.965  0.00  0.00    +0.000 A 
ATOM     11  C   UNL     1       6.319   5.153  15.201  0.00  0.00    +0.000 A 
ATOM     12  N   UNL     1       7.528   4.826  15.701  0.00  0.00    +0.000 NA
ATOM     13  C   UNL     1       7.586   4.590  17.028  0.00  0.00    +0.000 A 
ATOM     14  C   UNL     1       6.489   4.653  17.872  0.00  0.00    +0.000 A 
ENDBRANCH   3   9
BRANCH   1  16
ATOM     15  C   UNL     1       1.287   2.846  21.326  0.00  0.00    +0.000 C 
ATOM     16  C   UNL     1       1.765   2.688  19.885  0.00  0.00    +0.000 C 
ATOM     17  C   UNL     1       0.623   2.268  18.966  0.00  0.00    +0.000 C 
ENDBRANCH   1  16
TORSDOF 2
ENDMDL
MODEL 8
REMARK VINA RESULT:      -6.7      1.830      3.201
REMARK  Name = 
REMARK  4 active torsions:
REMARK  status: ('A' for Active; 'I' for Inactive)
REMARK    1  A    between atoms: C_1  and  C_2
REMARK    2  A    between atoms: C_2  and  C_3
REMARK    3  A    between atoms: C_2  and  C_4
REMARK    4  A    between atoms: C_6  and  C_7
REMARK                            x       y       z     vdW  Elec       q    Type
REMARK                         _______ _______ _______ _____ _____    ______ ____
ROOT
ATOM      1  C   UNL     1       6.183   4.538  15.459  0.00  0.00    +0.000 A 
ATOM      2  N   UNL     1       5.030   4.163  15.909  0.00  0.00    +0.000 NA
ATOM      3  C   UNL     1       4.893   3.986  17.269  0.00  0.00    +0.000 A 
ATOM      4  C   UNL     1       5.899   4.160  18.137  0.00  0.00    +0.000 A 
ATOM      5  C   UNL     1       7.197   4.595  17.615  0.00  0.00    +0.000 A 
ATOM      6  O   UNL     1       8.147   4.819  18.357  0.00  0.00    +0.000 OA
ATOM      7  N   UNL     1       7.264   4.745  16.265  0.00  0.00    +0.000 N 
ATOM      8  H   UNL     1       8.151   5.058  15.898  0.00  0.00    +0.000 HD
ENDROOT
BRANCH   3   9
ATOM      9  C   UNL     1       3.548   3.579  17.761  0.00  0.00    +0.000 A 
ATOM     10  C   UNL     1       2.447   4.443  17.739  0.00  0.00    +0.000 A 
ATOM     11  C   UNL     1       1.219   3.979  18.188  0.00  0.00    +0.000 A 
ATOM     12  N   UNL     1       1.009   2.729  18.644  0.00  0.00    +0.000 NA
ATOM     13  C   UNL     1       2.075   1.901  18.643  0.00  0.00    +0.000 A 
ATOM     14  C   UNL     1       3.340   2.273  18.219  0.00  0.00    +0.000 A 
ENDBRANCH   3   9
BRANCH   1  16
ATOM     15  C   UNL     1       7.801   5.223  13.678  0.00  0.00    +0.000 C 
ATOM     16  C   UNL     1       6.366   4.792  13.968  0.00  0.00    +0.000 C 
ATOM     17  C   UNL     1       5.973   3.577  13.133  0.00  0.00    +0.000 C 
ENDBRANCH   1  16
TORSDOF 2
ENDMDL
MODEL 9
REMARK VINA RESULT:      -6.6      2.889      5.896
REMARK  Name = 
REMARK  4 active torsions:
REMARK  status: ('A' for Active; 'I' for Inactive)
REMARK    1  A    between atoms: C_1  and  C_2
REMARK    2  A    between atoms: C_2  and  C_3
REMARK    3  A    between atoms: C_2  and  C_4
REMARK    4  A    between atoms: C_6  and  C_7
REMARK                            x       y       z     vdW  Elec       q    Type
REMARK                         _______ _______ _______ _____ _____    ______ ____
ROOT
ATOM      1  C   UNL     1       1.982   4.387  19.635  0.00  0.00    +0.000 A 
ATOM      2  N   UNL     1       2.999   4.201  18.859  0.00  0.00    +0.000 NA
ATOM      3  C   UNL     1       3.750   5.299  18.500  0.00  0.00    +0.000 A 
ATOM      4  C   UNL     1       3.461   6.547  18.896  0.00  0.00    +0.000 A 
ATOM      5  C   UNL     1       2.312   6.743  19.783  0.00  0.00    +0.000 A 
ATOM      6  O   UNL     1       2.019   7.850  20.221  0.00  0.00    +0.000 OA
ATOM      7  N   UNL     1       1.612   5.619  20.093  0.00  0.00    +0.000 N 
ATOM      8  H   UNL     1       0.827   5.743  20.715  0.00  0.00    +0.000 HD
ENDROOT
BRANCH   3   9
ATOM      9  C   UNL     1       4.930   5.050  17.627  0.00  0.00    +0.000 A 
ATOM     10  C   UNL     1       4.913   4.111  16.590  0.00  0.00    +0.000 A 
ATOM     11  C   UNL     1       6.045   3.959  15.802  0.00  0.00    +0.000 A 
ATOM     12  N   UNL     1       7.175   4.673  15.965  0.00  0.00    +0.000 NA
ATOM     13  C   UNL     1       7.172   5.588  16.956  0.00  0.00    +0.000 A 
ATOM     14  C   UNL     1       6.093   5.810  17.798  0.00  0.00    +0.000 A 
ENDBRANCH   3   9
BRANCH   1  16
ATOM     15  C   UNL     1       1.170   2.099  19.032  0.00  0.00    +0.000 C 
ATOM     16  C   UNL     1       1.153   3.195  20.095  0.00  0.00    +0.000 C 
ATOM     17  C   UNL     1       1.622   2.664  21.445  0.00  0.00    +0.000 C 
ENDBRANCH   1  16
TORSDOF 2
ENDMDL
