MODEL 1
REMARK VINA RESULT:      -7.5      0.000      0.000
REMARK  Name = 
REMARK  7 active torsions:
REMARK  status: ('A' for Active; 'I' for Inactive)
REMARK    1  A    between atoms: C_1  and  C_2
REMARK    2  A    between atoms: C_2  and  C_3
REMARK    3  A    between atoms: C_2  and  C_4
REMARK    4  A    between atoms: C_4  and  C_5
REMARK    5  A    between atoms: C_5  and  O_6
REMARK    6  A    between atoms: O_6  and  C_7
REMARK    7  A    between atoms: C_9  and  C_10
REMARK                            x       y       z     vdW  Elec       q    Type
REMARK                         _______ _______ _______ _____ _____    ______ ____
ROOT
ATOM      1  C   UNL     1       5.029   4.493  18.470  0.00  0.00    +0.000 A 
ATOM      2  C   UNL     1       5.809   4.234  17.337  0.00  0.00    +0.000 A 
ATOM      3  C   UNL     1       5.785   5.098  16.236  0.00  0.00    +0.000 A 
ATOM      4  C   UNL     1       4.948   6.218  16.267  0.00  0.00    +0.000 A 
ATOM      5  C   UNL     1       4.121   6.472  17.374  0.00  0.00    +0.000 A 
ATOM      6  C   UNL     1       3.265   7.585  17.386  0.00  0.00    +0.000 A 
ATOM      7  C   UNL     1       2.433   7.841  18.476  0.00  0.00    +0.000 A 
ATOM      8  C   UNL     1       2.449   6.990  19.572  0.00  0.00    +0.000 A 
ATOM      9  C   UNL     1       3.300   5.885  19.581  0.00  0.00    +0.000 A 
ATOM     10  C   UNL     1       4.149   5.599  18.490  0.00  0.00    +0.000 A 
ENDROOT
BRANCH   3  11
ATOM     11  C   UNL     1       6.677   4.771  15.086  0.00  0.00    +0.000 C 
ATOM     12  N   UNL     1       6.369   3.701  14.293  0.00  0.00    +0.000 N 
ATOM     13  O   UNL     1       7.671   5.442  14.839  0.00  0.00    +0.000 OA
ATOM     14  H   UNL     1       5.575   3.091  14.410  0.00  0.00    +0.000 HD
ATOM     15  H   UNL     1       6.998   3.514  13.524  0.00  0.00    +0.000 HD
ENDBRANCH   3  11
BRANCH   1  16
ATOM     16  O   UNL     1       5.056   3.707  19.599  0.00  0.00    +0.000 OA
BRANCH  16  17
ATOM     17  C   UNL     1       4.390   2.444  19.500  0.00  0.00    +0.000 C 
BRANCH  17  18
ATOM     18  C   UNL     1       3.152   2.482  20.393  0.00  0.00    +0.000 C 
BRANCH  18  20
ATOM     19  C   UNL     1       0.820   3.365  20.076  0.00  0.00    +0.000 C 
ATOM     20  C   UNL     1       1.837   2.321  19.613  0.00  0.00    +0.000 C 
ATOM     21  C   UNL     1       2.039   2.431  18.101  0.00  0.00    +0.000 C 
ENDBRANCH  18  20
ENDBRANCH  17  18
ENDBRANCH  16  17
ENDBRANCH   1  16
TORSDOF 5
ENDMDL
MODEL 2
REMARK VINA RESULT:      -7.2      2.505      4.087
REMARK  Name = 
REMARK  7 active torsions:
REMARK  status: ('A' for Active; 'I' for Inactive)
REMARK    1  A    between atoms: C_1  and  C_2
REMARK    2  A    between atoms: C_2  and  C_3
REMARK    3  A    between atoms: C_2  and  C_4
REMARK    4  A    between atoms: C_4  and  C_5
REMARK    5  A    between atoms: C_5  and  O_6
REMARK    6  A    between atoms: O_6  and  C_7
REMARK    7  A    between atoms: C_9  and  C_10
REMARK                            x       y       z     vdW  Elec       q    Type
REMARK                         _______ _______ _______ _____ _____    ______ ____
ROOT
ATOM      1  C   UNL     1       4.635   4.531  18.931  0.00  0.00    +0.000 A 
ATOM      2  C   UNL     1       3.743   5.397  19.573  0.00  0.00    +0.000 A 
ATOM      3  C   UNL     1       3.254   6.535  18.922  0.00  0.00    +0.000 A 
ATOM      4  C   UNL     1       3.689   6.818  17.624  0.00  0.00    +0.000 A 
ATOM      5  C   UNL     1       4.621   5.989  16.977  0.00  0.00    +0.000 A 
ATOM      6  C   UNL     1       5.071   6.294  15.682  0.00  0.00    +0.000 A 
ATOM      7  C   UNL     1       6.004   5.483  15.035  0.00  0.00    +0.000 A 
ATOM      8  C   UNL     1       6.495   4.351  15.672  0.00  0.00    +0.000 A 
ATOM      9  C   UNL     1       6.051   4.028  16.955  0.00  0.00    +0.000 A 
ATOM     10  C   UNL     1       5.112   4.834  17.634  0.00  0.00    +0.000 A 
ENDROOT
BRANCH   3  11
ATOM     11  C   UNL     1       2.275   7.382  19.663  0.00  0.00    +0.000 C 
ATOM     12  N   UNL     1       1.862   6.987  20.904  0.00  0.00    +0.000 N 
ATOM     13  O   UNL     1       1.840   8.423  19.184  0.00  0.00    +0.000 OA
ATOM     14  H   UNL     1       2.162   6.154  21.386  0.00  0.00    +0.000 HD
ATOM     15  H   UNL     1       1.200   7.589  21.373  0.00  0.00    +0.000 HD
ENDBRANCH   3  11
BRANCH   1  16
ATOM     16  O   UNL     1       5.104   3.371  19.504  0.00  0.00    +0.000 OA
BRANCH  16  17
ATOM     17  C   UNL     1       4.113   2.501  20.059  0.00  0.00    +0.000 C 
BRANCH  17  18
ATOM     18  C   UNL     1       3.270   1.940  18.916  0.00  0.00    +0.000 C 
BRANCH  18  20
ATOM     19  C   UNL     1       1.459   2.638  20.512  0.00  0.00    +0.000 C 
ATOM     20  C   UNL     1       1.769   2.232  19.071  0.00  0.00    +0.000 C 
ATOM     21  C   UNL     1       1.285   3.320  18.111  0.00  0.00    +0.000 C 
ENDBRANCH  18  20
ENDBRANCH  17  18
ENDBRANCH  16  17
ENDBRANCH   1  16
TORSDOF 5
ENDMDL
MODEL 3
REMARK VINA RESULT:      -7.1      0.874      1.107
REMARK  Name = 
REMARK  7 active torsions:
REMARK  status: ('A' for Active; 'I' for Inactive)
REMARK    1  A    between atoms: C_1  and  C_2
REMARK    2  A    between atoms: C_2  and  C_3
REMARK    3  A    between atoms: C_2  and  C_4
REMARK    4  A    between atoms: C_4  and  C_5
REMARK    5  A    between atoms: C_5  and  O_6
REMARK    6  A    between atoms: O_6  and  C_7
REMARK    7  A    between atoms: C_9  and  C_10
REMARK                            x       y       z     vdW  Elec       q    Type
REMARK                         _______ _______ _______ _____ _____    ______ ____
ROOT
ATOM      1  C   UNL     1       4.650   4.178  17.701  0.00  0.00    +0.000 A 
ATOM      2  C   UNL     1       5.483   3.973  16.595  0.00  0.00    +0.000 A 
ATOM      3  C   UNL     1       5.751   5.012  15.697  0.00  0.00    +0.000 A 
ATOM      4  C   UNL     1       5.155   6.260  15.900  0.00  0.00    +0.000 A 
ATOM      5  C   UNL     1       4.278   6.475  16.977  0.00  0.00    +0.000 A 
ATOM      6  C   UNL     1       3.663   7.725  17.159  0.00  0.00    +0.000 A 
ATOM      7  C   UNL     1       2.784   7.946  18.220  0.00  0.00    +0.000 A 
ATOM      8  C   UNL     1       2.511   6.921  19.116  0.00  0.00    +0.000 A 
ATOM      9  C   UNL     1       3.120   5.677  18.955  0.00  0.00    +0.000 A 
ATOM     10  C   UNL     1       4.010   5.424  17.888  0.00  0.00    +0.000 A 
ENDROOT
BRANCH   3  11
ATOM     11  C   UNL     1       6.682   4.720  14.568  0.00  0.00    +0.000 C 
ATOM     12  N   UNL     1       6.425   3.650  13.758  0.00  0.00    +0.000 N 
ATOM     13  O   UNL     1       7.663   5.422  14.352  0.00  0.00    +0.000 OA
ATOM     14  H   UNL     1       5.646   3.017  13.848  0.00  0.00    +0.000 HD
ATOM     15  H   UNL     1       7.079   3.488  13.004  0.00  0.00    +0.000 HD
ENDBRANCH   3  11
BRANCH   1  16
ATOM     16  O   UNL     1       4.397   3.207  18.643  0.00  0.00    +0.000 OA
BRANCH  16  17
ATOM     17  C   UNL     1       3.584   2.111  18.212  0.00  0.00    +0.000 C 
BRANCH  17  18
ATOM     18  C   UNL     1       2.700   1.679  19.379  0.00  0.00    +0.000 C 
BRANCH  18  20
ATOM     19  C   UNL     1       0.471   2.800  19.075  0.00  0.00    +0.000 C 
ATOM     20  C   UNL     1       1.771   2.797  19.880  0.00  0.00    +0.000 C 
ATOM     21  C   UNL     1       1.455   2.668  21.371  0.00  0.00    +0.000 C 
ENDBRANCH  18  20
ENDBRANCH  17  18
ENDBRANCH  16  17
ENDBRANCH   1  16
TORSDOF 5
ENDMDL
MODEL 4
REMARK VINA RESULT:      -7.1      0.879      1.147
REMARK  Name = 
REMARK  7 active torsions:
REMARK  status: ('A' for Active; 'I' for Inactive)
REMARK    1  A    between atoms: C_1  and  C_2
REMARK    2  A    between atoms: C_2  and  C_3
REMARK    3  A    between atoms: C_2  and  C_4
REMARK    4  A    between atoms: C_4  and  C_5
REMARK    5  A    between atoms: C_5  and  O_6
REMARK    6  A    between atoms: O_6  and  C_7
REMARK    7  A    between atoms: C_9  and  C_10
REMARK                            x       y       z     vdW  Elec       q    Type
REMARK                         _______ _______ _______ _____ _____    ______ ____
ROOT
ATOM      1  C   UNL     1       4.733   4.514  18.611  0.00  0.00    +0.000 A 
ATOM      2  C   UNL     1       5.529   4.202  17.503  0.00  0.00    +0.000 A 
ATOM      3  C   UNL     1       5.593   5.064  16.401  0.00  0.00    +0.000 A 
ATOM      4  C   UNL     1       4.828   6.234  16.405  0.00  0.00    +0.000 A 
ATOM      5  C   UNL     1       3.986   6.543  17.486  0.00  0.00    +0.000 A 
ATOM      6  C   UNL     1       3.202   7.708  17.471  0.00  0.00    +0.000 A 
ATOM      7  C   UNL     1       2.355   8.020  18.535  0.00  0.00    +0.000 A 
ATOM      8  C   UNL     1       2.284   7.172  19.632  0.00  0.00    +0.000 A 
ATOM      9  C   UNL     1       3.063   6.015  19.668  0.00  0.00    +0.000 A 
ATOM     10  C   UNL     1       3.925   5.674  18.603  0.00  0.00    +0.000 A 
ENDROOT
BRANCH   3  11
ATOM     11  C   UNL     1       6.497   4.677  15.279  0.00  0.00    +0.000 C 
ATOM     12  N   UNL     1       7.614   5.427  15.040  0.00  0.00    +0.000 N 
ATOM     13  O   UNL     1       6.260   3.702  14.576  0.00  0.00    +0.000 OA
ATOM     14  H   UNL     1       7.899   6.241  15.561  0.00  0.00    +0.000 HD
ATOM     15  H   UNL     1       8.201   5.130  14.271  0.00  0.00    +0.000 HD
ENDBRANCH   3  11
BRANCH   1  16
ATOM     16  O   UNL     1       4.676   3.730  19.741  0.00  0.00    +0.000 OA
BRANCH  16  17
ATOM     17  C   UNL     1       4.237   2.382  19.548  0.00  0.00    +0.000 C 
BRANCH  17  18
ATOM     18  C   UNL     1       2.797   2.413  19.039  0.00  0.00    +0.000 C 
BRANCH  18  20
ATOM     19  C   UNL     1       2.442   2.650  21.515  0.00  0.00    +0.000 C 
ATOM     20  C   UNL     1       1.755   2.418  20.169  0.00  0.00    +0.000 C 
ATOM     21  C   UNL     1       0.667   3.472  19.954  0.00  0.00    +0.000 C 
ENDBRANCH  18  20
ENDBRANCH  17  18
ENDBRANCH  16  17
ENDBRANCH   1  16
TORSDOF 5
ENDMDL
MODEL 5
REMARK VINA RESULT:      -7.0      2.800      5.155
REMARK  Name = 
REMARK  7 active torsions:
REMARK  status: ('A' for Active; 'I' for Inactive)
REMARK    1  A    between atoms: C_1  and  C_2
REMARK    2  A    between atoms: C_2  and  C_3
REMARK    3  A    between atoms: C_2  and  C_4
REMARK    4  A    between atoms: C_4  and  C_5
REMARK    5  A    between atoms: C_5  and  O_6
REMARK    6  A    between atoms: O_6  and  C_7
REMARK    7  A    between atoms: C_9  and  C_10
REMARK                            x       y       z     vdW  Elec       q    Type
REMARK                         _______ _______ _______ _____ _____    ______ ____
ROOT
ATOM      1  C   UNL     1       5.265   4.474  16.692  0.00  0.00    +0.000 A 
ATOM      2  C   UNL     1       6.401   5.080  17.239  0.00  0.00    +0.000 A 
ATOM      3  C   UNL     1       6.493   5.322  18.615  0.00  0.00    +0.000 A 
ATOM      4  C   UNL     1       5.420   4.975  19.441  0.00  0.00    +0.000 A 
ATOM      5  C   UNL     1       4.250   4.409  18.907  0.00  0.00    +0.000 A 
ATOM      6  C   UNL     1       3.167   4.086  19.741  0.00  0.00    +0.000 A 
ATOM      7  C   UNL     1       1.997   3.532  19.219  0.00  0.00    +0.000 A 
ATOM      8  C   UNL     1       1.897   3.288  17.856  0.00  0.00    +0.000 A 
ATOM      9  C   UNL     1       2.967   3.594  17.015  0.00  0.00    +0.000 A 
ATOM     10  C   UNL     1       4.159   4.159  17.515  0.00  0.00    +0.000 A 
ENDROOT
BRANCH   3  11
ATOM     11  C   UNL     1       7.755   5.935  19.122  0.00  0.00    +0.000 C 
ATOM     12  N   UNL     1       8.427   5.321  20.140  0.00  0.00    +0.000 N 
ATOM     13  O   UNL     1       8.199   6.971  18.641  0.00  0.00    +0.000 OA
ATOM     14  H   UNL     1       8.148   4.468  20.599  0.00  0.00    +0.000 HD
ATOM     15  H   UNL     1       9.278   5.768  20.453  0.00  0.00    +0.000 HD
ENDBRANCH   3  11
BRANCH   1  16
ATOM     16  O   UNL     1       5.146   4.164  15.356  0.00  0.00    +0.000 OA
BRANCH  16  17
ATOM     17  C   UNL     1       6.368   3.891  14.664  0.00  0.00    +0.000 C 
BRANCH  17  18
ATOM     18  C   UNL     1       6.154   4.177  13.179  0.00  0.00    +0.000 C 
BRANCH  18  20
ATOM     19  C   UNL     1       4.444   3.358  11.529  0.00  0.00    +0.000 C 
ATOM     20  C   UNL     1       5.639   2.959  12.396  0.00  0.00    +0.000 C 
ATOM     21  C   UNL     1       6.723   2.327  11.521  0.00  0.00    +0.000 C 
ENDBRANCH  18  20
ENDBRANCH  17  18
ENDBRANCH  16  17
ENDBRANCH   1  16
TORSDOF 5
ENDMDL
MODEL 6
REMARK VINA RESULT:      -7.0      0.927      1.151
REMARK  Name = 
REMARK  7 active torsions:
REMARK  status: ('A' for Active; 'I' for Inactive)
REMARK    1  A    between atoms: C_1  and  C_2
REMARK    2  A    between atoms: C_2  and  C_3
REMARK    3  A    between atoms: C_2  and  C_4
REMARK    4  A    between atoms: C_4  and  C_5
REMARK    5  A    between atoms: C_5  and  O_6
REMARK    6  A    between atoms: O_6  and  C_7
REMARK    7  A    between atoms: C_9  and  C_10
REMARK                            x       y       z     vdW  Elec       q    Type
REMARK                         _______ _______ _______ _____ _____    ______ ____
ROOT
ATOM      1  C   UNL     1       4.534   4.824  18.749  0.00  0.00    +0.000 A 
ATOM      2  C   UNL     1       5.508   4.526  17.790  0.00  0.00    +0.000 A 
ATOM      3  C   UNL     1       5.772   5.410  16.737  0.00  0.00    +0.000 A 
ATOM      4  C   UNL     1       5.029   6.590  16.634  0.00  0.00    +0.000 A 
ATOM      5  C   UNL     1       4.013   6.887  17.559  0.00  0.00    +0.000 A 
ATOM      6  C   UNL     1       3.255   8.062  17.434  0.00  0.00    +0.000 A 
ATOM      7  C   UNL     1       2.238   8.362  18.341  0.00  0.00    +0.000 A 
ATOM      8  C   UNL     1       1.968   7.492  19.389  0.00  0.00    +0.000 A 
ATOM      9  C   UNL     1       2.719   6.324  19.533  0.00  0.00    +0.000 A 
ATOM     10  C   UNL     1       3.750   5.994  18.627  0.00  0.00    +0.000 A 
ENDROOT
BRANCH   3  11
ATOM     11  C   UNL     1       6.854   5.035  15.781  0.00  0.00    +0.000 C 
ATOM     12  N   UNL     1       6.690   5.312  14.453  0.00  0.00    +0.000 N 
ATOM     13  O   UNL     1       7.883   4.491  16.163  0.00  0.00    +0.000 OA
ATOM     14  H   UNL     1       5.887   5.759  14.040  0.00  0.00    +0.000 HD
ATOM     15  H   UNL     1       7.448   5.044  13.839  0.00  0.00    +0.000 HD
ENDBRANCH   3  11
BRANCH   1  16
ATOM     16  O   UNL     1       4.273   4.018  19.833  0.00  0.00    +0.000 OA
BRANCH  16  17
ATOM     17  C   UNL     1       4.367   2.608  19.604  0.00  0.00    +0.000 C 
BRANCH  17  18
ATOM     18  C   UNL     1       2.953   2.045  19.485  0.00  0.00    +0.000 C 
BRANCH  18  20
ATOM     19  C   UNL     1       0.608   2.921  19.259  0.00  0.00    +0.000 C 
ATOM     20  C   UNL     1       1.882   2.960  20.103  0.00  0.00    +0.000 C 
ATOM     21  C   UNL     1       1.556   2.582  21.549  0.00  0.00    +0.000 C 
ENDBRANCH  18  20
ENDBRANCH  17  18
ENDBRANCH  16  17
ENDBRANCH   1  16
TORSDOF 5
ENDMDL
MODEL 7
REMARK VINA RESULT:      -6.9      2.737      4.377
REMARK  Name = 
REMARK  7 active torsions:
REMARK  status: ('A' for Active; 'I' for Inactive)
REMARK    1  A    between atoms: C_1  and  C_2
REMARK    2  A    between atoms: C_2  and  C_3
REMARK    3  A    between atoms: C_2  and  C_4
REMARK    4  A    between atoms: C_4  and  C_5
REMARK    5  A    between atoms: C_5  and  O_6
REMARK    6  A    between atoms: O_6  and  C_7
REMARK    7  A    between atoms: C_9  and  C_10
REMARK                            x       y       z     vdW  Elec       q    Type
REMARK                         _______ _______ _______ _____ _____    ______ ____
ROOT
ATOM      1  C   UNL     1       3.005   4.442  17.293  0.00  0.00    +0.000 A 
ATOM      2  C   UNL     1       2.377   5.424  18.068  0.00  0.00    +0.000 A 
ATOM      3  C   UNL     1       2.991   6.661  18.296  0.00  0.00    +0.000 A 
ATOM      4  C   UNL     1       4.262   6.900  17.762  0.00  0.00    +0.000 A 
ATOM      5  C   UNL     1       4.932   5.911  17.022  0.00  0.00    +0.000 A 
ATOM      6  C   UNL     1       6.218   6.151  16.510  0.00  0.00    +0.000 A 
ATOM      7  C   UNL     1       6.896   5.173  15.782  0.00  0.00    +0.000 A 
ATOM      8  C   UNL     1       6.295   3.943  15.550  0.00  0.00    +0.000 A 
ATOM      9  C   UNL     1       5.014   3.692  16.043  0.00  0.00    +0.000 A 
ATOM     10  C   UNL     1       4.307   4.662  16.787  0.00  0.00    +0.000 A 
ENDROOT
BRANCH   3  11
ATOM     11  C   UNL     1       2.235   7.666  19.098  0.00  0.00    +0.000 C 
ATOM     12  N   UNL     1       2.050   7.443  20.434  0.00  0.00    +0.000 N 
ATOM     13  O   UNL     1       1.784   8.682  18.585  0.00  0.00    +0.000 OA
ATOM     14  H   UNL     1       2.383   6.643  20.949  0.00  0.00    +0.000 HD
ATOM     15  H   UNL     1       1.533   8.149  20.941  0.00  0.00    +0.000 HD
ENDBRANCH   3  11
BRANCH   1  16
ATOM     16  O   UNL     1       2.423   3.232  16.993  0.00  0.00    +0.000 OA
BRANCH  16  17
ATOM     17  C   UNL     1       2.639   2.180  17.939  0.00  0.00    +0.000 C 
BRANCH  17  18
ATOM     18  C   UNL     1       1.433   2.120  18.874  0.00  0.00    +0.000 C 
BRANCH  18  20
ATOM     19  C   UNL     1       3.289   2.623  20.492  0.00  0.00    +0.000 C 
ATOM     20  C   UNL     1       1.775   2.488  20.327  0.00  0.00    +0.000 C 
ATOM     21  C   UNL     1       1.089   3.779  20.778  0.00  0.00    +0.000 C 
ENDBRANCH  18  20
ENDBRANCH  17  18
ENDBRANCH  16  17
ENDBRANCH   1  16
TORSDOF 5
ENDMDL
MODEL 8
REMARK VINA RESULT:      -6.9      2.413      5.106
REMARK  Name = 
REMARK  7 active torsions:
REMARK  status: ('A' for Active; 'I' for Inactive)
REMARK    1  A    between atoms: C_1  and  C_2
REMARK    2  A    between atoms: C_2  and  C_3
REMARK    3  A    between atoms: C_2  and  C_4
REMARK    4  A    between atoms: C_4  and  C_5
REMARK    5  A    between atoms: C_5  and  O_6
REMARK    6  A    between atoms: O_6  and  C_7
REMARK    7  A    between atoms: C_9  and  C_10
REMARK                            x       y       z     vdW  Elec       q    Type
REMARK                         _______ _______ _______ _____ _____    ______ ____
ROOT
ATOM      1  C   UNL     1       3.917   5.393  17.797  0.00  0.00    +0.000 A 
ATOM      2  C   UNL     1       4.177   4.208  18.493  0.00  0.00    +0.000 A 
ATOM      3  C   UNL     1       3.618   3.981  19.757  0.00  0.00    +0.000 A 
ATOM      4  C   UNL     1       2.814   4.969  20.334  0.00  0.00    +0.000 A 
ATOM      5  C   UNL     1       2.579   6.187  19.673  0.00  0.00    +0.000 A 
ATOM      6  C   UNL     1       1.790   7.183  20.270  0.00  0.00    +0.000 A 
ATOM      7  C   UNL     1       1.559   8.399  19.627  0.00  0.00    +0.000 A 
ATOM      8  C   UNL     1       2.109   8.634  18.374  0.00  0.00    +0.000 A 
ATOM      9  C   UNL     1       2.886   7.651  17.762  0.00  0.00    +0.000 A 
ATOM     10  C   UNL     1       3.141   6.413  18.392  0.00  0.00    +0.000 A 
ENDROOT
BRANCH   3  11
ATOM     11  C   UNL     1       3.912   2.674  20.413  0.00  0.00    +0.000 C 
ATOM     12  N   UNL     1       4.881   1.870  19.883  0.00  0.00    +0.000 N 
ATOM     13  O   UNL     1       3.306   2.313  21.415  0.00  0.00    +0.000 OA
ATOM     14  H   UNL     1       5.436   2.076  19.067  0.00  0.00    +0.000 HD
ATOM     15  H   UNL     1       5.050   0.994  20.359  0.00  0.00    +0.000 HD
ENDBRANCH   3  11
BRANCH   1  16
ATOM     16  O   UNL     1       4.397   5.643  16.531  0.00  0.00    +0.000 OA
BRANCH  16  17
ATOM     17  C   UNL     1       5.820   5.667  16.392  0.00  0.00    +0.000 C 
BRANCH  17  18
ATOM     18  C   UNL     1       6.328   7.023  16.878  0.00  0.00    +0.000 C 
BRANCH  18  20
ATOM     19  C   UNL     1       8.149   8.335  18.010  0.00  0.00    +0.000 C 
ATOM     20  C   UNL     1       7.671   6.935  17.622  0.00  0.00    +0.000 C 
ATOM     21  C   UNL     1       7.591   6.052  18.868  0.00  0.00    +0.000 C 
ENDBRANCH  18  20
ENDBRANCH  17  18
ENDBRANCH  16  17
ENDBRANCH   1  16
TORSDOF 5
ENDMDL
MODEL 9
REMARK VINA RESULT:      -6.9      3.043      5.518
REMARK  Name = 
REMARK  7 active torsions:
REMARK  status: ('A' for Active; 'I' for Inactive)
REMARK    1  A    between atoms: C_1  and  C_2
REMARK    2  A    between atoms: C_2  and  C_3
REMARK    3  A    between atoms: C_2  and  C_4
REMARK    4  A    between atoms: C_4  and  C_5
REMARK    5  A    between atoms: C_5  and  O_6
REMARK    6  A    between atoms: O_6  and  C_7
REMARK    7  A    between atoms: C_9  and  C_10
REMARK                            x       y       z     vdW  Elec       q    Type
REMARK                         _______ _______ _______ _____ _____    ______ ____
ROOT
ATOM      1  C   UNL     1       4.058   5.336  18.123  0.00  0.00    +0.000 A 
ATOM      2  C   UNL     1       3.515   6.603  17.882  0.00  0.00    +0.000 A 
ATOM      3  C   UNL     1       2.523   7.129  18.716  0.00  0.00    +0.000 A 
ATOM      4  C   UNL     1       2.054   6.361  19.786  0.00  0.00    +0.000 A 
ATOM      5  C   UNL     1       2.550   5.067  20.019  0.00  0.00    +0.000 A 
ATOM      6  C   UNL     1       2.056   4.292  21.082  0.00  0.00    +0.000 A 
ATOM      7  C   UNL     1       2.536   3.003  21.316  0.00  0.00    +0.000 A 
ATOM      8  C   UNL     1       3.520   2.472  20.493  0.00  0.00    +0.000 A 
ATOM      9  C   UNL     1       4.029   3.232  19.439  0.00  0.00    +0.000 A 
ATOM     10  C   UNL     1       3.559   4.537  19.177  0.00  0.00    +0.000 A 
ENDROOT
BRANCH   3  11
ATOM     11  C   UNL     1       2.027   8.503  18.413  0.00  0.00    +0.000 C 
ATOM     12  N   UNL     1       1.304   9.171  19.360  0.00  0.00    +0.000 N 
ATOM     13  O   UNL     1       2.260   9.042  17.337  0.00  0.00    +0.000 OA
ATOM     14  H   UNL     1       1.064   8.819  20.273  0.00  0.00    +0.000 HD
ATOM     15  H   UNL     1       0.989  10.100  19.115  0.00  0.00    +0.000 HD
ENDBRANCH   3  11
BRANCH   1  16
ATOM     16  O   UNL     1       5.072   4.794  17.367  0.00  0.00    +0.000 OA
BRANCH  16  17
ATOM     17  C   UNL     1       5.582   5.621  16.316  0.00  0.00    +0.000 C 
BRANCH  17  18
ATOM     18  C   UNL     1       7.037   5.959  16.633  0.00  0.00    +0.000 C 
BRANCH  18  20
ATOM     19  C   UNL     1       7.911   5.990  18.989  0.00  0.00    +0.000 C 
ATOM     20  C   UNL     1       7.199   6.804  17.907  0.00  0.00    +0.000 C 
ATOM     21  C   UNL     1       7.961   8.105  17.652  0.00  0.00    +0.000 C 
ENDBRANCH  18  20
ENDBRANCH  17  18
ENDBRANCH  16  17
ENDBRANCH   1  16
TORSDOF 5
ENDMDL
