MODEL 1
REMARK VINA RESULT:      -8.1      0.000      0.000
REMARK  Name = 
REMARK  9 active torsions:
REMARK  status: ('A' for Active; 'I' for Inactive)
REMARK    1  A    between atoms: C_1  and  C_2
REMARK    2  A    between atoms: C_2  and  C_3
REMARK    3  A    between atoms: C_3  and  C_4
REMARK    4  A    between atoms: C_4  and  C_5
REMARK    5  A    between atoms: C_5  and  O_6
REMARK    6  A    between atoms: O_6  and  C_7
REMARK    7  A    between atoms: C_7  and  C_9
REMARK    8  A    between atoms: C_12  and  N_13
REMARK    9  A    between atoms: N_16  and  C_17
REMARK                            x       y       z     vdW  Elec       q    Type
REMARK                         _______ _______ _______ _____ _____    ______ ____
ROOT
ATOM      1  N   UNL     1       7.310   7.971  17.343  0.00  0.00    +0.000 N 
ATOM      2  C   UNL     1       8.177   8.651  18.058  0.00  0.00    +0.000 C 
ATOM      3  O   UNL     1       8.962   8.096  18.905  0.00  0.00    +0.000 OA
ATOM      4  N   UNL     1       8.190   9.918  17.872  0.00  0.00    +0.000 N 
ATOM      5  H   UNL     1       6.958   8.458  16.511  0.00  0.00    +0.000 HD
ATOM      6  H   UNL     1       7.250  10.286  17.825  0.00  0.00    +0.000 HD
ENDROOT
BRANCH   4   7
ATOM      7  C   UNL     1       9.180  10.819  18.361  0.00  0.00    +0.000 C 
ATOM      8  C   UNL     1      10.660  10.982  17.858  0.00  0.00    +0.000 C 
ATOM      9  C   UNL     1      11.091  12.579  18.522  0.00  0.00    +0.000 C 
ATOM     10  C   UNL     1       9.882  13.827  18.390  0.00  0.00    +0.000 C 
ATOM     11  C   UNL     1       8.579  13.135  18.706  0.00  0.00    +0.000 C 
ATOM     12  C   UNL     1       8.784  12.906  20.219  0.00  0.00    +0.000 C 
ATOM     13  C   UNL     1       9.908  11.898  20.573  0.00  0.00    +0.000 C 
ATOM     14  C   UNL     1      11.294  12.045  19.926  0.00  0.00    +0.000 C 
ATOM     15  C   UNL     1       9.395  10.598  19.971  0.00  0.00    +0.000 C 
ATOM     16  C   UNL     1       8.735  12.052  17.683  0.00  0.00    +0.000 C 
ENDBRANCH   4   7
BRANCH   1  20
ATOM     17  C   UNL     1       4.542   5.713  16.694  0.00  0.00    +0.000 C 
ATOM     18  C   UNL     1       4.877   6.391  18.024  0.00  0.00    +0.000 C 
ATOM     19  C   UNL     1       6.323   6.134  18.455  0.00  0.00    +0.000 C 
ATOM     20  C   UNL     1       7.302   6.531  17.358  0.00  0.00    +0.000 C 
ATOM     21  C   UNL     1       6.951   5.954  15.984  0.00  0.00    +0.000 C 
ATOM     22  C   UNL     1       5.498   6.223  15.597  0.00  0.00    +0.000 C 
BRANCH  17  23
ATOM     23  C   UNL     1       4.602   4.195  16.860  0.00  0.00    +0.000 C 
ATOM     24  O   UNL     1       5.237   3.430  16.149  0.00  0.00    +0.000 OA
BRANCH  23  25
ATOM     25  O   UNL     1       3.801   3.803  17.891  0.00  0.00    +0.000 OA
BRANCH  25  26
ATOM     26  C   UNL     1       2.619   3.116  17.462  0.00  0.00    +0.000 C 
BRANCH  26  27
ATOM     27  C   UNL     1       1.378   3.720  18.100  0.00  0.00    +0.000 C 
BRANCH  27  28
ATOM     28  C   UNL     1       0.906   2.878  19.283  0.00  0.00    +0.000 C 
BRANCH  28  30
ATOM     29  C   UNL     1       1.897   2.795  21.588  0.00  0.00    +0.000 C 
ATOM     30  C   UNL     1       1.086   3.621  20.604  0.00  0.00    +0.000 C 
ENDBRANCH  28  30
ENDBRANCH  27  28
ENDBRANCH  26  27
ENDBRANCH  25  26
ENDBRANCH  23  25
ENDBRANCH  17  23
ENDBRANCH   1  20
TORSDOF 8
ENDMDL
MODEL 2
REMARK VINA RESULT:      -7.6      5.248      7.468
REMARK  Name = 
REMARK  9 active torsions:
REMARK  status: ('A' for Active; 'I' for Inactive)
REMARK    1  A    between atoms: C_1  and  C_2
REMARK    2  A    between atoms: C_2  and  C_3
REMARK    3  A    between atoms: C_3  and  C_4
REMARK    4  A    between atoms: C_4  and  C_5
REMARK    5  A    between atoms: C_5  and  O_6
REMARK    6  A    between atoms: O_6  and  C_7
REMARK    7  A    between atoms: C_7  and  C_9
REMARK    8  A    between atoms: C_12  and  N_13
REMARK    9  A    between atoms: N_16  and  C_17
REMARK                            x       y       z     vdW  Elec       q    Type
REMARK                         _______ _______ _______ _____ _____    ______ ____
ROOT
ATOM      1  N   UNL     1       2.171   7.516  18.944  0.00  0.00    +0.000 N 
ATOM      2  C   UNL     1       1.672   8.683  18.607  0.00  0.00    +0.000 C 
ATOM      3  O   UNL     1       1.629   9.093  17.394  0.00  0.00    +0.000 OA
ATOM      4  N   UNL     1       1.234   9.407  19.569  0.00  0.00    +0.000 N 
ATOM      5  H   UNL     1       1.890   7.175  19.870  0.00  0.00    +0.000 HD
ATOM      6  H   UNL     1       1.873   9.394  20.351  0.00  0.00    +0.000 HD
ENDROOT
BRANCH   4   7
ATOM      7  C   UNL     1       0.458  10.594  19.428  0.00  0.00    +0.000 C 
ATOM      8  C   UNL     1      -0.783  10.822  18.490  0.00  0.00    +0.000 C 
ATOM      9  C   UNL     1      -1.521  12.271  19.220  0.00  0.00    +0.000 C 
ATOM     10  C   UNL     1      -1.605  12.308  20.960  0.00  0.00    +0.000 C 
ATOM     11  C   UNL     1      -0.282  11.745  21.420  0.00  0.00    +0.000 C 
ATOM     12  C   UNL     1       0.636  12.919  21.017  0.00  0.00    +0.000 C 
ATOM     13  C   UNL     1       0.767  13.141  19.488  0.00  0.00    +0.000 C 
ATOM     14  C   UNL     1      -0.497  13.211  18.618  0.00  0.00    +0.000 C 
ATOM     15  C   UNL     1       1.425  11.852  19.016  0.00  0.00    +0.000 C 
ATOM     16  C   UNL     1      -0.382  10.474  20.635  0.00  0.00    +0.000 C 
ENDBRANCH   4   7
BRANCH   1  20
ATOM     17  C   UNL     1       3.496   4.167  19.403  0.00  0.00    +0.000 C 
ATOM     18  C   UNL     1       4.290   5.475  19.417  0.00  0.00    +0.000 C 
ATOM     19  C   UNL     1       4.048   6.311  18.159  0.00  0.00    +0.000 C 
ATOM     20  C   UNL     1       2.561   6.558  17.941  0.00  0.00    +0.000 C 
ATOM     21  C   UNL     1       1.710   5.287  18.017  0.00  0.00    +0.000 C 
ATOM     22  C   UNL     1       1.990   4.476  19.281  0.00  0.00    +0.000 C 
BRANCH  17  23
ATOM     23  C   UNL     1       4.001   3.270  18.274  0.00  0.00    +0.000 C 
ATOM     24  O   UNL     1       3.457   2.247  17.886  0.00  0.00    +0.000 OA
BRANCH  23  25
ATOM     25  O   UNL     1       5.181   3.747  17.785  0.00  0.00    +0.000 OA
BRANCH  25  26
ATOM     26  C   UNL     1       5.247   3.741  16.354  0.00  0.00    +0.000 C 
BRANCH  26  27
ATOM     27  C   UNL     1       6.610   4.212  15.871  0.00  0.00    +0.000 C 
BRANCH  27  28
ATOM     28  C   UNL     1       7.444   4.752  17.030  0.00  0.00    +0.000 C 
BRANCH  28  30
ATOM     29  C   UNL     1       7.821   6.784  18.455  0.00  0.00    +0.000 C 
ATOM     30  C   UNL     1       7.404   6.277  17.084  0.00  0.00    +0.000 C 
ENDBRANCH  28  30
ENDBRANCH  27  28
ENDBRANCH  26  27
ENDBRANCH  25  26
ENDBRANCH  23  25
ENDBRANCH  17  23
ENDBRANCH   1  20
TORSDOF 8
ENDMDL
MODEL 3
REMARK VINA RESULT:      -7.5      5.367      7.606
REMARK  Name = 
REMARK  9 active torsions:
REMARK  status: ('A' for Active; 'I' for Inactive)
REMARK    1  A    between atoms: C_1  and  C_2
REMARK    2  A    between atoms: C_2  and  C_3
REMARK    3  A    between atoms: C_3  and  C_4
REMARK    4  A    between atoms: C_4  and  C_5
REMARK    5  A    between atoms: C_5  and  O_6
REMARK    6  A    between atoms: O_6  and  C_7
REMARK    7  A    between atoms: C_7  and  C_9
REMARK    8  A    between atoms: C_12  and  N_13
REMARK    9  A    between atoms: N_16  and  C_17
REMARK                            x       y       z     vdW  Elec       q    Type
REMARK                         _______ _______ _______ _____ _____    ______ ____
ROOT
ATOM      1  N   UNL     1       2.276   7.493  18.916  0.00  0.00    +0.000 N 
ATOM      2  C   UNL     1       1.778   8.662  18.585  0.00  0.00    +0.000 C 
ATOM      3  O   UNL     1       1.784   9.100  17.381  0.00  0.00    +0.000 OA
ATOM      4  N   UNL     1       1.290   9.358  19.542  0.00  0.00    +0.000 N 
ATOM      5  H   UNL     1       1.958   7.127  19.822  0.00  0.00    +0.000 HD
ATOM      6  H   UNL     1       1.894   9.334  20.352  0.00  0.00    +0.000 HD
ENDROOT
BRANCH   4   7
ATOM      7  C   UNL     1       0.506  10.540  19.395  0.00  0.00    +0.000 C 
ATOM      8  C   UNL     1      -0.760  10.743  18.486  0.00  0.00    +0.000 C 
ATOM      9  C   UNL     1      -1.483  12.206  19.201  0.00  0.00    +0.000 C 
ATOM     10  C   UNL     1      -1.520  12.284  20.942  0.00  0.00    +0.000 C 
ATOM     11  C   UNL     1      -0.184  11.736  21.379  0.00  0.00    +0.000 C 
ATOM     12  C   UNL     1       0.720  12.902  20.924  0.00  0.00    +0.000 C 
ATOM     13  C   UNL     1       0.809  13.089  19.387  0.00  0.00    +0.000 C 
ATOM     14  C   UNL     1      -0.479  13.135  18.550  0.00  0.00    +0.000 C 
ATOM     15  C   UNL     1       1.458  11.790  18.928  0.00  0.00    +0.000 C 
ATOM     16  C   UNL     1      -0.301  10.446  20.627  0.00  0.00    +0.000 C 
ENDBRANCH   4   7
BRANCH   1  20
ATOM     17  C   UNL     1       3.724   4.193  19.361  0.00  0.00    +0.000 C 
ATOM     18  C   UNL     1       4.465   5.531  19.405  0.00  0.00    +0.000 C 
ATOM     19  C   UNL     1       4.212   6.373  18.152  0.00  0.00    +0.000 C 
ATOM     20  C   UNL     1       2.721   6.563  17.910  0.00  0.00    +0.000 C 
ATOM     21  C   UNL     1       1.920   5.259  17.956  0.00  0.00    +0.000 C 
ATOM     22  C   UNL     1       2.210   4.444  19.215  0.00  0.00    +0.000 C 
BRANCH  17  23
ATOM     23  C   UNL     1       4.284   3.331  18.231  0.00  0.00    +0.000 C 
ATOM     24  O   UNL     1       3.804   2.276  17.842  0.00  0.00    +0.000 OA
BRANCH  23  25
ATOM     25  O   UNL     1       5.433   3.881  17.744  0.00  0.00    +0.000 OA
BRANCH  25  26
ATOM     26  C   UNL     1       5.491   3.897  16.312  0.00  0.00    +0.000 C 
BRANCH  26  27
ATOM     27  C   UNL     1       6.854   4.370  15.830  0.00  0.00    +0.000 C 
BRANCH  27  28
ATOM     28  C   UNL     1       6.803   4.771  14.357  0.00  0.00    +0.000 C 
BRANCH  28  30
ATOM     29  C   UNL     1       6.612   3.650  12.119  0.00  0.00    +0.000 C 
ATOM     30  C   UNL     1       6.041   3.743  13.525  0.00  0.00    +0.000 C 
ENDBRANCH  28  30
ENDBRANCH  27  28
ENDBRANCH  26  27
ENDBRANCH  25  26
ENDBRANCH  23  25
ENDBRANCH  17  23
ENDBRANCH   1  20
TORSDOF 8
ENDMDL
MODEL 4
REMARK VINA RESULT:      -7.4      1.033      2.101
REMARK  Name = 
REMARK  9 active torsions:
REMARK  status: ('A' for Active; 'I' for Inactive)
REMARK    1  A    between atoms: C_1  and  C_2
REMARK    2  A    between atoms: C_2  and  C_3
REMARK    3  A    between atoms: C_3  and  C_4
REMARK    4  A    between atoms: C_4  and  C_5
REMARK    5  A    between atoms: C_5  and  O_6
REMARK    6  A    between atoms: O_6  and  C_7
REMARK    7  A    between atoms: C_7  and  C_9
REMARK    8  A    between atoms: C_12  and  N_13
REMARK    9  A    between atoms: N_16  and  C_17
REMARK                            x       y       z     vdW  Elec       q    Type
REMARK                         _______ _______ _______ _____ _____    ______ ____
ROOT
ATOM      1  N   UNL     1       7.747   7.720  18.025  0.00  0.00    +0.000 N 
ATOM      2  C   UNL     1       8.104   8.968  17.825  0.00  0.00    +0.000 C 
ATOM      3  O   UNL     1       7.609   9.687  16.888  0.00  0.00    +0.000 OA
ATOM      4  N   UNL     1       8.997   9.432  18.617  0.00  0.00    +0.000 N 
ATOM      5  H   UNL     1       7.975   7.348  18.955  0.00  0.00    +0.000 HD
ATOM      6  H   UNL     1       9.740   8.762  18.757  0.00  0.00    +0.000 HD
ENDROOT
BRANCH   4   7
ATOM      7  C   UNL     1       9.373  10.802  18.732  0.00  0.00    +0.000 C 
ATOM      8  C   UNL     1       8.473  12.067  18.488  0.00  0.00    +0.000 C 
ATOM      9  C   UNL     1       9.411  13.338  19.312  0.00  0.00    +0.000 C 
ATOM     10  C   UNL     1      10.092  12.922  20.861  0.00  0.00    +0.000 C 
ATOM     11  C   UNL     1      10.602  11.511  20.690  0.00  0.00    +0.000 C 
ATOM     12  C   UNL     1      11.804  11.797  19.763  0.00  0.00    +0.000 C 
ATOM     13  C   UNL     1      11.423  12.297  18.346  0.00  0.00    +0.000 C 
ATOM     14  C   UNL     1      10.422  13.452  18.189  0.00  0.00    +0.000 C 
ATOM     15  C   UNL     1      10.660  11.114  17.766  0.00  0.00    +0.000 C 
ATOM     16  C   UNL     1       9.305  10.945  20.200  0.00  0.00    +0.000 C 
ENDBRANCH   4   7
BRANCH   1  20
ATOM     17  C   UNL     1       6.305   4.406  18.371  0.00  0.00    +0.000 C 
ATOM     18  C   UNL     1       7.532   4.788  17.541  0.00  0.00    +0.000 C 
ATOM     19  C   UNL     1       7.238   5.931  16.567  0.00  0.00    +0.000 C 
ATOM     20  C   UNL     1       6.652   7.134  17.294  0.00  0.00    +0.000 C 
ATOM     21  C   UNL     1       5.481   6.785  18.216  0.00  0.00    +0.000 C 
ATOM     22  C   UNL     1       5.812   5.633  19.163  0.00  0.00    +0.000 C 
BRANCH  17  23
ATOM     23  C   UNL     1       5.225   3.829  17.458  0.00  0.00    +0.000 C 
ATOM     24  O   UNL     1       5.352   3.611  16.262  0.00  0.00    +0.000 OA
BRANCH  23  25
ATOM     25  O   UNL     1       4.070   3.635  18.157  0.00  0.00    +0.000 OA
BRANCH  25  26
ATOM     26  C   UNL     1       2.893   3.727  17.346  0.00  0.00    +0.000 C 
BRANCH  26  27
ATOM     27  C   UNL     1       1.710   4.229  18.159  0.00  0.00    +0.000 C 
BRANCH  27  28
ATOM     28  C   UNL     1       1.108   3.105  18.999  0.00  0.00    +0.000 C 
BRANCH  28  30
ATOM     29  C   UNL     1       2.234   3.281  21.236  0.00  0.00    +0.000 C 
ATOM     30  C   UNL     1       0.950   3.522  20.459  0.00  0.00    +0.000 C 
ENDBRANCH  28  30
ENDBRANCH  27  28
ENDBRANCH  26  27
ENDBRANCH  25  26
ENDBRANCH  23  25
ENDBRANCH  17  23
ENDBRANCH   1  20
TORSDOF 8
ENDMDL
MODEL 5
REMARK VINA RESULT:      -7.3      5.146      7.322
REMARK  Name = 
REMARK  9 active torsions:
REMARK  status: ('A' for Active; 'I' for Inactive)
REMARK    1  A    between atoms: C_1  and  C_2
REMARK    2  A    between atoms: C_2  and  C_3
REMARK    3  A    between atoms: C_3  and  C_4
REMARK    4  A    between atoms: C_4  and  C_5
REMARK    5  A    between atoms: C_5  and  O_6
REMARK    6  A    between atoms: O_6  and  C_7
REMARK    7  A    between atoms: C_7  and  C_9
REMARK    8  A    between atoms: C_12  and  N_13
REMARK    9  A    between atoms: N_16  and  C_17
REMARK                            x       y       z     vdW  Elec       q    Type
REMARK                         _______ _______ _______ _____ _____    ______ ____
ROOT
ATOM      1  N   UNL     1       2.022   7.362  18.938  0.00  0.00    +0.000 N 
ATOM      2  C   UNL     1       1.873   8.639  18.670  0.00  0.00    +0.000 C 
ATOM      3  O   UNL     1       2.227   9.157  17.553  0.00  0.00    +0.000 OA
ATOM      4  N   UNL     1       1.362   9.354  19.601  0.00  0.00    +0.000 N 
ATOM      5  H   UNL     1       1.449   7.013  19.715  0.00  0.00    +0.000 HD
ATOM      6  H   UNL     1       1.762   9.120  20.498  0.00  0.00    +0.000 HD
ENDROOT
BRANCH   4   7
ATOM      7  C   UNL     1       0.906  10.698  19.461  0.00  0.00    +0.000 C 
ATOM      8  C   UNL     1       1.502  11.821  18.538  0.00  0.00    +0.000 C 
ATOM      9  C   UNL     1       0.158  12.989  18.481  0.00  0.00    +0.000 C 
ATOM     10  C   UNL     1      -1.441  12.325  18.287  0.00  0.00    +0.000 C 
ATOM     11  C   UNL     1      -1.459  11.101  19.169  0.00  0.00    +0.000 C 
ATOM     12  C   UNL     1      -1.455  11.794  20.548  0.00  0.00    +0.000 C 
ATOM     13  C   UNL     1      -0.147  12.555  20.887  0.00  0.00    +0.000 C 
ATOM     14  C   UNL     1       0.450  13.534  19.864  0.00  0.00    +0.000 C 
ATOM     15  C   UNL     1       0.889  11.440  20.923  0.00  0.00    +0.000 C 
ATOM     16  C   UNL     1      -0.244  10.467  18.565  0.00  0.00    +0.000 C 
ENDBRANCH   4   7
BRANCH   1  20
ATOM     17  C   UNL     1       3.524   4.083  19.349  0.00  0.00    +0.000 C 
ATOM     18  C   UNL     1       4.249   5.430  19.370  0.00  0.00    +0.000 C 
ATOM     19  C   UNL     1       3.950   6.265  18.122  0.00  0.00    +0.000 C 
ATOM     20  C   UNL     1       2.450   6.435  17.922  0.00  0.00    +0.000 C 
ATOM     21  C   UNL     1       1.668   5.121  17.992  0.00  0.00    +0.000 C 
ATOM     22  C   UNL     1       2.004   4.313  19.245  0.00  0.00    +0.000 C 
BRANCH  17  23
ATOM     23  C   UNL     1       4.064   3.225  18.206  0.00  0.00    +0.000 C 
ATOM     24  O   UNL     1       3.518   2.233  17.747  0.00  0.00    +0.000 OA
BRANCH  23  25
ATOM     25  O   UNL     1       5.278   3.694  17.797  0.00  0.00    +0.000 OA
BRANCH  25  26
ATOM     26  C   UNL     1       5.437   3.692  16.373  0.00  0.00    +0.000 C 
BRANCH  26  27
ATOM     27  C   UNL     1       6.722   4.397  15.969  0.00  0.00    +0.000 C 
BRANCH  27  28
ATOM     28  C   UNL     1       7.434   4.976  17.189  0.00  0.00    +0.000 C 
BRANCH  28  30
ATOM     29  C   UNL     1       8.006   7.062  18.463  0.00  0.00    +0.000 C 
ATOM     30  C   UNL     1       7.360   6.500  17.207  0.00  0.00    +0.000 C 
ENDBRANCH  28  30
ENDBRANCH  27  28
ENDBRANCH  26  27
ENDBRANCH  25  26
ENDBRANCH  23  25
ENDBRANCH  17  23
ENDBRANCH   1  20
TORSDOF 8
ENDMDL
MODEL 6
REMARK VINA RESULT:      -7.3      0.899      1.350
REMARK  Name = 
REMARK  9 active torsions:
REMARK  status: ('A' for Active; 'I' for Inactive)
REMARK    1  A    between atoms: C_1  and  C_2
REMARK    2  A    between atoms: C_2  and  C_3
REMARK    3  A    between atoms: C_3  and  C_4
REMARK    4  A    between atoms: C_4  and  C_5
REMARK    5  A    between atoms: C_5  and  O_6
REMARK    6  A    between atoms: O_6  and  C_7
REMARK    7  A    between atoms: C_7  and  C_9
REMARK    8  A    between atoms: C_12  and  N_13
REMARK    9  A    between atoms: N_16  and  C_17
REMARK                            x       y       z     vdW  Elec       q    Type
REMARK                         _______ _______ _______ _____ _____    ______ ____
ROOT
ATOM      1  N   UNL     1       7.017   7.974  17.291  0.00  0.00    +0.000 N 
ATOM      2  C   UNL     1       7.991   8.575  17.936  0.00  0.00    +0.000 C 
ATOM      3  O   UNL     1       8.925   7.933  18.532  0.00  0.00    +0.000 OA
ATOM      4  N   UNL     1       7.951   9.855  17.951  0.00  0.00    +0.000 N 
ATOM      5  H   UNL     1       6.512   8.565  16.621  0.00  0.00    +0.000 HD
ATOM      6  H   UNL     1       7.013  10.186  18.130  0.00  0.00    +0.000 HD
ENDROOT
BRANCH   4   7
ATOM      7  C   UNL     1       9.001  10.714  18.389  0.00  0.00    +0.000 C 
ATOM      8  C   UNL     1      10.463  10.808  17.819  0.00  0.00    +0.000 C 
ATOM      9  C   UNL     1      10.993  12.387  18.452  0.00  0.00    +0.000 C 
ATOM     10  C   UNL     1       9.836  13.687  18.365  0.00  0.00    +0.000 C 
ATOM     11  C   UNL     1       8.519  13.056  18.744  0.00  0.00    +0.000 C 
ATOM     12  C   UNL     1       8.782  12.825  20.248  0.00  0.00    +0.000 C 
ATOM     13  C   UNL     1       9.875  11.770  20.559  0.00  0.00    +0.000 C 
ATOM     14  C   UNL     1      11.235  11.851  19.849  0.00  0.00    +0.000 C 
ATOM     15  C   UNL     1       9.278  10.491  19.989  0.00  0.00    +0.000 C 
ATOM     16  C   UNL     1       8.581  11.962  17.723  0.00  0.00    +0.000 C 
ENDBRANCH   4   7
BRANCH   1  20
ATOM     17  C   UNL     1       4.531   5.514  18.264  0.00  0.00    +0.000 C 
ATOM     18  C   UNL     1       5.657   6.072  19.137  0.00  0.00    +0.000 C 
ATOM     19  C   UNL     1       7.028   5.927  18.473  0.00  0.00    +0.000 C 
ATOM     20  C   UNL     1       7.033   6.549  17.083  0.00  0.00    +0.000 C 
ATOM     21  C   UNL     1       5.865   6.095  16.203  0.00  0.00    +0.000 C 
ATOM     22  C   UNL     1       4.517   6.245  16.907  0.00  0.00    +0.000 C 
BRANCH  17  23
ATOM     23  C   UNL     1       4.698   4.003  18.112  0.00  0.00    +0.000 C 
ATOM     24  O   UNL     1       4.520   3.372  17.080  0.00  0.00    +0.000 OA
BRANCH  23  25
ATOM     25  O   UNL     1       5.027   3.443  19.310  0.00  0.00    +0.000 OA
BRANCH  25  26
ATOM     26  C   UNL     1       4.052   2.505  19.786  0.00  0.00    +0.000 C 
BRANCH  26  27
ATOM     27  C   UNL     1       3.318   3.054  21.000  0.00  0.00    +0.000 C 
BRANCH  27  28
ATOM     28  C   UNL     1       1.826   2.740  20.923  0.00  0.00    +0.000 C 
BRANCH  28  30
ATOM     29  C   UNL     1       0.650   2.541  18.714  0.00  0.00    +0.000 C 
ATOM     30  C   UNL     1       1.154   3.499  19.781  0.00  0.00    +0.000 C 
ENDBRANCH  28  30
ENDBRANCH  27  28
ENDBRANCH  26  27
ENDBRANCH  25  26
ENDBRANCH  23  25
ENDBRANCH  17  23
ENDBRANCH   1  20
TORSDOF 8
ENDMDL
MODEL 7
REMARK VINA RESULT:      -7.2      5.437      7.460
REMARK  Name = 
REMARK  9 active torsions:
REMARK  status: ('A' for Active; 'I' for Inactive)
REMARK    1  A    between atoms: C_1  and  C_2
REMARK    2  A    between atoms: C_2  and  C_3
REMARK    3  A    between atoms: C_3  and  C_4
REMARK    4  A    between atoms: C_4  and  C_5
REMARK    5  A    between atoms: C_5  and  O_6
REMARK    6  A    between atoms: O_6  and  C_7
REMARK    7  A    between atoms: C_7  and  C_9
REMARK    8  A    between atoms: C_12  and  N_13
REMARK    9  A    between atoms: N_16  and  C_17
REMARK                            x       y       z     vdW  Elec       q    Type
REMARK                         _______ _______ _______ _____ _____    ______ ____
ROOT
ATOM      1  N   UNL     1       2.073   7.356  18.933  0.00  0.00    +0.000 N 
ATOM      2  C   UNL     1       1.911   8.634  18.678  0.00  0.00    +0.000 C 
ATOM      3  O   UNL     1       2.278   9.172  17.575  0.00  0.00    +0.000 OA
ATOM      4  N   UNL     1       1.372   9.330  19.609  0.00  0.00    +0.000 N 
ATOM      5  H   UNL     1       1.491   6.989  19.695  0.00  0.00    +0.000 HD
ATOM      6  H   UNL     1       1.759   9.091  20.511  0.00  0.00    +0.000 HD
ENDROOT
BRANCH   4   7
ATOM      7  C   UNL     1       0.900  10.669  19.478  0.00  0.00    +0.000 C 
ATOM      8  C   UNL     1       1.466  11.797  18.541  0.00  0.00    +0.000 C 
ATOM      9  C   UNL     1       0.109  12.952  18.511  0.00  0.00    +0.000 C 
ATOM     10  C   UNL     1      -1.487  12.271  18.348  0.00  0.00    +0.000 C 
ATOM     11  C   UNL     1      -1.475  11.047  19.231  0.00  0.00    +0.000 C 
ATOM     12  C   UNL     1      -1.451  11.742  20.610  0.00  0.00    +0.000 C 
ATOM     13  C   UNL     1      -0.144  12.516  20.922  0.00  0.00    +0.000 C 
ATOM     14  C   UNL     1       0.422  13.501  19.888  0.00  0.00    +0.000 C 
ATOM     15  C   UNL     1       0.904  11.412  20.939  0.00  0.00    +0.000 C 
ATOM     16  C   UNL     1      -0.265  10.425  18.605  0.00  0.00    +0.000 C 
ENDBRANCH   4   7
BRANCH   1  20
ATOM     17  C   UNL     1       3.575   4.075  19.331  0.00  0.00    +0.000 C 
ATOM     18  C   UNL     1       4.294   5.424  19.395  0.00  0.00    +0.000 C 
ATOM     19  C   UNL     1       4.028   6.280  18.154  0.00  0.00    +0.000 C 
ATOM     20  C   UNL     1       2.534   6.449  17.914  0.00  0.00    +0.000 C 
ATOM     21  C   UNL     1       1.755   5.130  17.939  0.00  0.00    +0.000 C 
ATOM     22  C   UNL     1       2.057   4.302  19.186  0.00  0.00    +0.000 C 
BRANCH  17  23
ATOM     23  C   UNL     1       4.150   3.239  18.188  0.00  0.00    +0.000 C 
ATOM     24  O   UNL     1       3.668   2.202  17.758  0.00  0.00    +0.000 OA
BRANCH  23  25
ATOM     25  O   UNL     1       5.317   3.788  17.744  0.00  0.00    +0.000 OA
BRANCH  25  26
ATOM     26  C   UNL     1       5.443   3.775  16.316  0.00  0.00    +0.000 C 
BRANCH  26  27
ATOM     27  C   UNL     1       6.669   4.557  15.872  0.00  0.00    +0.000 C 
BRANCH  27  28
ATOM     28  C   UNL     1       6.862   4.457  14.361  0.00  0.00    +0.000 C 
BRANCH  28  30
ATOM     29  C   UNL     1       5.954   3.324  12.313  0.00  0.00    +0.000 C 
ATOM     30  C   UNL     1       5.614   3.911  13.673  0.00  0.00    +0.000 C 
ENDBRANCH  28  30
ENDBRANCH  27  28
ENDBRANCH  26  27
ENDBRANCH  25  26
ENDBRANCH  23  25
ENDBRANCH  17  23
ENDBRANCH   1  20
TORSDOF 8
ENDMDL
MODEL 8
REMARK VINA RESULT:      -7.2      5.075      6.726
REMARK  Name = 
REMARK  9 active torsions:
REMARK  status: ('A' for Active; 'I' for Inactive)
REMARK    1  A    between atoms: C_1  and  C_2
REMARK    2  A    between atoms: C_2  and  C_3
REMARK    3  A    between atoms: C_3  and  C_4
REMARK    4  A    between atoms: C_4  and  C_5
REMARK    5  A    between atoms: C_5  and  O_6
REMARK    6  A    between atoms: O_6  and  C_7
REMARK    7  A    between atoms: C_7  and  C_9
REMARK    8  A    between atoms: C_12  and  N_13
REMARK    9  A    between atoms: N_16  and  C_17
REMARK                            x       y       z     vdW  Elec       q    Type
REMARK                         _______ _______ _______ _____ _____    ______ ____
ROOT
ATOM      1  N   UNL     1       2.988   8.299  17.972  0.00  0.00    +0.000 N 
ATOM      2  C   UNL     1       1.918   9.060  17.977  0.00  0.00    +0.000 C 
ATOM      3  O   UNL     1       0.848   8.753  17.342  0.00  0.00    +0.000 OA
ATOM      4  N   UNL     1       2.003  10.148  18.647  0.00  0.00    +0.000 N 
ATOM      5  H   UNL     1       3.655   8.485  18.729  0.00  0.00    +0.000 HD
ATOM      6  H   UNL     1       2.887  10.607  18.481  0.00  0.00    +0.000 HD
ENDROOT
BRANCH   4   7
ATOM      7  C   UNL     1       0.915  11.008  18.976  0.00  0.00    +0.000 C 
ATOM      8  C   UNL     1      -0.570  10.911  18.471  0.00  0.00    +0.000 C 
ATOM      9  C   UNL     1      -1.422  11.923  19.665  0.00  0.00    +0.000 C 
ATOM     10  C   UNL     1      -0.952  11.722  21.331  0.00  0.00    +0.000 C 
ATOM     11  C   UNL     1       0.551  11.592  21.294  0.00  0.00    +0.000 C 
ATOM     12  C   UNL     1       0.913  13.047  20.927  0.00  0.00    +0.000 C 
ATOM     13  C   UNL     1       0.479  13.482  19.503  0.00  0.00    +0.000 C 
ATOM     14  C   UNL     1      -0.961  13.221  19.033  0.00  0.00    +0.000 C 
ATOM     15  C   UNL     1       1.294  12.559  18.607  0.00  0.00    +0.000 C 
ATOM     16  C   UNL     1       0.577  10.465  20.307  0.00  0.00    +0.000 C 
ENDBRANCH   4   7
BRANCH   1  20
ATOM     17  C   UNL     1       4.895   5.352  18.898  0.00  0.00    +0.000 C 
ATOM     18  C   UNL     1       5.356   6.491  17.986  0.00  0.00    +0.000 C 
ATOM     19  C   UNL     1       4.372   6.751  16.843  0.00  0.00    +0.000 C 
ATOM     20  C   UNL     1       2.965   6.989  17.374  0.00  0.00    +0.000 C 
ATOM     21  C   UNL     1       2.496   5.924  18.370  0.00  0.00    +0.000 C 
ATOM     22  C   UNL     1       3.511   5.688  19.486  0.00  0.00    +0.000 C 
BRANCH  17  23
ATOM     23  C   UNL     1       4.895   4.038  18.119  0.00  0.00    +0.000 C 
ATOM     24  O   UNL     1       5.303   3.892  16.976  0.00  0.00    +0.000 OA
BRANCH  23  25
ATOM     25  O   UNL     1       4.325   3.049  18.865  0.00  0.00    +0.000 OA
BRANCH  25  26
ATOM     26  C   UNL     1       3.356   2.279  18.142  0.00  0.00    +0.000 C 
BRANCH  26  27
ATOM     27  C   UNL     1       2.269   1.763  19.072  0.00  0.00    +0.000 C 
BRANCH  27  28
ATOM     28  C   UNL     1       1.036   2.662  19.024  0.00  0.00    +0.000 C 
BRANCH  28  30
ATOM     29  C   UNL     1       1.716   2.794  21.437  0.00  0.00    +0.000 C 
ATOM     30  C   UNL     1       0.800   3.357  20.363  0.00  0.00    +0.000 C 
ENDBRANCH  28  30
ENDBRANCH  27  28
ENDBRANCH  26  27
ENDBRANCH  25  26
ENDBRANCH  23  25
ENDBRANCH  17  23
ENDBRANCH   1  20
TORSDOF 8
ENDMDL
MODEL 9
REMARK VINA RESULT:      -7.2      1.231      2.117
REMARK  Name = 
REMARK  9 active torsions:
REMARK  status: ('A' for Active; 'I' for Inactive)
REMARK    1  A    between atoms: C_1  and  C_2
REMARK    2  A    between atoms: C_2  and  C_3
REMARK    3  A    between atoms: C_3  and  C_4
REMARK    4  A    between atoms: C_4  and  C_5
REMARK    5  A    between atoms: C_5  and  O_6
REMARK    6  A    between atoms: O_6  and  C_7
REMARK    7  A    between atoms: C_7  and  C_9
REMARK    8  A    between atoms: C_12  and  N_13
REMARK    9  A    between atoms: N_16  and  C_17
REMARK                            x       y       z     vdW  Elec       q    Type
REMARK                         _______ _______ _______ _____ _____    ______ ____
ROOT
ATOM      1  N   UNL     1       7.977   7.381  18.466  0.00  0.00    +0.000 N 
ATOM      2  C   UNL     1       8.458   8.543  18.087  0.00  0.00    +0.000 C 
ATOM      3  O   UNL     1       8.495   8.909  16.861  0.00  0.00    +0.000 OA
ATOM      4  N   UNL     1       8.908   9.297  19.019  0.00  0.00    +0.000 N 
ATOM      5  H   UNL     1       7.728   7.319  19.460  0.00  0.00    +0.000 HD
ATOM      6  H   UNL     1       9.462   8.768  19.678  0.00  0.00    +0.000 HD
ENDROOT
BRANCH   4   7
ATOM      7  C   UNL     1       9.266  10.670  18.877  0.00  0.00    +0.000 C 
ATOM      8  C   UNL     1       8.351  11.855  18.400  0.00  0.00    +0.000 C 
ATOM      9  C   UNL     1       9.270  13.270  18.973  0.00  0.00    +0.000 C 
ATOM     10  C   UNL     1       9.953  13.159  20.572  0.00  0.00    +0.000 C 
ATOM     11  C   UNL     1      10.481  11.748  20.668  0.00  0.00    +0.000 C 
ATOM     12  C   UNL     1      11.681  11.871  19.704  0.00  0.00    +0.000 C 
ATOM     13  C   UNL     1      11.298  12.093  18.218  0.00  0.00    +0.000 C 
ATOM     14  C   UNL     1      10.283  13.185  17.849  0.00  0.00    +0.000 C 
ATOM     15  C   UNL     1      10.552  10.813  17.870  0.00  0.00    +0.000 C 
ATOM     16  C   UNL     1       9.192  11.083  20.292  0.00  0.00    +0.000 C 
ENDBRANCH   4   7
BRANCH   1  20
ATOM     17  C   UNL     1       5.011   5.349  18.968  0.00  0.00    +0.000 C 
ATOM     18  C   UNL     1       6.450   4.971  19.325  0.00  0.00    +0.000 C 
ATOM     19  C   UNL     1       7.397   5.114  18.131  0.00  0.00    +0.000 C 
ATOM     20  C   UNL     1       7.314   6.511  17.529  0.00  0.00    +0.000 C 
ATOM     21  C   UNL     1       5.882   6.973  17.247  0.00  0.00    +0.000 C 
ATOM     22  C   UNL     1       4.968   6.803  18.458  0.00  0.00    +0.000 C 
BRANCH  17  23
ATOM     23  C   UNL     1       4.455   4.356  17.948  0.00  0.00    +0.000 C 
ATOM     24  O   UNL     1       4.014   4.647  16.846  0.00  0.00    +0.000 OA
BRANCH  23  25
ATOM     25  O   UNL     1       4.474   3.093  18.462  0.00  0.00    +0.000 OA
BRANCH  25  26
ATOM     26  C   UNL     1       3.492   2.881  19.484  0.00  0.00    +0.000 C 
BRANCH  26  27
ATOM     27  C   UNL     1       2.085   2.992  18.917  0.00  0.00    +0.000 C 
BRANCH  27  28
ATOM     28  C   UNL     1       1.136   3.624  19.933  0.00  0.00    +0.000 C 
BRANCH  28  30
ATOM     29  C   UNL     1       1.730   5.993  20.511  0.00  0.00    +0.000 C 
ATOM     30  C   UNL     1       1.882   4.533  20.905  0.00  0.00    +0.000 C 
ENDBRANCH  28  30
ENDBRANCH  27  28
ENDBRANCH  26  27
ENDBRANCH  25  26
ENDBRANCH  23  25
ENDBRANCH  17  23
ENDBRANCH   1  20
TORSDOF 8
ENDMDL
