MODEL 1
REMARK VINA RESULT:      -7.6      0.000      0.000
REMARK  Name = 
REMARK  4 active torsions:
REMARK  status: ('A' for Active; 'I' for Inactive)
REMARK    1  A    between atoms: C_1  and  C_2
REMARK    2  A    between atoms: C_4  and  C_5
REMARK    3  A    between atoms: N_7  and  N_8
REMARK    4  A    between atoms: C_9  and  C_10
REMARK                            x       y       z     vdW  Elec       q    Type
REMARK                         _______ _______ _______ _____ _____    ______ ____
ROOT
ATOM      1  C   UNL     1       7.255   5.934  18.377  0.00  0.00    +0.000 C 
ATOM      2  O   UNL     1       8.116   6.785  18.601  0.00  0.00    +0.000 OA
ATOM      3  N   UNL     1       6.667   5.249  19.443  0.00  0.00    +0.000 N 
ATOM      4  H   UNL     1       6.951   5.532  20.376  0.00  0.00    +0.000 HD
ENDROOT
BRANCH   1   8
ATOM      5  C   UNL     1       6.356   4.061  13.739  0.00  0.00    +0.000 C 
ATOM      6  C   UNL     1       6.365   4.822  15.009  0.00  0.00    +0.000 A 
ATOM      7  C   UNL     1       7.070   4.548  16.209  0.00  0.00    +0.000 A 
ATOM      8  C   UNL     1       6.784   5.602  17.051  0.00  0.00    +0.000 A 
ATOM      9  N   UNL     1       5.898   6.370  16.348  0.00  0.00    +0.000 N 
ATOM     10  N   UNL     1       5.644   5.945  15.105  0.00  0.00    +0.000 NA
ATOM     11  H   UNL     1       5.502   7.249  16.671  0.00  0.00    +0.000 HD
ENDBRANCH   1   8
BRANCH   3  12
ATOM     12  N   UNL     1       5.564   4.467  19.258  0.00  0.00    +0.000 NA
ATOM     13  C   UNL     1       4.411   4.936  19.607  0.00  0.00    +0.000 C 
BRANCH  13  14
ATOM     14  C   UNL     1       3.187   4.139  19.360  0.00  0.00    +0.000 A 
ATOM     15  C   UNL     1       2.072   4.271  20.184  0.00  0.00    +0.000 A 
ATOM     16  C   UNL     1       0.953   3.495  19.912  0.00  0.00    +0.000 A 
ATOM     17  C   UNL     1       0.988   2.614  18.838  0.00  0.00    +0.000 A 
ATOM     18  C   UNL     1       2.147   2.548  18.076  0.00  0.00    +0.000 A 
ATOM     19  N   UNL     1       3.252   3.292  18.308  0.00  0.00    +0.000 NA
ENDBRANCH  13  14
ENDBRANCH   3  12
TORSDOF 3
ENDMDL
MODEL 2
REMARK VINA RESULT:      -7.5      1.768      5.501
REMARK  Name = 
REMARK  4 active torsions:
REMARK  status: ('A' for Active; 'I' for Inactive)
REMARK    1  A    between atoms: C_1  and  C_2
REMARK    2  A    between atoms: C_4  and  C_5
REMARK    3  A    between atoms: N_7  and  N_8
REMARK    4  A    between atoms: C_9  and  C_10
REMARK                            x       y       z     vdW  Elec       q    Type
REMARK                         _______ _______ _______ _____ _____    ______ ____
ROOT
ATOM      1  C   UNL     1       6.893   5.133  19.084  0.00  0.00    +0.000 C 
ATOM      2  O   UNL     1       7.219   5.446  20.229  0.00  0.00    +0.000 OA
ATOM      3  N   UNL     1       7.833   5.204  18.053  0.00  0.00    +0.000 N 
ATOM      4  H   UNL     1       8.776   5.469  18.318  0.00  0.00    +0.000 HD
ENDROOT
BRANCH   1   8
ATOM      5  C   UNL     1       1.997   4.488  17.883  0.00  0.00    +0.000 C 
ATOM      6  C   UNL     1       3.432   4.335  18.215  0.00  0.00    +0.000 A 
ATOM      7  C   UNL     1       4.431   5.333  18.338  0.00  0.00    +0.000 A 
ATOM      8  C   UNL     1       5.572   4.664  18.729  0.00  0.00    +0.000 A 
ATOM      9  N   UNL     1       5.208   3.347  18.741  0.00  0.00    +0.000 N 
ATOM     10  N   UNL     1       3.920   3.114  18.462  0.00  0.00    +0.000 NA
ATOM     11  H   UNL     1       5.811   2.576  19.014  0.00  0.00    +0.000 HD
ENDBRANCH   1   8
BRANCH   3  12
ATOM     12  N   UNL     1       7.580   4.662  16.828  0.00  0.00    +0.000 NA
ATOM     13  C   UNL     1       7.246   5.454  15.860  0.00  0.00    +0.000 C 
BRANCH  13  14
ATOM     14  C   UNL     1       7.029   4.905  14.502  0.00  0.00    +0.000 A 
ATOM     15  C   UNL     1       6.072   3.920  14.276  0.00  0.00    +0.000 A 
ATOM     16  C   UNL     1       5.914   3.434  12.985  0.00  0.00    +0.000 A 
ATOM     17  C   UNL     1       6.718   3.940  11.971  0.00  0.00    +0.000 A 
ATOM     18  C   UNL     1       7.650   4.918  12.294  0.00  0.00    +0.000 A 
ATOM     19  N   UNL     1       7.827   5.418  13.538  0.00  0.00    +0.000 NA
ENDBRANCH  13  14
ENDBRANCH   3  12
TORSDOF 3
ENDMDL
MODEL 3
REMARK VINA RESULT:      -7.4      2.040      3.273
REMARK  Name = 
REMARK  4 active torsions:
REMARK  status: ('A' for Active; 'I' for Inactive)
REMARK    1  A    between atoms: C_1  and  C_2
REMARK    2  A    between atoms: C_4  and  C_5
REMARK    3  A    between atoms: N_7  and  N_8
REMARK    4  A    between atoms: C_9  and  C_10
REMARK                            x       y       z     vdW  Elec       q    Type
REMARK                         _______ _______ _______ _____ _____    ______ ____
ROOT
ATOM      1  C   UNL     1       5.952   4.095  15.707  0.00  0.00    +0.000 C 
ATOM      2  O   UNL     1       6.492   3.768  14.650  0.00  0.00    +0.000 OA
ATOM      3  N   UNL     1       4.634   3.706  15.960  0.00  0.00    +0.000 N 
ATOM      4  H   UNL     1       4.195   3.115  15.262  0.00  0.00    +0.000 HD
ENDROOT
BRANCH   1   8
ATOM      5  C   UNL     1       8.283   7.529  18.639  0.00  0.00    +0.000 C 
ATOM      6  C   UNL     1       7.652   6.324  18.055  0.00  0.00    +0.000 A 
ATOM      7  C   UNL     1       6.916   6.198  16.850  0.00  0.00    +0.000 A 
ATOM      8  C   UNL     1       6.616   4.856  16.742  0.00  0.00    +0.000 A 
ATOM      9  N   UNL     1       7.113   4.302  17.889  0.00  0.00    +0.000 N 
ATOM     10  N   UNL     1       7.767   5.151  18.689  0.00  0.00    +0.000 NA
ATOM     11  H   UNL     1       7.087   3.313  18.119  0.00  0.00    +0.000 HD
ENDBRANCH   1   8
BRANCH   3  12
ATOM     12  N   UNL     1       4.079   3.854  17.197  0.00  0.00    +0.000 NA
ATOM     13  C   UNL     1       3.168   3.013  17.568  0.00  0.00    +0.000 C 
BRANCH  13  14
ATOM     14  C   UNL     1       2.592   3.106  18.930  0.00  0.00    +0.000 A 
ATOM     15  C   UNL     1       1.365   3.727  19.143  0.00  0.00    +0.000 A 
ATOM     16  C   UNL     1       0.873   3.794  20.440  0.00  0.00    +0.000 A 
ATOM     17  C   UNL     1       1.624   3.248  21.473  0.00  0.00    +0.000 A 
ATOM     18  C   UNL     1       2.840   2.654  21.165  0.00  0.00    +0.000 A 
ATOM     19  N   UNL     1       3.346   2.566  19.914  0.00  0.00    +0.000 NA
ENDBRANCH  13  14
ENDBRANCH   3  12
TORSDOF 3
ENDMDL
MODEL 4
REMARK VINA RESULT:      -7.2      2.062      3.309
REMARK  Name = 
REMARK  4 active torsions:
REMARK  status: ('A' for Active; 'I' for Inactive)
REMARK    1  A    between atoms: C_1  and  C_2
REMARK    2  A    between atoms: C_4  and  C_5
REMARK    3  A    between atoms: N_7  and  N_8
REMARK    4  A    between atoms: C_9  and  C_10
REMARK                            x       y       z     vdW  Elec       q    Type
REMARK                         _______ _______ _______ _____ _____    ______ ____
ROOT
ATOM      1  C   UNL     1       6.143   3.995  15.788  0.00  0.00    +0.000 C 
ATOM      2  O   UNL     1       6.641   3.823  14.676  0.00  0.00    +0.000 OA
ATOM      3  N   UNL     1       4.943   3.357  16.115  0.00  0.00    +0.000 N 
ATOM      4  H   UNL     1       4.561   2.727  15.417  0.00  0.00    +0.000 HD
ENDROOT
BRANCH   1   8
ATOM      5  C   UNL     1       8.266   7.613  18.657  0.00  0.00    +0.000 C 
ATOM      6  C   UNL     1       7.687   6.368  18.103  0.00  0.00    +0.000 A 
ATOM      7  C   UNL     1       7.009   6.170  16.873  0.00  0.00    +0.000 A 
ATOM      8  C   UNL     1       6.742   4.818  16.815  0.00  0.00    +0.000 A 
ATOM      9  N   UNL     1       7.199   4.328  18.007  0.00  0.00    +0.000 N 
ATOM     10  N   UNL     1       7.797   5.228  18.795  0.00  0.00    +0.000 NA
ATOM     11  H   UNL     1       7.182   3.350  18.282  0.00  0.00    +0.000 HD
ENDBRANCH   1   8
BRANCH   3  12
ATOM     12  N   UNL     1       4.477   3.342  17.397  0.00  0.00    +0.000 NA
ATOM     13  C   UNL     1       3.208   3.503  17.593  0.00  0.00    +0.000 C 
BRANCH  13  14
ATOM     14  C   UNL     1       2.661   3.426  18.967  0.00  0.00    +0.000 A 
ATOM     15  C   UNL     1       3.335   2.727  19.964  0.00  0.00    +0.000 A 
ATOM     16  C   UNL     1       2.774   2.679  21.234  0.00  0.00    +0.000 A 
ATOM     17  C   UNL     1       1.563   3.321  21.460  0.00  0.00    +0.000 A 
ATOM     18  C   UNL     1       0.962   3.989  20.401  0.00  0.00    +0.000 A 
ATOM     19  N   UNL     1       1.481   4.061  19.155  0.00  0.00    +0.000 NA
ENDBRANCH  13  14
ENDBRANCH   3  12
TORSDOF 3
ENDMDL
MODEL 5
REMARK VINA RESULT:      -7.1      1.672      5.545
REMARK  Name = 
REMARK  4 active torsions:
REMARK  status: ('A' for Active; 'I' for Inactive)
REMARK    1  A    between atoms: C_1  and  C_2
REMARK    2  A    between atoms: C_4  and  C_5
REMARK    3  A    between atoms: N_7  and  N_8
REMARK    4  A    between atoms: C_9  and  C_10
REMARK                            x       y       z     vdW  Elec       q    Type
REMARK                         _______ _______ _______ _____ _____    ______ ____
ROOT
ATOM      1  C   UNL     1       6.869   5.142  18.952  0.00  0.00    +0.000 C 
ATOM      2  O   UNL     1       7.274   5.489  20.061  0.00  0.00    +0.000 OA
ATOM      3  N   UNL     1       7.736   5.172  17.857  0.00  0.00    +0.000 N 
ATOM      4  H   UNL     1       8.697   5.438  18.048  0.00  0.00    +0.000 HD
ENDROOT
BRANCH   1   8
ATOM      5  C   UNL     1       1.893   4.490  18.149  0.00  0.00    +0.000 C 
ATOM      6  C   UNL     1       3.350   4.338  18.363  0.00  0.00    +0.000 A 
ATOM      7  C   UNL     1       4.354   5.339  18.408  0.00  0.00    +0.000 A 
ATOM      8  C   UNL     1       5.524   4.671  18.703  0.00  0.00    +0.000 A 
ATOM      9  N   UNL     1       5.165   3.352  18.740  0.00  0.00    +0.000 N 
ATOM     10  N   UNL     1       3.859   3.118  18.566  0.00  0.00    +0.000 NA
ATOM     11  H   UNL     1       5.789   2.583  18.962  0.00  0.00    +0.000 HD
ENDBRANCH   1   8
BRANCH   3  12
ATOM     12  N   UNL     1       7.397   4.592  16.670  0.00  0.00    +0.000 NA
ATOM     13  C   UNL     1       7.231   5.353  15.637  0.00  0.00    +0.000 C 
BRANCH  13  14
ATOM     14  C   UNL     1       6.928   4.749  14.319  0.00  0.00    +0.000 A 
ATOM     15  C   UNL     1       7.692   5.062  13.199  0.00  0.00    +0.000 A 
ATOM     16  C   UNL     1       7.361   4.474  11.985  0.00  0.00    +0.000 A 
ATOM     17  C   UNL     1       6.279   3.604  11.932  0.00  0.00    +0.000 A 
ATOM     18  C   UNL     1       5.572   3.357  13.100  0.00  0.00    +0.000 A 
ATOM     19  N   UNL     1       5.870   3.907  14.300  0.00  0.00    +0.000 NA
ENDBRANCH  13  14
ENDBRANCH   3  12
TORSDOF 3
ENDMDL
MODEL 6
REMARK VINA RESULT:      -7.0      1.829      5.377
REMARK  Name = 
REMARK  4 active torsions:
REMARK  status: ('A' for Active; 'I' for Inactive)
REMARK    1  A    between atoms: C_1  and  C_2
REMARK    2  A    between atoms: C_4  and  C_5
REMARK    3  A    between atoms: N_7  and  N_8
REMARK    4  A    between atoms: C_9  and  C_10
REMARK                            x       y       z     vdW  Elec       q    Type
REMARK                         _______ _______ _______ _____ _____    ______ ____
ROOT
ATOM      1  C   UNL     1       6.836   5.181  19.043  0.00  0.00    +0.000 C 
ATOM      2  O   UNL     1       7.160   5.442  20.202  0.00  0.00    +0.000 OA
ATOM      3  N   UNL     1       7.819   5.075  18.057  0.00  0.00    +0.000 N 
ATOM      4  H   UNL     1       8.782   5.171  18.365  0.00  0.00    +0.000 HD
ENDROOT
BRANCH   1   8
ATOM      5  C   UNL     1       2.272   3.372  17.729  0.00  0.00    +0.000 C 
ATOM      6  C   UNL     1       3.462   4.200  18.029  0.00  0.00    +0.000 A 
ATOM      7  C   UNL     1       4.676   3.824  18.659  0.00  0.00    +0.000 A 
ATOM      8  C   UNL     1       5.470   4.951  18.627  0.00  0.00    +0.000 A 
ATOM      9  N   UNL     1       4.677   5.912  18.065  0.00  0.00    +0.000 N 
ATOM     10  N   UNL     1       3.472   5.489  17.669  0.00  0.00    +0.000 NA
ATOM     11  H   UNL     1       4.967   6.865  17.867  0.00  0.00    +0.000 HD
ENDBRANCH   1   8
BRANCH   3  12
ATOM     12  N   UNL     1       7.531   4.575  16.822  0.00  0.00    +0.000 NA
ATOM     13  C   UNL     1       7.329   5.406  15.851  0.00  0.00    +0.000 C 
BRANCH  13  14
ATOM     14  C   UNL     1       7.079   4.895  14.484  0.00  0.00    +0.000 A 
ATOM     15  C   UNL     1       6.106   3.927  14.253  0.00  0.00    +0.000 A 
ATOM     16  C   UNL     1       5.916   3.476  12.953  0.00  0.00    +0.000 A 
ATOM     17  C   UNL     1       6.706   3.999  11.937  0.00  0.00    +0.000 A 
ATOM     18  C   UNL     1       7.656   4.957  12.265  0.00  0.00    +0.000 A 
ATOM     19  N   UNL     1       7.863   5.423  13.517  0.00  0.00    +0.000 NA
ENDBRANCH  13  14
ENDBRANCH   3  12
TORSDOF 3
ENDMDL
MODEL 7
REMARK VINA RESULT:      -7.0      1.288      1.412
REMARK  Name = 
REMARK  4 active torsions:
REMARK  status: ('A' for Active; 'I' for Inactive)
REMARK    1  A    between atoms: C_1  and  C_2
REMARK    2  A    between atoms: C_4  and  C_5
REMARK    3  A    between atoms: N_7  and  N_8
REMARK    4  A    between atoms: C_9  and  C_10
REMARK                            x       y       z     vdW  Elec       q    Type
REMARK                         _______ _______ _______ _____ _____    ______ ____
ROOT
ATOM      1  C   UNL     1       6.746   6.407  17.069  0.00  0.00    +0.000 C 
ATOM      2  O   UNL     1       7.644   7.243  16.974  0.00  0.00    +0.000 OA
ATOM      3  N   UNL     1       5.874   6.449  18.161  0.00  0.00    +0.000 N 
ATOM      4  H   UNL     1       5.999   7.219  18.811  0.00  0.00    +0.000 HD
ENDROOT
BRANCH   1   8
ATOM      5  C   UNL     1       5.781   3.552  12.977  0.00  0.00    +0.000 C 
ATOM      6  C   UNL     1       6.080   4.081  14.327  0.00  0.00    +0.000 A 
ATOM      7  C   UNL     1       6.393   5.408  14.717  0.00  0.00    +0.000 A 
ATOM      8  C   UNL     1       6.512   5.369  16.090  0.00  0.00    +0.000 A 
ATOM      9  N   UNL     1       6.340   4.051  16.411  0.00  0.00    +0.000 N 
ATOM     10  N   UNL     1       6.051   3.252  15.377  0.00  0.00    +0.000 NA
ATOM     11  H   UNL     1       6.338   3.675  17.354  0.00  0.00    +0.000 HD
ENDBRANCH   1   8
BRANCH   3  12
ATOM     12  N   UNL     1       4.742   5.689  18.191  0.00  0.00    +0.000 NA
ATOM     13  C   UNL     1       4.399   5.138  19.311  0.00  0.00    +0.000 C 
BRANCH  13  14
ATOM     14  C   UNL     1       3.141   4.362  19.394  0.00  0.00    +0.000 A 
ATOM     15  C   UNL     1       2.129   4.736  20.274  0.00  0.00    +0.000 A 
ATOM     16  C   UNL     1       0.973   3.969  20.318  0.00  0.00    +0.000 A 
ATOM     17  C   UNL     1       0.870   2.856  19.492  0.00  0.00    +0.000 A 
ATOM     18  C   UNL     1       1.934   2.558  18.651  0.00  0.00    +0.000 A 
ATOM     19  N   UNL     1       3.072   3.285  18.577  0.00  0.00    +0.000 NA
ENDBRANCH  13  14
ENDBRANCH   3  12
TORSDOF 3
ENDMDL
MODEL 8
REMARK VINA RESULT:      -6.9      1.248      1.373
REMARK  Name = 
REMARK  4 active torsions:
REMARK  status: ('A' for Active; 'I' for Inactive)
REMARK    1  A    between atoms: C_1  and  C_2
REMARK    2  A    between atoms: C_4  and  C_5
REMARK    3  A    between atoms: N_7  and  N_8
REMARK    4  A    between atoms: C_9  and  C_10
REMARK                            x       y       z     vdW  Elec       q    Type
REMARK                         _______ _______ _______ _____ _____    ______ ____
ROOT
ATOM      1  C   UNL     1       7.490   6.052  18.573  0.00  0.00    +0.000 C 
ATOM      2  O   UNL     1       8.300   6.954  18.790  0.00  0.00    +0.000 OA
ATOM      3  N   UNL     1       6.807   5.465  19.641  0.00  0.00    +0.000 N 
ATOM      4  H   UNL     1       6.981   5.857  20.561  0.00  0.00    +0.000 HD
ENDROOT
BRANCH   1   8
ATOM      5  C   UNL     1       5.549   4.942  14.009  0.00  0.00    +0.000 C 
ATOM      6  C   UNL     1       6.352   5.035  15.250  0.00  0.00    +0.000 A 
ATOM      7  C   UNL     1       6.238   5.960  16.319  0.00  0.00    +0.000 A 
ATOM      8  C   UNL     1       7.174   5.561  17.250  0.00  0.00    +0.000 A 
ATOM      9  N   UNL     1       7.812   4.505  16.662  0.00  0.00    +0.000 N 
ATOM     10  N   UNL     1       7.325   4.144  15.469  0.00  0.00    +0.000 NA
ATOM     11  H   UNL     1       8.547   3.953  17.094  0.00  0.00    +0.000 HD
ENDBRANCH   1   8
BRANCH   3  12
ATOM     12  N   UNL     1       5.751   4.627  19.430  0.00  0.00    +0.000 NA
ATOM     13  C   UNL     1       4.556   5.119  19.474  0.00  0.00    +0.000 C 
BRANCH  13  14
ATOM     14  C   UNL     1       3.391   4.251  19.184  0.00  0.00    +0.000 A 
ATOM     15  C   UNL     1       2.461   4.608  18.213  0.00  0.00    +0.000 A 
ATOM     16  C   UNL     1       1.383   3.762  17.985  0.00  0.00    +0.000 A 
ATOM     17  C   UNL     1       1.269   2.600  18.737  0.00  0.00    +0.000 A 
ATOM     18  C   UNL     1       2.244   2.330  19.688  0.00  0.00    +0.000 A 
ATOM     19  N   UNL     1       3.309   3.127  19.932  0.00  0.00    +0.000 NA
ENDBRANCH  13  14
ENDBRANCH   3  12
TORSDOF 3
ENDMDL
MODEL 9
REMARK VINA RESULT:      -6.9      1.487      1.854
REMARK  Name = 
REMARK  4 active torsions:
REMARK  status: ('A' for Active; 'I' for Inactive)
REMARK    1  A    between atoms: C_1  and  C_2
REMARK    2  A    between atoms: C_4  and  C_5
REMARK    3  A    between atoms: N_7  and  N_8
REMARK    4  A    between atoms: C_9  and  C_10
REMARK                            x       y       z     vdW  Elec       q    Type
REMARK                         _______ _______ _______ _____ _____    ______ ____
ROOT
ATOM      1  C   UNL     1       6.898   6.360  16.976  0.00  0.00    +0.000 C 
ATOM      2  O   UNL     1       7.840   7.143  16.856  0.00  0.00    +0.000 OA
ATOM      3  N   UNL     1       6.047   6.465  18.079  0.00  0.00    +0.000 N 
ATOM      4  H   UNL     1       6.225   7.236  18.716  0.00  0.00    +0.000 HD
ENDROOT
BRANCH   1   8
ATOM      5  C   UNL     1       5.721   3.510  12.936  0.00  0.00    +0.000 C 
ATOM      6  C   UNL     1       6.064   4.039  14.276  0.00  0.00    +0.000 A 
ATOM      7  C   UNL     1       6.463   5.350  14.642  0.00  0.00    +0.000 A 
ATOM      8  C   UNL     1       6.591   5.324  16.015  0.00  0.00    +0.000 A 
ATOM      9  N   UNL     1       6.341   4.025  16.357  0.00  0.00    +0.000 N 
ATOM     10  N   UNL     1       5.994   3.229  15.338  0.00  0.00    +0.000 NA
ATOM     11  H   UNL     1       6.325   3.663  17.306  0.00  0.00    +0.000 HD
ENDBRANCH   1   8
BRANCH   3  12
ATOM     12  N   UNL     1       4.875   5.771  18.136  0.00  0.00    +0.000 NA
ATOM     13  C   UNL     1       4.511   5.268  19.272  0.00  0.00    +0.000 C 
BRANCH  13  14
ATOM     14  C   UNL     1       3.212   4.565  19.383  0.00  0.00    +0.000 A 
ATOM     15  C   UNL     1       2.669   3.895  18.291  0.00  0.00    +0.000 A 
ATOM     16  C   UNL     1       1.445   3.258  18.446  0.00  0.00    +0.000 A 
ATOM     17  C   UNL     1       0.806   3.320  19.678  0.00  0.00    +0.000 A 
ATOM     18  C   UNL     1       1.422   4.017  20.708  0.00  0.00    +0.000 A 
ATOM     19  N   UNL     1       2.616   4.643  20.594  0.00  0.00    +0.000 NA
ENDBRANCH  13  14
ENDBRANCH   3  12
TORSDOF 3
ENDMDL
