MODEL 1
REMARK VINA RESULT:      -9.0      0.000      0.000
REMARK  Name = 
REMARK  4 active torsions:
REMARK  status: ('A' for Active; 'I' for Inactive)
REMARK    1  A    between atoms: C_1  and  C_2
REMARK    2  A    between atoms: C_7  and  S_8
REMARK    3  A    between atoms: S_8  and  N_11
REMARK    4  A    between atoms: C_12  and  C_13
REMARK                            x       y       z     vdW  Elec       q    Type
REMARK                         _______ _______ _______ _____ _____    ______ ____
ROOT
ATOM      1  N   UNL     1       4.508   6.170  19.156  0.00  0.00    +0.000 NA
ATOM      2  C   UNL     1       3.236   5.979  19.327  0.00  0.00    +0.000 C 
ATOM      3  N   UNL     1       2.521   4.793  19.430  0.00  0.00    +0.000 N 
ATOM      4  C   UNL     1       2.547   3.768  18.376  0.00  0.00    +0.000 C 
ATOM      5  C   UNL     1       1.217   3.005  18.384  0.00  0.00    +0.000 C 
ATOM      6  O   UNL     1       0.985   2.391  19.663  0.00  0.00    +0.000 OA
ATOM      7  C   UNL     1       0.956   3.380  20.705  0.00  0.00    +0.000 C 
ATOM      8  C   UNL     1       2.253   4.208  20.758  0.00  0.00    +0.000 C 
ENDROOT
BRANCH   2   9
ATOM      9  C   UNL     1       2.384   7.234  19.393  0.00  0.00    +0.000 A 
ATOM     10  C   UNL     1       2.229   8.034  18.250  0.00  0.00    +0.000 A 
ATOM     11  C   UNL     1       1.487   9.216  18.303  0.00  0.00    +0.000 A 
ATOM     12  C   UNL     1       0.882   9.604  19.496  0.00  0.00    +0.000 A 
ATOM     13  C   UNL     1       1.016   8.809  20.635  0.00  0.00    +0.000 A 
ATOM     14  C   UNL     1       1.768   7.628  20.588  0.00  0.00    +0.000 A 
ENDBRANCH   2   9
BRANCH   1  15
ATOM     15  S   UNL     1       5.573   4.956  19.029  0.00  0.00    +0.000 S 
ATOM     16  O   UNL     1       4.897   3.702  19.312  0.00  0.00    +0.000 OA
ATOM     17  O   UNL     1       6.798   5.323  19.716  0.00  0.00    +0.000 OA
BRANCH  15  24
ATOM     18  C   UNL     1       7.435   6.967  17.449  0.00  0.00    +0.000 C 
ATOM     19  C   UNL     1       6.868   5.792  16.699  0.00  0.00    +0.000 A 
ATOM     20  C   UNL     1       7.224   5.626  15.349  0.00  0.00    +0.000 A 
ATOM     21  C   UNL     1       6.742   4.548  14.607  0.00  0.00    +0.000 A 
ATOM     22  C   UNL     1       5.894   3.616  15.199  0.00  0.00    +0.000 A 
ATOM     23  C   UNL     1       5.526   3.757  16.539  0.00  0.00    +0.000 A 
ATOM     24  C   UNL     1       6.008   4.839  17.288  0.00  0.00    +0.000 A 
ENDBRANCH  15  24
ENDBRANCH   1  15
TORSDOF 3
ENDMDL
MODEL 2
REMARK VINA RESULT:      -8.9      1.133      1.661
REMARK  Name = 
REMARK  4 active torsions:
REMARK  status: ('A' for Active; 'I' for Inactive)
REMARK    1  A    between atoms: C_1  and  C_2
REMARK    2  A    between atoms: C_7  and  S_8
REMARK    3  A    between atoms: S_8  and  N_11
REMARK    4  A    between atoms: C_12  and  C_13
REMARK                            x       y       z     vdW  Elec       q    Type
REMARK                         _______ _______ _______ _____ _____    ______ ____
ROOT
ATOM      1  N   UNL     1       3.992   5.528  17.696  0.00  0.00    +0.000 NA
ATOM      2  C   UNL     1       3.057   5.618  18.590  0.00  0.00    +0.000 C 
ATOM      3  N   UNL     1       2.486   4.631  19.384  0.00  0.00    +0.000 N 
ATOM      4  C   UNL     1       1.841   3.440  18.810  0.00  0.00    +0.000 C 
ATOM      5  C   UNL     1       0.737   2.961  19.760  0.00  0.00    +0.000 C 
ATOM      6  O   UNL     1       1.274   2.654  21.058  0.00  0.00    +0.000 OA
ATOM      7  C   UNL     1       1.907   3.808  21.632  0.00  0.00    +0.000 C 
ATOM      8  C   UNL     1       3.023   4.369  20.732  0.00  0.00    +0.000 C 
ENDROOT
BRANCH   2   9
ATOM      9  C   UNL     1       2.464   7.002  18.787  0.00  0.00    +0.000 A 
ATOM     10  C   UNL     1       1.934   7.364  20.035  0.00  0.00    +0.000 A 
ATOM     11  C   UNL     1       1.342   8.615  20.223  0.00  0.00    +0.000 A 
ATOM     12  C   UNL     1       1.284   9.521  19.167  0.00  0.00    +0.000 A 
ATOM     13  C   UNL     1       1.821   9.179  17.926  0.00  0.00    +0.000 A 
ATOM     14  C   UNL     1       2.406   7.921  17.732  0.00  0.00    +0.000 A 
ENDBRANCH   2   9
BRANCH   1  15
ATOM     15  S   UNL     1       4.722   4.130  17.322  0.00  0.00    +0.000 S 
ATOM     16  O   UNL     1       3.721   3.177  16.877  0.00  0.00    +0.000 OA
ATOM     17  O   UNL     1       5.670   3.793  18.369  0.00  0.00    +0.000 OA
BRANCH  15  24
ATOM     18  C   UNL     1       7.197   6.094  17.148  0.00  0.00    +0.000 C 
ATOM     19  C   UNL     1       6.809   5.336  15.908  0.00  0.00    +0.000 A 
ATOM     20  C   UNL     1       7.586   5.507  14.749  0.00  0.00    +0.000 A 
ATOM     21  C   UNL     1       7.284   4.820  13.574  0.00  0.00    +0.000 A 
ATOM     22  C   UNL     1       6.199   3.948  13.534  0.00  0.00    +0.000 A 
ATOM     23  C   UNL     1       5.412   3.758  14.671  0.00  0.00    +0.000 A 
ATOM     24  C   UNL     1       5.712   4.448  15.854  0.00  0.00    +0.000 A 
ENDBRANCH  15  24
ENDBRANCH   1  15
TORSDOF 3
ENDMDL
MODEL 3
REMARK VINA RESULT:      -8.2      7.391      9.380
REMARK  Name = 
REMARK  4 active torsions:
REMARK  status: ('A' for Active; 'I' for Inactive)
REMARK    1  A    between atoms: C_1  and  C_2
REMARK    2  A    between atoms: C_7  and  S_8
REMARK    3  A    between atoms: S_8  and  N_11
REMARK    4  A    between atoms: C_12  and  C_13
REMARK                            x       y       z     vdW  Elec       q    Type
REMARK                         _______ _______ _______ _____ _____    ______ ____
ROOT
ATOM      1  N   UNL     1      -0.029  12.993  19.170  0.00  0.00    +0.000 NA
ATOM      2  C   UNL     1      -0.632  12.000  19.745  0.00  0.00    +0.000 C 
ATOM      3  N   UNL     1      -0.324  11.336  20.927  0.00  0.00    +0.000 N 
ATOM      4  C   UNL     1       0.979  10.692  21.147  0.00  0.00    +0.000 C 
ATOM      5  C   UNL     1       0.797   9.505  22.101  0.00  0.00    +0.000 C 
ATOM      6  O   UNL     1       0.241   9.934  23.355  0.00  0.00    +0.000 OA
ATOM      7  C   UNL     1      -1.035  10.565  23.156  0.00  0.00    +0.000 C 
ATOM      8  C   UNL     1      -0.947  11.764  22.194  0.00  0.00    +0.000 C 
ENDROOT
BRANCH   2   9
ATOM      9  C   UNL     1      -1.839  11.445  19.010  0.00  0.00    +0.000 A 
ATOM     10  C   UNL     1      -1.700  10.308  18.198  0.00  0.00    +0.000 A 
ATOM     11  C   UNL     1      -2.788   9.810  17.478  0.00  0.00    +0.000 A 
ATOM     12  C   UNL     1      -4.028  10.436  17.571  0.00  0.00    +0.000 A 
ATOM     13  C   UNL     1      -4.182  11.558  18.386  0.00  0.00    +0.000 A 
ATOM     14  C   UNL     1      -3.090  12.066  19.102  0.00  0.00    +0.000 A 
ENDBRANCH   2   9
BRANCH   1  15
ATOM     15  S   UNL     1       1.295  13.697  19.784  0.00  0.00    +0.000 S 
ATOM     16  O   UNL     1       2.446  12.853  19.520  0.00  0.00    +0.000 OA
ATOM     17  O   UNL     1       1.002  14.174  21.124  0.00  0.00    +0.000 OA
BRANCH  15  24
ATOM     18  C   UNL     1      -0.710  16.117  19.419  0.00  0.00    +0.000 C 
ATOM     19  C   UNL     1       0.624  16.196  18.728  0.00  0.00    +0.000 A 
ATOM     20  C   UNL     1       0.928  17.353  17.990  0.00  0.00    +0.000 A 
ATOM     21  C   UNL     1       2.155  17.490  17.341  0.00  0.00    +0.000 A 
ATOM     22  C   UNL     1       3.102  16.472  17.416  0.00  0.00    +0.000 A 
ATOM     23  C   UNL     1       2.826  15.312  18.144  0.00  0.00    +0.000 A 
ATOM     24  C   UNL     1       1.594  15.171  18.798  0.00  0.00    +0.000 A 
ENDBRANCH  15  24
ENDBRANCH   1  15
TORSDOF 3
ENDMDL
MODEL 4
REMARK VINA RESULT:      -8.1      5.302      7.635
REMARK  Name = 
REMARK  4 active torsions:
REMARK  status: ('A' for Active; 'I' for Inactive)
REMARK    1  A    between atoms: C_1  and  C_2
REMARK    2  A    between atoms: C_7  and  S_8
REMARK    3  A    between atoms: S_8  and  N_11
REMARK    4  A    between atoms: C_12  and  C_13
REMARK                            x       y       z     vdW  Elec       q    Type
REMARK                         _______ _______ _______ _____ _____    ______ ____
ROOT
ATOM      1  N   UNL     1      -0.653   9.787  19.275  0.00  0.00    +0.000 NA
ATOM      2  C   UNL     1      -1.379  10.859  19.213  0.00  0.00    +0.000 C 
ATOM      3  N   UNL     1      -1.394  11.973  20.044  0.00  0.00    +0.000 N 
ATOM      4  C   UNL     1      -1.646  11.869  21.489  0.00  0.00    +0.000 C 
ATOM      5  C   UNL     1      -2.306  13.165  21.977  0.00  0.00    +0.000 C 
ATOM      6  O   UNL     1      -1.471  14.302  21.703  0.00  0.00    +0.000 OA
ATOM      7  C   UNL     1      -1.217  14.417  20.293  0.00  0.00    +0.000 C 
ATOM      8  C   UNL     1      -0.566  13.148  19.713  0.00  0.00    +0.000 C 
ENDROOT
BRANCH   2   9
ATOM      9  C   UNL     1      -2.396  10.904  18.086  0.00  0.00    +0.000 A 
ATOM     10  C   UNL     1      -2.105  10.287  16.858  0.00  0.00    +0.000 A 
ATOM     11  C   UNL     1      -3.007  10.357  15.795  0.00  0.00    +0.000 A 
ATOM     12  C   UNL     1      -4.214  11.034  15.950  0.00  0.00    +0.000 A 
ATOM     13  C   UNL     1      -4.520  11.639  17.170  0.00  0.00    +0.000 A 
ATOM     14  C   UNL     1      -3.613  11.579  18.235  0.00  0.00    +0.000 A 
ENDBRANCH   2   9
BRANCH   1  15
ATOM     15  S   UNL     1       0.461   9.542  20.425  0.00  0.00    +0.000 S 
ATOM     16  O   UNL     1      -0.193   9.038  21.620  0.00  0.00    +0.000 OA
ATOM     17  O   UNL     1       1.349  10.689  20.480  0.00  0.00    +0.000 OA
BRANCH  15  24
ATOM     18  C   UNL     1       2.020   9.390  17.676  0.00  0.00    +0.000 C 
ATOM     19  C   UNL     1       2.142   8.226  18.621  0.00  0.00    +0.000 A 
ATOM     20  C   UNL     1       2.970   7.151  18.255  0.00  0.00    +0.000 A 
ATOM     21  C   UNL     1       3.135   6.052  19.097  0.00  0.00    +0.000 A 
ATOM     22  C   UNL     1       2.474   6.005  20.322  0.00  0.00    +0.000 A 
ATOM     23  C   UNL     1       1.646   7.061  20.711  0.00  0.00    +0.000 A 
ATOM     24  C   UNL     1       1.478   8.167  19.867  0.00  0.00    +0.000 A 
ENDBRANCH  15  24
ENDBRANCH   1  15
TORSDOF 3
ENDMDL
MODEL 5
REMARK VINA RESULT:      -8.1      5.431      7.839
REMARK  Name = 
REMARK  4 active torsions:
REMARK  status: ('A' for Active; 'I' for Inactive)
REMARK    1  A    between atoms: C_1  and  C_2
REMARK    2  A    between atoms: C_7  and  S_8
REMARK    3  A    between atoms: S_8  and  N_11
REMARK    4  A    between atoms: C_12  and  C_13
REMARK                            x       y       z     vdW  Elec       q    Type
REMARK                         _______ _______ _______ _____ _____    ______ ____
ROOT
ATOM      1  N   UNL     1      -0.727   9.982  19.378  0.00  0.00    +0.000 NA
ATOM      2  C   UNL     1      -1.458  11.053  19.345  0.00  0.00    +0.000 C 
ATOM      3  N   UNL     1      -1.483  12.141  20.209  0.00  0.00    +0.000 N 
ATOM      4  C   UNL     1      -1.740  11.992  21.650  0.00  0.00    +0.000 C 
ATOM      5  C   UNL     1      -2.409  13.268  22.174  0.00  0.00    +0.000 C 
ATOM      6  O   UNL     1      -1.578  14.418  21.938  0.00  0.00    +0.000 OA
ATOM      7  C   UNL     1      -1.319  14.577  20.534  0.00  0.00    +0.000 C 
ATOM      8  C   UNL     1      -0.659  13.330  19.918  0.00  0.00    +0.000 C 
ENDROOT
BRANCH   2   9
ATOM      9  C   UNL     1      -2.470  11.127  18.215  0.00  0.00    +0.000 A 
ATOM     10  C   UNL     1      -3.745  11.664  18.454  0.00  0.00    +0.000 A 
ATOM     11  C   UNL     1      -4.705  11.698  17.440  0.00  0.00    +0.000 A 
ATOM     12  C   UNL     1      -4.396  11.206  16.174  0.00  0.00    +0.000 A 
ATOM     13  C   UNL     1      -3.128  10.683  15.921  0.00  0.00    +0.000 A 
ATOM     14  C   UNL     1      -2.166  10.638  16.939  0.00  0.00    +0.000 A 
ENDBRANCH   2   9
BRANCH   1  15
ATOM     15  S   UNL     1       0.384   9.708  20.525  0.00  0.00    +0.000 S 
ATOM     16  O   UNL     1      -0.280   9.220  21.720  0.00  0.00    +0.000 OA
ATOM     17  O   UNL     1       1.300  10.833  20.579  0.00  0.00    +0.000 OA
BRANCH  15  24
ATOM     18  C   UNL     1       1.938   9.524  17.775  0.00  0.00    +0.000 C 
ATOM     19  C   UNL     1       2.030   8.355  18.717  0.00  0.00    +0.000 A 
ATOM     20  C   UNL     1       2.830   7.260  18.347  0.00  0.00    +0.000 A 
ATOM     21  C   UNL     1       2.966   6.154  19.186  0.00  0.00    +0.000 A 
ATOM     22  C   UNL     1       2.304   6.121  20.410  0.00  0.00    +0.000 A 
ATOM     23  C   UNL     1       1.504   7.197  20.803  0.00  0.00    +0.000 A 
ATOM     24  C   UNL     1       1.365   8.310  19.962  0.00  0.00    +0.000 A 
ENDBRANCH  15  24
ENDBRANCH   1  15
TORSDOF 3
ENDMDL
MODEL 6
REMARK VINA RESULT:      -7.9      1.949      5.916
REMARK  Name = 
REMARK  4 active torsions:
REMARK  status: ('A' for Active; 'I' for Inactive)
REMARK    1  A    between atoms: C_1  and  C_2
REMARK    2  A    between atoms: C_7  and  S_8
REMARK    3  A    between atoms: S_8  and  N_11
REMARK    4  A    between atoms: C_12  and  C_13
REMARK                            x       y       z     vdW  Elec       q    Type
REMARK                         _______ _______ _______ _____ _____    ______ ____
ROOT
ATOM      1  N   UNL     1       3.658   6.047  17.868  0.00  0.00    +0.000 NA
ATOM      2  C   UNL     1       4.214   4.902  17.619  0.00  0.00    +0.000 C 
ATOM      3  N   UNL     1       4.045   3.675  18.248  0.00  0.00    +0.000 N 
ATOM      4  C   UNL     1       4.283   3.493  19.688  0.00  0.00    +0.000 C 
ATOM      5  C   UNL     1       4.730   2.048  19.943  0.00  0.00    +0.000 C 
ATOM      6  O   UNL     1       3.737   1.115  19.486  0.00  0.00    +0.000 OA
ATOM      7  C   UNL     1       3.494   1.280  18.079  0.00  0.00    +0.000 C 
ATOM      8  C   UNL     1       3.054   2.713  17.729  0.00  0.00    +0.000 C 
ENDROOT
BRANCH   2   9
ATOM      9  C   UNL     1       5.232   4.895  16.493  0.00  0.00    +0.000 A 
ATOM     10  C   UNL     1       4.859   4.442  15.217  0.00  0.00    +0.000 A 
ATOM     11  C   UNL     1       5.793   4.384  14.180  0.00  0.00    +0.000 A 
ATOM     12  C   UNL     1       7.106   4.788  14.405  0.00  0.00    +0.000 A 
ATOM     13  C   UNL     1       7.485   5.254  15.665  0.00  0.00    +0.000 A 
ATOM     14  C   UNL     1       6.553   5.304  16.709  0.00  0.00    +0.000 A 
ENDBRANCH   2   9
BRANCH   1  15
ATOM     15  S   UNL     1       2.572   6.261  19.052  0.00  0.00    +0.000 S 
ATOM     16  O   UNL     1       3.250   6.189  20.335  0.00  0.00    +0.000 OA
ATOM     17  O   UNL     1       1.399   5.452  18.774  0.00  0.00    +0.000 OA
BRANCH  15  24
ATOM     18  C   UNL     1       0.963   7.838  21.273  0.00  0.00    +0.000 C 
ATOM     19  C   UNL     1       1.326   8.570  20.011  0.00  0.00    +0.000 A 
ATOM     20  C   UNL     1       0.967   9.925  19.897  0.00  0.00    +0.000 A 
ATOM     21  C   UNL     1       1.290  10.660  18.757  0.00  0.00    +0.000 A 
ATOM     22  C   UNL     1       1.976  10.056  17.707  0.00  0.00    +0.000 A 
ATOM     23  C   UNL     1       2.346   8.712  17.795  0.00  0.00    +0.000 A 
ATOM     24  C   UNL     1       2.023   7.969  18.939  0.00  0.00    +0.000 A 
ENDBRANCH  15  24
ENDBRANCH   1  15
TORSDOF 3
ENDMDL
MODEL 7
REMARK VINA RESULT:      -7.8      2.448      6.295
REMARK  Name = 
REMARK  4 active torsions:
REMARK  status: ('A' for Active; 'I' for Inactive)
REMARK    1  A    between atoms: C_1  and  C_2
REMARK    2  A    between atoms: C_7  and  S_8
REMARK    3  A    between atoms: S_8  and  N_11
REMARK    4  A    between atoms: C_12  and  C_13
REMARK                            x       y       z     vdW  Elec       q    Type
REMARK                         _______ _______ _______ _____ _____    ______ ____
ROOT
ATOM      1  N   UNL     1       2.344   7.304  19.517  0.00  0.00    +0.000 NA
ATOM      2  C   UNL     1       2.620   6.066  19.249  0.00  0.00    +0.000 C 
ATOM      3  N   UNL     1       2.195   4.902  19.879  0.00  0.00    +0.000 N 
ATOM      4  C   UNL     1       2.425   4.659  21.311  0.00  0.00    +0.000 C 
ATOM      5  C   UNL     1       2.541   3.148  21.550  0.00  0.00    +0.000 C 
ATOM      6  O   UNL     1       1.351   2.467  21.119  0.00  0.00    +0.000 OA
ATOM      7  C   UNL     1       1.114   2.695  19.720  0.00  0.00    +0.000 C 
ATOM      8  C   UNL     1       0.999   4.194  19.386  0.00  0.00    +0.000 C 
ENDROOT
BRANCH   2   9
ATOM      9  C   UNL     1       3.580   5.839  18.094  0.00  0.00    +0.000 A 
ATOM     10  C   UNL     1       4.101   6.938  17.394  0.00  0.00    +0.000 A 
ATOM     11  C   UNL     1       4.949   6.748  16.300  0.00  0.00    +0.000 A 
ATOM     12  C   UNL     1       5.292   5.459  15.902  0.00  0.00    +0.000 A 
ATOM     13  C   UNL     1       4.792   4.359  16.600  0.00  0.00    +0.000 A 
ATOM     14  C   UNL     1       3.934   4.546  17.691  0.00  0.00    +0.000 A 
ENDBRANCH   2   9
BRANCH   1  15
ATOM     15  S   UNL     1       1.367   7.746  20.732  0.00  0.00    +0.000 S 
ATOM     16  O   UNL     1       2.171   8.033  21.906  0.00  0.00    +0.000 OA
ATOM     17  O   UNL     1       0.241   6.831  20.795  0.00  0.00    +0.000 OA
BRANCH  15  24
ATOM     18  C   UNL     1      -0.464   9.563  22.564  0.00  0.00    +0.000 C 
ATOM     19  C   UNL     1      -0.118  10.068  21.191  0.00  0.00    +0.000 A 
ATOM     20  C   UNL     1      -0.591  11.335  20.806  0.00  0.00    +0.000 A 
ATOM     21  C   UNL     1      -0.290  11.863  19.550  0.00  0.00    +0.000 A 
ATOM     22  C   UNL     1       0.489  11.135  18.655  0.00  0.00    +0.000 A 
ATOM     23  C   UNL     1       0.973   9.875  19.013  0.00  0.00    +0.000 A 
ATOM     24  C   UNL     1       0.672   9.341  20.273  0.00  0.00    +0.000 A 
ENDBRANCH  15  24
ENDBRANCH   1  15
TORSDOF 3
ENDMDL
MODEL 8
REMARK VINA RESULT:      -7.8      5.697      8.599
REMARK  Name = 
REMARK  4 active torsions:
REMARK  status: ('A' for Active; 'I' for Inactive)
REMARK    1  A    between atoms: C_1  and  C_2
REMARK    2  A    between atoms: C_7  and  S_8
REMARK    3  A    between atoms: S_8  and  N_11
REMARK    4  A    between atoms: C_12  and  C_13
REMARK                            x       y       z     vdW  Elec       q    Type
REMARK                         _______ _______ _______ _____ _____    ______ ____
ROOT
ATOM      1  N   UNL     1       0.363  12.505  18.590  0.00  0.00    +0.000 NA
ATOM      2  C   UNL     1      -0.065  11.303  18.819  0.00  0.00    +0.000 C 
ATOM      3  N   UNL     1       0.614  10.196  19.316  0.00  0.00    +0.000 N 
ATOM      4  C   UNL     1       1.818   9.659  18.665  0.00  0.00    +0.000 C 
ATOM      5  C   UNL     1       1.903   8.151  18.933  0.00  0.00    +0.000 C 
ATOM      6  O   UNL     1       1.943   7.882  20.345  0.00  0.00    +0.000 OA
ATOM      7  C   UNL     1       0.771   8.400  20.995  0.00  0.00    +0.000 C 
ATOM      8  C   UNL     1       0.598   9.913  20.763  0.00  0.00    +0.000 C 
ENDROOT
BRANCH   2   9
ATOM      9  C   UNL     1      -1.517  11.040  18.464  0.00  0.00    +0.000 A 
ATOM     10  C   UNL     1      -1.844   9.987  17.595  0.00  0.00    +0.000 A 
ATOM     11  C   UNL     1      -3.170   9.759  17.220  0.00  0.00    +0.000 A 
ATOM     12  C   UNL     1      -4.184  10.573  17.719  0.00  0.00    +0.000 A 
ATOM     13  C   UNL     1      -3.872  11.614  18.595  0.00  0.00    +0.000 A 
ATOM     14  C   UNL     1      -2.543  11.852  18.965  0.00  0.00    +0.000 A 
ENDBRANCH   2   9
BRANCH   1  15
ATOM     15  S   UNL     1       1.890  12.967  18.873  0.00  0.00    +0.000 S 
ATOM     16  O   UNL     1       2.767  12.321  17.911  0.00  0.00    +0.000 OA
ATOM     17  O   UNL     1       2.154  12.893  20.299  0.00  0.00    +0.000 OA
BRANCH  15  24
ATOM     18  C   UNL     1      -0.264  15.164  19.608  0.00  0.00    +0.000 C 
ATOM     19  C   UNL     1       0.962  15.602  18.854  0.00  0.00    +0.000 A 
ATOM     20  C   UNL     1       1.108  16.967  18.550  0.00  0.00    +0.000 A 
ATOM     21  C   UNL     1       2.231  17.434  17.867  0.00  0.00    +0.000 A 
ATOM     22  C   UNL     1       3.229  16.547  17.474  0.00  0.00    +0.000 A 
ATOM     23  C   UNL     1       3.110  15.187  17.765  0.00  0.00    +0.000 A 
ATOM     24  C   UNL     1       1.983  14.713  18.451  0.00  0.00    +0.000 A 
ENDBRANCH  15  24
ENDBRANCH   1  15
TORSDOF 3
ENDMDL
MODEL 9
REMARK VINA RESULT:      -7.7      7.395      9.552
REMARK  Name = 
REMARK  4 active torsions:
REMARK  status: ('A' for Active; 'I' for Inactive)
REMARK    1  A    between atoms: C_1  and  C_2
REMARK    2  A    between atoms: C_7  and  S_8
REMARK    3  A    between atoms: S_8  and  N_11
REMARK    4  A    between atoms: C_12  and  C_13
REMARK                            x       y       z     vdW  Elec       q    Type
REMARK                         _______ _______ _______ _____ _____    ______ ____
ROOT
ATOM      1  N   UNL     1      -0.357  13.122  19.158  0.00  0.00    +0.000 NA
ATOM      2  C   UNL     1      -0.858  12.071  19.729  0.00  0.00    +0.000 C 
ATOM      3  N   UNL     1      -0.443  11.394  20.869  0.00  0.00    +0.000 N 
ATOM      4  C   UNL     1       0.912  10.836  20.999  0.00  0.00    +0.000 C 
ATOM      5  C   UNL     1       0.863   9.609  21.919  0.00  0.00    +0.000 C 
ATOM      6  O   UNL     1       0.347   9.958  23.214  0.00  0.00    +0.000 OA
ATOM      7  C   UNL     1      -0.978  10.505  23.104  0.00  0.00    +0.000 C 
ATOM      8  C   UNL     1      -1.024  11.737  22.181  0.00  0.00    +0.000 C 
ENDROOT
BRANCH   2   9
ATOM      9  C   UNL     1      -2.063  11.456  19.038  0.00  0.00    +0.000 A 
ATOM     10  C   UNL     1      -1.907  10.293  18.268  0.00  0.00    +0.000 A 
ATOM     11  C   UNL     1      -2.993   9.739  17.587  0.00  0.00    +0.000 A 
ATOM     12  C   UNL     1      -4.249  10.335  17.679  0.00  0.00    +0.000 A 
ATOM     13  C   UNL     1      -4.418  11.483  18.454  0.00  0.00    +0.000 A 
ATOM     14  C   UNL     1      -3.329  12.047  19.129  0.00  0.00    +0.000 A 
ENDBRANCH   2   9
BRANCH   1  15
ATOM     15  S   UNL     1       0.947  13.897  19.728  0.00  0.00    +0.000 S 
ATOM     16  O   UNL     1       2.143  13.227  19.249  0.00  0.00    +0.000 OA
ATOM     17  O   UNL     1       0.755  14.178  21.140  0.00  0.00    +0.000 OA
BRANCH  15  24
ATOM     18  C   UNL     1       3.549  15.539  18.992  0.00  0.00    +0.000 C 
ATOM     19  C   UNL     1       2.215  16.127  18.620  0.00  0.00    +0.000 A 
ATOM     20  C   UNL     1       2.192  17.353  17.933  0.00  0.00    +0.000 A 
ATOM     21  C   UNL     1       0.986  17.939  17.548  0.00  0.00    +0.000 A 
ATOM     22  C   UNL     1      -0.221  17.312  17.845  0.00  0.00    +0.000 A 
ATOM     23  C   UNL     1      -0.227  16.093  18.526  0.00  0.00    +0.000 A 
ATOM     24  C   UNL     1       0.983  15.501  18.914  0.00  0.00    +0.000 A 
ENDBRANCH  15  24
ENDBRANCH   1  15
TORSDOF 3
ENDMDL
