MODEL 1
REMARK VINA RESULT:      -8.8      0.000      0.000
REMARK  Name = 
REMARK  5 active torsions:
REMARK  status: ('A' for Active; 'I' for Inactive)
REMARK    1  A    between atoms: C_1  and  N_2
REMARK    2  A    between atoms: C_5  and  O_6
REMARK    3  A    between atoms: O_6  and  C_7
REMARK    4  A    between atoms: C_7  and  C_8
REMARK    5  A    between atoms: C_11  and  C_12
REMARK                            x       y       z     vdW  Elec       q    Type
REMARK                         _______ _______ _______ _____ _____    ______ ____
ROOT
ATOM      1  C   UNL     1       2.283   6.980  19.917  0.00  0.00    +0.000 A 
ATOM      2  C   UNL     1       3.465   6.601  19.283  0.00  0.00    +0.000 A 
ATOM      3  C   UNL     1       3.731   5.211  19.501  0.00  0.00    +0.000 A 
ATOM      4  C   UNL     1       4.710   4.256  19.105  0.00  0.00    +0.000 A 
ATOM      5  C   UNL     1       4.552   2.952  19.580  0.00  0.00    +0.000 A 
ATOM      6  C   UNL     1       3.441   2.640  20.352  0.00  0.00    +0.000 A 
ATOM      7  N   UNL     1       2.470   3.509  20.726  0.00  0.00    +0.000 NA
ATOM      8  C   UNL     1       2.675   4.765  20.283  0.00  0.00    +0.000 A 
ATOM      9  N   UNL     1       1.821   5.819  20.521  0.00  0.00    +0.000 N 
ATOM     10  H   UNL     1       0.959   5.706  21.032  0.00  0.00    +0.000 HD
ENDROOT
BRANCH   4  11
ATOM     11  C   UNL     1       5.817   4.639  18.238  0.00  0.00    +0.000 A 
ATOM     12  C   UNL     1       7.081   5.193  18.564  0.00  0.00    +0.000 A 
ATOM     13  N   UNL     1       7.843   5.437  17.500  0.00  0.00    +0.000 NA
ATOM     14  N   UNL     1       7.090   5.051  16.465  0.00  0.00    +0.000 N 
ATOM     15  N   UNL     1       7.580   5.172  15.210  0.00  0.00    +0.000 NA
ATOM     16  C   UNL     1       6.756   4.758  14.305  0.00  0.00    +0.000 A 
ATOM     17  C   UNL     1       5.407   4.199  14.541  0.00  0.00    +0.000 A 
ATOM     18  C   UNL     1       4.990   4.121  15.812  0.00  0.00    +0.000 A 
ATOM     19  C   UNL     1       5.856   4.550  16.853  0.00  0.00    +0.000 A 
ENDBRANCH   4  11
BRANCH   1  20
ATOM     20  C   UNL     1       1.493   8.287  19.934  0.00  0.00    +0.000 C 
BRANCH  20  21
ATOM     21  O   UNL     1       0.681   8.253  21.110  0.00  0.00    +0.000 OA
BRANCH  21  26
ATOM     22  C   UNL     1      -1.905  13.052  22.918  0.00  0.00    +0.000 C 
ATOM     23  N   UNL     1      -0.980  11.990  22.505  0.00  0.00    +0.000 NA
ATOM     24  C   UNL     1      -1.243  10.778  23.279  0.00  0.00    +0.000 C 
ATOM     25  C   UNL     1      -0.221   9.696  22.938  0.00  0.00    +0.000 C 
ATOM     26  C   UNL     1      -0.206   9.359  21.443  0.00  0.00    +0.000 C 
ATOM     27  C   UNL     1      -0.077  10.642  20.612  0.00  0.00    +0.000 C 
ATOM     28  C   UNL     1      -1.092  11.715  21.064  0.00  0.00    +0.000 C 
ENDBRANCH  21  26
ENDBRANCH  20  21
ENDBRANCH   1  20
TORSDOF 4
ENDMDL
MODEL 2
REMARK VINA RESULT:      -8.7      4.319      7.554
REMARK  Name = 
REMARK  5 active torsions:
REMARK  status: ('A' for Active; 'I' for Inactive)
REMARK    1  A    between atoms: C_1  and  N_2
REMARK    2  A    between atoms: C_5  and  O_6
REMARK    3  A    between atoms: O_6  and  C_7
REMARK    4  A    between atoms: C_7  and  C_8
REMARK    5  A    between atoms: C_11  and  C_12
REMARK                            x       y       z     vdW  Elec       q    Type
REMARK                         _______ _______ _______ _____ _____    ______ ____
ROOT
ATOM      1  C   UNL     1       7.548   7.068  17.858  0.00  0.00    +0.000 A 
ATOM      2  C   UNL     1       6.516   6.235  18.285  0.00  0.00    +0.000 A 
ATOM      3  C   UNL     1       6.027   5.440  17.200  0.00  0.00    +0.000 A 
ATOM      4  C   UNL     1       5.058   4.416  17.003  0.00  0.00    +0.000 A 
ATOM      5  C   UNL     1       4.927   3.908  15.708  0.00  0.00    +0.000 A 
ATOM      6  C   UNL     1       5.768   4.373  14.707  0.00  0.00    +0.000 A 
ATOM      7  N   UNL     1       6.724   5.322  14.857  0.00  0.00    +0.000 NA
ATOM      8  C   UNL     1       6.796   5.817  16.108  0.00  0.00    +0.000 A 
ATOM      9  N   UNL     1       7.696   6.780  16.508  0.00  0.00    +0.000 N 
ATOM     10  H   UNL     1       8.388   7.162  15.882  0.00  0.00    +0.000 HD
ENDROOT
BRANCH   4  11
ATOM     11  C   UNL     1       4.252   3.929  18.115  0.00  0.00    +0.000 A 
ATOM     12  C   UNL     1       4.116   2.617  18.637  0.00  0.00    +0.000 A 
ATOM     13  N   UNL     1       3.266   2.540  19.659  0.00  0.00    +0.000 NA
ATOM     14  N   UNL     1       2.833   3.795  19.819  0.00  0.00    +0.000 N 
ATOM     15  N   UNL     1       1.936   4.065  20.795  0.00  0.00    +0.000 NA
ATOM     16  C   UNL     1       1.607   5.314  20.845  0.00  0.00    +0.000 A 
ATOM     17  C   UNL     1       2.115   6.388  19.963  0.00  0.00    +0.000 A 
ATOM     18  C   UNL     1       2.994   6.037  19.015  0.00  0.00    +0.000 A 
ATOM     19  C   UNL     1       3.404   4.681  18.917  0.00  0.00    +0.000 A 
ENDBRANCH   4  11
BRANCH   1  20
ATOM     20  C   UNL     1       8.473   8.031  18.601  0.00  0.00    +0.000 C 
BRANCH  20  21
ATOM     21  O   UNL     1       8.291   9.313  17.995  0.00  0.00    +0.000 OA
BRANCH  21  26
ATOM     22  C   UNL     1      10.626  14.228  19.833  0.00  0.00    +0.000 C 
ATOM     23  N   UNL     1       9.790  13.055  19.551  0.00  0.00    +0.000 NA
ATOM     24  C   UNL     1       9.581  12.933  18.109  0.00  0.00    +0.000 C 
ATOM     25  C   UNL     1       8.627  11.781  17.805  0.00  0.00    +0.000 C 
ATOM     26  C   UNL     1       9.127  10.446  18.367  0.00  0.00    +0.000 C 
ATOM     27  C   UNL     1       9.490  10.598  19.850  0.00  0.00    +0.000 C 
ATOM     28  C   UNL     1      10.395  11.827  20.089  0.00  0.00    +0.000 C 
ENDBRANCH  21  26
ENDBRANCH  20  21
ENDBRANCH   1  20
TORSDOF 4
ENDMDL
MODEL 3
REMARK VINA RESULT:      -8.6      1.320      1.772
REMARK  Name = 
REMARK  5 active torsions:
REMARK  status: ('A' for Active; 'I' for Inactive)
REMARK    1  A    between atoms: C_1  and  N_2
REMARK    2  A    between atoms: C_5  and  O_6
REMARK    3  A    between atoms: O_6  and  C_7
REMARK    4  A    between atoms: C_7  and  C_8
REMARK    5  A    between atoms: C_11  and  C_12
REMARK                            x       y       z     vdW  Elec       q    Type
REMARK                         _______ _______ _______ _____ _____    ______ ____
ROOT
ATOM      1  C   UNL     1       2.166   6.210  20.196  0.00  0.00    +0.000 A 
ATOM      2  C   UNL     1       3.323   5.958  19.460  0.00  0.00    +0.000 A 
ATOM      3  C   UNL     1       3.370   4.588  19.048  0.00  0.00    +0.000 A 
ATOM      4  C   UNL     1       4.227   3.755  18.274  0.00  0.00    +0.000 A 
ATOM      5  C   UNL     1       3.849   2.417  18.131  0.00  0.00    +0.000 A 
ATOM      6  C   UNL     1       2.654   1.985  18.688  0.00  0.00    +0.000 A 
ATOM      7  N   UNL     1       1.794   2.750  19.404  0.00  0.00    +0.000 NA
ATOM      8  C   UNL     1       2.209   4.024  19.555  0.00  0.00    +0.000 A 
ATOM      9  N   UNL     1       1.500   4.993  20.231  0.00  0.00    +0.000 N 
ATOM     10  H   UNL     1       0.597   4.811  20.640  0.00  0.00    +0.000 HD
ENDROOT
BRANCH   4  11
ATOM     11  C   UNL     1       5.436   4.292  17.664  0.00  0.00    +0.000 A 
ATOM     12  C   UNL     1       6.574   4.888  18.265  0.00  0.00    +0.000 A 
ATOM     13  N   UNL     1       7.491   5.285  17.385  0.00  0.00    +0.000 NA
ATOM     14  N   UNL     1       6.967   4.959  16.198  0.00  0.00    +0.000 N 
ATOM     15  N   UNL     1       7.660   5.237  15.071  0.00  0.00    +0.000 NA
ATOM     16  C   UNL     1       7.046   4.865  13.997  0.00  0.00    +0.000 A 
ATOM     17  C   UNL     1       5.724   4.202  13.931  0.00  0.00    +0.000 A 
ATOM     18  C   UNL     1       5.097   3.970  15.091  0.00  0.00    +0.000 A 
ATOM     19  C   UNL     1       5.727   4.345  16.307  0.00  0.00    +0.000 A 
ENDBRANCH   4  11
BRANCH   1  20
ATOM     20  C   UNL     1       1.573   7.490  20.783  0.00  0.00    +0.000 C 
BRANCH  20  21
ATOM     21  O   UNL     1       1.587   8.459  19.732  0.00  0.00    +0.000 OA
BRANCH  21  26
ATOM     22  C   UNL     1      -2.162  12.809  19.875  0.00  0.00    +0.000 C 
ATOM     23  N   UNL     1      -1.463  11.519  19.837  0.00  0.00    +0.000 NA
ATOM     24  C   UNL     1      -0.544  11.490  18.700  0.00  0.00    +0.000 C 
ATOM     25  C   UNL     1       0.113  10.116  18.582  0.00  0.00    +0.000 C 
ATOM     26  C   UNL     1       0.860   9.715  19.859  0.00  0.00    +0.000 C 
ATOM     27  C   UNL     1      -0.053   9.882  21.081  0.00  0.00    +0.000 C 
ATOM     28  C   UNL     1      -0.738  11.266  21.092  0.00  0.00    +0.000 C 
ENDBRANCH  21  26
ENDBRANCH  20  21
ENDBRANCH   1  20
TORSDOF 4
ENDMDL
MODEL 4
REMARK VINA RESULT:      -8.6      2.425      2.920
REMARK  Name = 
REMARK  5 active torsions:
REMARK  status: ('A' for Active; 'I' for Inactive)
REMARK    1  A    between atoms: C_1  and  N_2
REMARK    2  A    between atoms: C_5  and  O_6
REMARK    3  A    between atoms: O_6  and  C_7
REMARK    4  A    between atoms: C_7  and  C_8
REMARK    5  A    between atoms: C_11  and  C_12
REMARK                            x       y       z     vdW  Elec       q    Type
REMARK                         _______ _______ _______ _____ _____    ______ ____
ROOT
ATOM      1  C   UNL     1       2.039   8.606  18.357  0.00  0.00    +0.000 A 
ATOM      2  C   UNL     1       3.237   8.077  17.882  0.00  0.00    +0.000 A 
ATOM      3  C   UNL     1       3.511   6.814  18.498  0.00  0.00    +0.000 A 
ATOM      4  C   UNL     1       4.507   5.800  18.414  0.00  0.00    +0.000 A 
ATOM      5  C   UNL     1       4.350   4.687  19.244  0.00  0.00    +0.000 A 
ATOM      6  C   UNL     1       3.226   4.596  20.052  0.00  0.00    +0.000 A 
ATOM      7  N   UNL     1       2.239   5.521  20.141  0.00  0.00    +0.000 NA
ATOM      8  C   UNL     1       2.443   6.598  19.356  0.00  0.00    +0.000 A 
ATOM      9  N   UNL     1       1.574   7.663  19.264  0.00  0.00    +0.000 N 
ATOM     10  H   UNL     1       0.702   7.690  19.769  0.00  0.00    +0.000 HD
ENDROOT
BRANCH   4  11
ATOM     11  C   UNL     1       5.630   5.932  17.494  0.00  0.00    +0.000 A 
ATOM     12  C   UNL     1       6.787   6.747  17.579  0.00  0.00    +0.000 A 
ATOM     13  N   UNL     1       7.600   6.621  16.532  0.00  0.00    +0.000 NA
ATOM     14  N   UNL     1       6.989   5.728  15.749  0.00  0.00    +0.000 N 
ATOM     15  N   UNL     1       7.564   5.372  14.577  0.00  0.00    +0.000 NA
ATOM     16  C   UNL     1       6.874   4.499  13.922  0.00  0.00    +0.000 A 
ATOM     17  C   UNL     1       5.585   3.906  14.344  0.00  0.00    +0.000 A 
ATOM     18  C   UNL     1       5.076   4.318  15.513  0.00  0.00    +0.000 A 
ATOM     19  C   UNL     1       5.794   5.268  16.286  0.00  0.00    +0.000 A 
ENDBRANCH   4  11
BRANCH   1  20
ATOM     20  C   UNL     1       1.237   9.850  17.980  0.00  0.00    +0.000 C 
BRANCH  20  21
ATOM     21  O   UNL     1       0.260  10.028  19.008  0.00  0.00    +0.000 OA
BRANCH  21  26
ATOM     22  C   UNL     1      -4.887  11.770  17.147  0.00  0.00    +0.000 C 
ATOM     23  N   UNL     1      -3.464  11.506  17.388  0.00  0.00    +0.000 NA
ATOM     24  C   UNL     1      -3.130  11.827  18.776  0.00  0.00    +0.000 C 
ATOM     25  C   UNL     1      -1.632  11.659  19.015  0.00  0.00    +0.000 C 
ATOM     26  C   UNL     1      -1.143  10.245  18.683  0.00  0.00    +0.000 C 
ATOM     27  C   UNL     1      -1.613   9.838  17.280  0.00  0.00    +0.000 C 
ATOM     28  C   UNL     1      -3.122  10.107  17.088  0.00  0.00    +0.000 C 
ENDBRANCH  21  26
ENDBRANCH  20  21
ENDBRANCH   1  20
TORSDOF 4
ENDMDL
MODEL 5
REMARK VINA RESULT:      -8.5      4.510      7.633
REMARK  Name = 
REMARK  5 active torsions:
REMARK  status: ('A' for Active; 'I' for Inactive)
REMARK    1  A    between atoms: C_1  and  N_2
REMARK    2  A    between atoms: C_5  and  O_6
REMARK    3  A    between atoms: O_6  and  C_7
REMARK    4  A    between atoms: C_7  and  C_8
REMARK    5  A    between atoms: C_11  and  C_12
REMARK                            x       y       z     vdW  Elec       q    Type
REMARK                         _______ _______ _______ _____ _____    ______ ____
ROOT
ATOM      1  C   UNL     1       7.448   7.271  17.711  0.00  0.00    +0.000 A 
ATOM      2  C   UNL     1       6.231   6.683  18.049  0.00  0.00    +0.000 A 
ATOM      3  C   UNL     1       5.799   5.789  17.018  0.00  0.00    +0.000 A 
ATOM      4  C   UNL     1       4.713   4.897  16.791  0.00  0.00    +0.000 A 
ATOM      5  C   UNL     1       4.712   4.194  15.582  0.00  0.00    +0.000 A 
ATOM      6  C   UNL     1       5.775   4.350  14.705  0.00  0.00    +0.000 A 
ATOM      7  N   UNL     1       6.844   5.164  14.895  0.00  0.00    +0.000 NA
ATOM      8  C   UNL     1       6.792   5.855  16.051  0.00  0.00    +0.000 A 
ATOM      9  N   UNL     1       7.766   6.732  16.471  0.00  0.00    +0.000 N 
ATOM     10  H   UNL     1       8.608   6.895  15.940  0.00  0.00    +0.000 HD
ENDROOT
BRANCH   4  11
ATOM     11  C   UNL     1       3.661   4.733  17.787  0.00  0.00    +0.000 A 
ATOM     12  C   UNL     1       2.415   5.397  17.914  0.00  0.00    +0.000 A 
ATOM     13  N   UNL     1       1.709   5.000  18.971  0.00  0.00    +0.000 NA
ATOM     14  N   UNL     1       2.482   4.076  19.550  0.00  0.00    +0.000 N 
ATOM     15  N   UNL     1       2.049   3.465  20.677  0.00  0.00    +0.000 NA
ATOM     16  C   UNL     1       2.886   2.591  21.129  0.00  0.00    +0.000 A 
ATOM     17  C   UNL     1       4.196   2.244  20.533  0.00  0.00    +0.000 A 
ATOM     18  C   UNL     1       4.557   2.902  19.423  0.00  0.00    +0.000 A 
ATOM     19  C   UNL     1       3.673   3.866  18.871  0.00  0.00    +0.000 A 
ENDBRANCH   4  11
BRANCH   1  20
ATOM     20  C   UNL     1       8.390   8.205  18.468  0.00  0.00    +0.000 C 
BRANCH  20  21
ATOM     21  O   UNL     1       8.176   9.514  17.933  0.00  0.00    +0.000 OA
BRANCH  21  26
ATOM     22  C   UNL     1      10.910  14.291  19.575  0.00  0.00    +0.000 C 
ATOM     23  N   UNL     1      10.000  13.158  19.372  0.00  0.00    +0.000 NA
ATOM     24  C   UNL     1       9.618  13.078  17.962  0.00  0.00    +0.000 C 
ATOM     25  C   UNL     1       8.588  11.971  17.752  0.00  0.00    +0.000 C 
ATOM     26  C   UNL     1       9.096  10.604  18.225  0.00  0.00    +0.000 C 
ATOM     27  C   UNL     1       9.637  10.707  19.657  0.00  0.00    +0.000 C 
ATOM     28  C   UNL     1      10.614  11.895  19.810  0.00  0.00    +0.000 C 
ENDBRANCH  21  26
ENDBRANCH  20  21
ENDBRANCH   1  20
TORSDOF 4
ENDMDL
MODEL 6
REMARK VINA RESULT:      -8.5      5.087      7.519
REMARK  Name = 
REMARK  5 active torsions:
REMARK  status: ('A' for Active; 'I' for Inactive)
REMARK    1  A    between atoms: C_1  and  N_2
REMARK    2  A    between atoms: C_5  and  O_6
REMARK    3  A    between atoms: O_6  and  C_7
REMARK    4  A    between atoms: C_7  and  C_8
REMARK    5  A    between atoms: C_11  and  C_12
REMARK                            x       y       z     vdW  Elec       q    Type
REMARK                         _______ _______ _______ _____ _____    ______ ____
ROOT
ATOM      1  C   UNL     1       7.598   7.089  17.932  0.00  0.00    +0.000 A 
ATOM      2  C   UNL     1       6.666   6.154  18.379  0.00  0.00    +0.000 A 
ATOM      3  C   UNL     1       6.170   5.374  17.286  0.00  0.00    +0.000 A 
ATOM      4  C   UNL     1       5.275   4.283  17.098  0.00  0.00    +0.000 A 
ATOM      5  C   UNL     1       5.097   3.828  15.788  0.00  0.00    +0.000 A 
ATOM      6  C   UNL     1       5.829   4.409  14.762  0.00  0.00    +0.000 A 
ATOM      7  N   UNL     1       6.714   5.426  14.901  0.00  0.00    +0.000 NA
ATOM      8  C   UNL     1       6.831   5.865  16.170  0.00  0.00    +0.000 A 
ATOM      9  N   UNL     1       7.676   6.879  16.562  0.00  0.00    +0.000 N 
ATOM     10  H   UNL     1       8.291   7.347  15.915  0.00  0.00    +0.000 HD
ENDROOT
BRANCH   4  11
ATOM     11  C   UNL     1       4.587   3.678  18.232  0.00  0.00    +0.000 A 
ATOM     12  C   UNL     1       5.115   3.062  19.395  0.00  0.00    +0.000 A 
ATOM     13  N   UNL     1       4.178   2.598  20.219  0.00  0.00    +0.000 NA
ATOM     14  N   UNL     1       3.028   2.900  19.609  0.00  0.00    +0.000 N 
ATOM     15  N   UNL     1       1.858   2.555  20.195  0.00  0.00    +0.000 NA
ATOM     16  C   UNL     1       0.825   2.910  19.505  0.00  0.00    +0.000 A 
ATOM     17  C   UNL     1       0.843   3.620  18.207  0.00  0.00    +0.000 A 
ATOM     18  C   UNL     1       2.042   3.918  17.688  0.00  0.00    +0.000 A 
ATOM     19  C   UNL     1       3.215   3.564  18.405  0.00  0.00    +0.000 A 
ENDBRANCH   4  11
BRANCH   1  20
ATOM     20  C   UNL     1       8.491   8.089  18.665  0.00  0.00    +0.000 C 
BRANCH  20  21
ATOM     21  O   UNL     1       8.511   9.273  17.864  0.00  0.00    +0.000 OA
BRANCH  21  26
ATOM     22  C   UNL     1      11.057  13.738  20.430  0.00  0.00    +0.000 C 
ATOM     23  N   UNL     1      10.694  12.468  19.788  0.00  0.00    +0.000 NA
ATOM     24  C   UNL     1       9.579  11.853  20.508  0.00  0.00    +0.000 C 
ATOM     25  C   UNL     1       9.258  10.481  19.919  0.00  0.00    +0.000 C 
ATOM     26  C   UNL     1       8.929  10.551  18.424  0.00  0.00    +0.000 C 
ATOM     27  C   UNL     1      10.023  11.325  17.676  0.00  0.00    +0.000 C 
ATOM     28  C   UNL     1      10.345  12.666  18.373  0.00  0.00    +0.000 C 
ENDBRANCH  21  26
ENDBRANCH  20  21
ENDBRANCH   1  20
TORSDOF 4
ENDMDL
MODEL 7
REMARK VINA RESULT:      -8.4      1.413      1.601
REMARK  Name = 
REMARK  5 active torsions:
REMARK  status: ('A' for Active; 'I' for Inactive)
REMARK    1  A    between atoms: C_1  and  N_2
REMARK    2  A    between atoms: C_5  and  O_6
REMARK    3  A    between atoms: O_6  and  C_7
REMARK    4  A    between atoms: C_7  and  C_8
REMARK    5  A    between atoms: C_11  and  C_12
REMARK                            x       y       z     vdW  Elec       q    Type
REMARK                         _______ _______ _______ _____ _____    ______ ____
ROOT
ATOM      1  C   UNL     1       2.187   6.088  20.147  0.00  0.00    +0.000 A 
ATOM      2  C   UNL     1       3.335   5.879  19.385  0.00  0.00    +0.000 A 
ATOM      3  C   UNL     1       3.368   4.540  18.880  0.00  0.00    +0.000 A 
ATOM      4  C   UNL     1       4.211   3.755  18.043  0.00  0.00    +0.000 A 
ATOM      5  C   UNL     1       3.822   2.433  17.814  0.00  0.00    +0.000 A 
ATOM      6  C   UNL     1       2.629   1.972  18.352  0.00  0.00    +0.000 A 
ATOM      7  N   UNL     1       1.782   2.693  19.127  0.00  0.00    +0.000 NA
ATOM      8  C   UNL     1       2.208   3.950  19.360  0.00  0.00    +0.000 A 
ATOM      9  N   UNL     1       1.513   4.876  20.107  0.00  0.00    +0.000 N 
ATOM     10  H   UNL     1       0.612   4.672  20.511  0.00  0.00    +0.000 HD
ENDROOT
BRANCH   4  11
ATOM     11  C   UNL     1       5.419   4.324  17.458  0.00  0.00    +0.000 A 
ATOM     12  C   UNL     1       6.502   4.998  18.077  0.00  0.00    +0.000 A 
ATOM     13  N   UNL     1       7.434   5.402  17.217  0.00  0.00    +0.000 NA
ATOM     14  N   UNL     1       6.976   5.003  16.027  0.00  0.00    +0.000 N 
ATOM     15  N   UNL     1       7.701   5.268  14.916  0.00  0.00    +0.000 NA
ATOM     16  C   UNL     1       7.149   4.824  13.836  0.00  0.00    +0.000 A 
ATOM     17  C   UNL     1       5.864   4.096  13.746  0.00  0.00    +0.000 A 
ATOM     18  C   UNL     1       5.201   3.882  14.891  0.00  0.00    +0.000 A 
ATOM     19  C   UNL     1       5.762   4.336  16.113  0.00  0.00    +0.000 A 
ENDBRANCH   4  11
BRANCH   1  20
ATOM     20  C   UNL     1       1.609   7.329  20.825  0.00  0.00    +0.000 C 
BRANCH  20  21
ATOM     21  O   UNL     1       1.711   8.392  19.875  0.00  0.00    +0.000 OA
BRANCH  21  26
ATOM     22  C   UNL     1      -1.322  13.269  20.000  0.00  0.00    +0.000 C 
ATOM     23  N   UNL     1      -0.299  12.217  19.949  0.00  0.00    +0.000 NA
ATOM     24  C   UNL     1      -0.448  11.328  21.101  0.00  0.00    +0.000 C 
ATOM     25  C   UNL     1       0.673  10.292  21.122  0.00  0.00    +0.000 C 
ATOM     26  C   UNL     1       0.723   9.461  19.834  0.00  0.00    +0.000 C 
ATOM     27  C   UNL     1       0.731  10.384  18.609  0.00  0.00    +0.000 C 
ATOM     28  C   UNL     1      -0.382  11.452  18.695  0.00  0.00    +0.000 C 
ENDBRANCH  21  26
ENDBRANCH  20  21
ENDBRANCH   1  20
TORSDOF 4
ENDMDL
MODEL 8
REMARK VINA RESULT:      -8.4      4.586      7.656
REMARK  Name = 
REMARK  5 active torsions:
REMARK  status: ('A' for Active; 'I' for Inactive)
REMARK    1  A    between atoms: C_1  and  N_2
REMARK    2  A    between atoms: C_5  and  O_6
REMARK    3  A    between atoms: O_6  and  C_7
REMARK    4  A    between atoms: C_7  and  C_8
REMARK    5  A    between atoms: C_11  and  C_12
REMARK                            x       y       z     vdW  Elec       q    Type
REMARK                         _______ _______ _______ _____ _____    ______ ____
ROOT
ATOM      1  C   UNL     1       7.674   7.423  17.880  0.00  0.00    +0.000 A 
ATOM      2  C   UNL     1       6.690   6.569  18.375  0.00  0.00    +0.000 A 
ATOM      3  C   UNL     1       6.309   5.610  17.383  0.00  0.00    +0.000 A 
ATOM      4  C   UNL     1       5.429   4.495  17.285  0.00  0.00    +0.000 A 
ATOM      5  C   UNL     1       5.391   3.823  16.060  0.00  0.00    +0.000 A 
ATOM      6  C   UNL     1       6.237   4.227  15.038  0.00  0.00    +0.000 A 
ATOM      7  N   UNL     1       7.112   5.261  15.098  0.00  0.00    +0.000 NA
ATOM      8  C   UNL     1       7.093   5.910  16.278  0.00  0.00    +0.000 A 
ATOM      9  N   UNL     1       7.901   6.984  16.583  0.00  0.00    +0.000 N 
ATOM     10  H   UNL     1       8.588   7.340  15.937  0.00  0.00    +0.000 HD
ENDROOT
BRANCH   4  11
ATOM     11  C   UNL     1       4.615   4.086  18.423  0.00  0.00    +0.000 A 
ATOM     12  C   UNL     1       4.582   2.855  19.125  0.00  0.00    +0.000 A 
ATOM     13  N   UNL     1       3.689   2.832  20.111  0.00  0.00    +0.000 NA
ATOM     14  N   UNL     1       3.124   4.043  20.069  0.00  0.00    +0.000 N 
ATOM     15  N   UNL     1       2.151   4.350  20.956  0.00  0.00    +0.000 NA
ATOM     16  C   UNL     1       1.695   5.550  20.810  0.00  0.00    +0.000 A 
ATOM     17  C   UNL     1       2.142   6.537  19.802  0.00  0.00    +0.000 A 
ATOM     18  C   UNL     1       3.103   6.153  18.952  0.00  0.00    +0.000 A 
ATOM     19  C   UNL     1       3.652   4.849  19.070  0.00  0.00    +0.000 A 
ENDBRANCH   4  11
BRANCH   1  20
ATOM     20  C   UNL     1       8.491   8.541  18.526  0.00  0.00    +0.000 C 
BRANCH  20  21
ATOM     21  O   UNL     1       8.403   9.664  17.646  0.00  0.00    +0.000 OA
BRANCH  21  26
ATOM     22  C   UNL     1      10.627  14.918  18.311  0.00  0.00    +0.000 C 
ATOM     23  N   UNL     1      10.113  13.629  17.835  0.00  0.00    +0.000 NA
ATOM     24  C   UNL     1      10.804  12.538  18.522  0.00  0.00    +0.000 C 
ATOM     25  C   UNL     1      10.356  11.190  17.963  0.00  0.00    +0.000 C 
ATOM     26  C   UNL     1       8.841  10.987  18.071  0.00  0.00    +0.000 C 
ATOM     27  C   UNL     1       8.102  12.197  17.483  0.00  0.00    +0.000 C 
ATOM     28  C   UNL     1       8.659  13.526  18.039  0.00  0.00    +0.000 C 
ENDBRANCH  21  26
ENDBRANCH  20  21
ENDBRANCH   1  20
TORSDOF 4
ENDMDL
MODEL 9
REMARK VINA RESULT:      -8.3      1.220      1.365
REMARK  Name = 
REMARK  5 active torsions:
REMARK  status: ('A' for Active; 'I' for Inactive)
REMARK    1  A    between atoms: C_1  and  N_2
REMARK    2  A    between atoms: C_5  and  O_6
REMARK    3  A    between atoms: O_6  and  C_7
REMARK    4  A    between atoms: C_7  and  C_8
REMARK    5  A    between atoms: C_11  and  C_12
REMARK                            x       y       z     vdW  Elec       q    Type
REMARK                         _______ _______ _______ _____ _____    ______ ____
ROOT
ATOM      1  C   UNL     1       2.524   6.988  19.123  0.00  0.00    +0.000 A 
ATOM      2  C   UNL     1       3.631   6.668  18.338  0.00  0.00    +0.000 A 
ATOM      3  C   UNL     1       3.683   5.259  18.091  0.00  0.00    +0.000 A 
ATOM      4  C   UNL     1       4.502   4.352  17.360  0.00  0.00    +0.000 A 
ATOM      5  C   UNL     1       4.149   3.000  17.407  0.00  0.00    +0.000 A 
ATOM      6  C   UNL     1       3.009   2.620  18.100  0.00  0.00    +0.000 A 
ATOM      7  N   UNL     1       2.184   3.452  18.782  0.00  0.00    +0.000 NA
ATOM      8  C   UNL     1       2.576   4.741  18.748  0.00  0.00    +0.000 A 
ATOM      9  N   UNL     1       1.894   5.773  19.354  0.00  0.00    +0.000 N 
ATOM     10  H   UNL     1       1.028   5.627  19.849  0.00  0.00    +0.000 HD
ENDROOT
BRANCH   4  11
ATOM     11  C   UNL     1       5.649   4.831  16.600  0.00  0.00    +0.000 A 
ATOM     12  C   UNL     1       6.713   5.682  16.993  0.00  0.00    +0.000 A 
ATOM     13  N   UNL     1       7.586   5.924  16.017  0.00  0.00    +0.000 NA
ATOM     14  N   UNL     1       7.107   5.239  14.974  0.00  0.00    +0.000 N 
ATOM     15  N   UNL     1       7.772   5.277  13.797  0.00  0.00    +0.000 NA
ATOM     16  C   UNL     1       7.208   4.568  12.876  0.00  0.00    +0.000 A 
ATOM     17  C   UNL     1       5.966   3.776  13.020  0.00  0.00    +0.000 A 
ATOM     18  C   UNL     1       5.361   3.798  14.215  0.00  0.00    +0.000 A 
ATOM     19  C   UNL     1       5.940   4.549  15.272  0.00  0.00    +0.000 A 
ENDBRANCH   4  11
BRANCH   1  20
ATOM     20  C   UNL     1       1.944   8.320  19.595  0.00  0.00    +0.000 C 
BRANCH  20  21
ATOM     21  O   UNL     1       1.042   8.011  20.660  0.00  0.00    +0.000 OA
BRANCH  21  26
ATOM     22  C   UNL     1      -1.672  12.464  23.069  0.00  0.00    +0.000 C 
ATOM     23  N   UNL     1      -0.726  11.514  22.472  0.00  0.00    +0.000 NA
ATOM     24  C   UNL     1      -0.756  10.255  23.214  0.00  0.00    +0.000 C 
ATOM     25  C   UNL     1       0.298   9.292  22.672  0.00  0.00    +0.000 C 
ATOM     26  C   UNL     1       0.117   9.012  21.176  0.00  0.00    +0.000 C 
ATOM     27  C   UNL     1       0.000  10.331  20.400  0.00  0.00    +0.000 C 
ATOM     28  C   UNL     1      -1.029  11.281  21.051  0.00  0.00    +0.000 C 
ENDBRANCH  21  26
ENDBRANCH  20  21
ENDBRANCH   1  20
TORSDOF 4
ENDMDL
