MODEL 1
REMARK VINA RESULT:      -7.4      0.000      0.000
REMARK  Name = 
REMARK  3 active torsions:
REMARK  status: ('A' for Active; 'I' for Inactive)
REMARK    1  A    between atoms: C_1  and  O_2
REMARK    2  A    between atoms: O_2  and  C_3
REMARK    3  A    between atoms: C_10  and  C_11
REMARK                            x       y       z     vdW  Elec       q    Type
REMARK                         _______ _______ _______ _____ _____    ______ ____
ROOT
ATOM      1  C   UNL     1       6.265   4.004  13.545  0.00  0.00    +0.000 A 
ATOM      2  C   UNL     1       7.405   4.729  13.899  0.00  0.00    +0.000 A 
ATOM      3  C   UNL     1       7.531   5.238  15.193  0.00  0.00    +0.000 A 
ATOM      4  C   UNL     1       6.509   5.024  16.123  0.00  0.00    +0.000 A 
ATOM      5  C   UNL     1       6.630   5.491  17.507  0.00  0.00    +0.000 A 
ATOM      6  O   UNL     1       7.606   6.137  17.868  0.00  0.00    +0.000 OA
ATOM      7  O   UNL     1       5.640   5.154  18.367  0.00  0.00    +0.000 OA
ATOM      8  C   UNL     1       4.538   4.518  17.907  0.00  0.00    +0.000 A 
ATOM      9  N   UNL     1       4.333   4.136  16.692  0.00  0.00    +0.000 NA
ATOM     10  C   UNL     1       5.356   4.345  15.771  0.00  0.00    +0.000 A 
ATOM     11  C   UNL     1       5.235   3.838  14.476  0.00  0.00    +0.000 A 
ENDROOT
BRANCH   8  12
ATOM     12  C   UNL     1       3.579   4.320  19.025  0.00  0.00    +0.000 A 
ATOM     13  C   UNL     1       3.588   3.071  19.681  0.00  0.00    +0.000 A 
ATOM     14  C   UNL     1       2.712   2.800  20.732  0.00  0.00    +0.000 A 
ATOM     15  C   UNL     1       1.818   3.776  21.156  0.00  0.00    +0.000 A 
ATOM     16  C   UNL     1       1.801   5.021  20.528  0.00  0.00    +0.000 A 
ATOM     17  C   UNL     1       2.671   5.301  19.461  0.00  0.00    +0.000 A 
ATOM     18  I   UNL     1       2.421   7.199  18.586  0.00  0.00    +0.000 I 
ENDBRANCH   8  12
BRANCH   1  20
ATOM     19  C   UNL     1       4.674   3.356  11.925  0.00  0.00    +0.000 C 
ATOM     20  O   UNL     1       6.042   3.452  12.313  0.00  0.00    +0.000 OA
ENDBRANCH   1  20
TORSDOF 2
ENDMDL
MODEL 2
REMARK VINA RESULT:      -7.3      4.185      7.440
REMARK  Name = 
REMARK  3 active torsions:
REMARK  status: ('A' for Active; 'I' for Inactive)
REMARK    1  A    between atoms: C_1  and  O_2
REMARK    2  A    between atoms: O_2  and  C_3
REMARK    3  A    between atoms: C_10  and  C_11
REMARK                            x       y       z     vdW  Elec       q    Type
REMARK                         _______ _______ _______ _____ _____    ______ ____
ROOT
ATOM      1  C   UNL     1       0.720   9.757  21.850  0.00  0.00    +0.000 A 
ATOM      2  C   UNL     1       0.866  10.633  20.773  0.00  0.00    +0.000 A 
ATOM      3  C   UNL     1       1.326  10.155  19.545  0.00  0.00    +0.000 A 
ATOM      4  C   UNL     1       1.645   8.801  19.406  0.00  0.00    +0.000 A 
ATOM      5  C   UNL     1       2.074   8.249  18.118  0.00  0.00    +0.000 A 
ATOM      6  O   UNL     1       2.225   8.975  17.143  0.00  0.00    +0.000 OA
ATOM      7  O   UNL     1       2.266   6.911  18.046  0.00  0.00    +0.000 OA
ATOM      8  C   UNL     1       2.177   6.158  19.167  0.00  0.00    +0.000 A 
ATOM      9  N   UNL     1       1.869   6.584  20.346  0.00  0.00    +0.000 NA
ATOM     10  C   UNL     1       1.545   7.931  20.478  0.00  0.00    +0.000 A 
ATOM     11  C   UNL     1       1.085   8.415  21.704  0.00  0.00    +0.000 A 
ENDROOT
BRANCH   8  12
ATOM     12  C   UNL     1       2.490   4.743  18.839  0.00  0.00    +0.000 A 
ATOM     13  C   UNL     1       1.409   3.847  18.708  0.00  0.00    +0.000 A 
ATOM     14  C   UNL     1       1.618   2.499  18.414  0.00  0.00    +0.000 A 
ATOM     15  C   UNL     1       2.911   2.024  18.230  0.00  0.00    +0.000 A 
ATOM     16  C   UNL     1       3.993   2.896  18.344  0.00  0.00    +0.000 A 
ATOM     17  C   UNL     1       3.795   4.253  18.652  0.00  0.00    +0.000 A 
ATOM     18  I   UNL     1       5.559   5.380  18.875  0.00  0.00    +0.000 I 
ENDBRANCH   8  12
BRANCH   1  20
ATOM     19  C   UNL     1      -1.052  10.647  23.133  0.00  0.00    +0.000 C 
ATOM     20  O   UNL     1       0.268  10.113  23.092  0.00  0.00    +0.000 OA
ENDBRANCH   1  20
TORSDOF 2
ENDMDL
MODEL 3
REMARK VINA RESULT:      -7.2      2.258      6.661
REMARK  Name = 
REMARK  3 active torsions:
REMARK  status: ('A' for Active; 'I' for Inactive)
REMARK    1  A    between atoms: C_1  and  O_2
REMARK    2  A    between atoms: O_2  and  C_3
REMARK    3  A    between atoms: C_10  and  C_11
REMARK                            x       y       z     vdW  Elec       q    Type
REMARK                         _______ _______ _______ _____ _____    ______ ____
ROOT
ATOM      1  C   UNL     1       1.680   5.678  20.445  0.00  0.00    +0.000 A 
ATOM      2  C   UNL     1       1.422   4.345  20.769  0.00  0.00    +0.000 A 
ATOM      3  C   UNL     1       2.005   3.322  20.019  0.00  0.00    +0.000 A 
ATOM      4  C   UNL     1       2.838   3.643  18.942  0.00  0.00    +0.000 A 
ATOM      5  C   UNL     1       3.516   2.599  18.168  0.00  0.00    +0.000 A 
ATOM      6  O   UNL     1       3.320   1.413  18.406  0.00  0.00    +0.000 OA
ATOM      7  O   UNL     1       4.382   2.999  17.208  0.00  0.00    +0.000 OA
ATOM      8  C   UNL     1       4.501   4.315  16.916  0.00  0.00    +0.000 A 
ATOM      9  N   UNL     1       3.888   5.283  17.509  0.00  0.00    +0.000 NA
ATOM     10  C   UNL     1       3.066   4.960  18.585  0.00  0.00    +0.000 A 
ATOM     11  C   UNL     1       2.480   5.979  19.338  0.00  0.00    +0.000 A 
ENDROOT
BRANCH   8  12
ATOM     12  C   UNL     1       5.458   4.488  15.792  0.00  0.00    +0.000 A 
ATOM     13  C   UNL     1       5.208   3.769  14.604  0.00  0.00    +0.000 A 
ATOM     14  C   UNL     1       6.065   3.866  13.507  0.00  0.00    +0.000 A 
ATOM     15  C   UNL     1       7.179   4.693  13.571  0.00  0.00    +0.000 A 
ATOM     16  C   UNL     1       7.438   5.420  14.732  0.00  0.00    +0.000 A 
ATOM     17  C   UNL     1       6.588   5.322  15.847  0.00  0.00    +0.000 A 
ATOM     18  I   UNL     1       7.205   6.422  17.533  0.00  0.00    +0.000 I 
ENDBRANCH   8  12
BRANCH   1  20
ATOM     19  C   UNL     1       1.575   8.031  20.621  0.00  0.00    +0.000 C 
ATOM     20  O   UNL     1       1.172   6.758  21.116  0.00  0.00    +0.000 OA
ENDBRANCH   1  20
TORSDOF 2
ENDMDL
MODEL 4
REMARK VINA RESULT:      -6.9      1.374      1.747
REMARK  Name = 
REMARK  3 active torsions:
REMARK  status: ('A' for Active; 'I' for Inactive)
REMARK    1  A    between atoms: C_1  and  O_2
REMARK    2  A    between atoms: O_2  and  C_3
REMARK    3  A    between atoms: C_10  and  C_11
REMARK                            x       y       z     vdW  Elec       q    Type
REMARK                         _______ _______ _______ _____ _____    ______ ____
ROOT
ATOM      1  C   UNL     1       6.285   4.059  13.368  0.00  0.00    +0.000 A 
ATOM      2  C   UNL     1       7.446   4.750  13.720  0.00  0.00    +0.000 A 
ATOM      3  C   UNL     1       7.541   5.357  14.974  0.00  0.00    +0.000 A 
ATOM      4  C   UNL     1       6.466   5.275  15.864  0.00  0.00    +0.000 A 
ATOM      5  C   UNL     1       6.549   5.847  17.211  0.00  0.00    +0.000 A 
ATOM      6  O   UNL     1       7.542   6.469  17.569  0.00  0.00    +0.000 OA
ATOM      7  O   UNL     1       5.503   5.635  18.043  0.00  0.00    +0.000 OA
ATOM      8  C   UNL     1       4.389   5.022  17.580  0.00  0.00    +0.000 A 
ATOM      9  N   UNL     1       4.219   4.552  16.391  0.00  0.00    +0.000 NA
ATOM     10  C   UNL     1       5.295   4.629  15.510  0.00  0.00    +0.000 A 
ATOM     11  C   UNL     1       5.205   4.024  14.255  0.00  0.00    +0.000 A 
ENDROOT
BRANCH   8  12
ATOM     12  C   UNL     1       3.369   4.968  18.661  0.00  0.00    +0.000 A 
ATOM     13  C   UNL     1       2.936   6.191  19.213  0.00  0.00    +0.000 A 
ATOM     14  C   UNL     1       1.991   6.226  20.239  0.00  0.00    +0.000 A 
ATOM     15  C   UNL     1       1.451   5.041  20.723  0.00  0.00    +0.000 A 
ATOM     16  C   UNL     1       1.858   3.822  20.182  0.00  0.00    +0.000 A 
ATOM     17  C   UNL     1       2.817   3.774  19.156  0.00  0.00    +0.000 A 
ATOM     18  I   UNL     1       3.366   1.836  18.545  0.00  0.00    +0.000 I 
ENDBRANCH   8  12
BRANCH   1  20
ATOM     19  C   UNL     1       4.728   3.211  11.808  0.00  0.00    +0.000 C 
ATOM     20  O   UNL     1       6.089   3.419  12.174  0.00  0.00    +0.000 OA
ENDBRANCH   1  20
TORSDOF 2
ENDMDL
MODEL 5
REMARK VINA RESULT:      -6.9      4.368      7.705
REMARK  Name = 
REMARK  3 active torsions:
REMARK  status: ('A' for Active; 'I' for Inactive)
REMARK    1  A    between atoms: C_1  and  O_2
REMARK    2  A    between atoms: O_2  and  C_3
REMARK    3  A    between atoms: C_10  and  C_11
REMARK                            x       y       z     vdW  Elec       q    Type
REMARK                         _______ _______ _______ _____ _____    ______ ____
ROOT
ATOM      1  C   UNL     1       0.533   9.808  21.945  0.00  0.00    +0.000 A 
ATOM      2  C   UNL     1       0.486  10.806  20.970  0.00  0.00    +0.000 A 
ATOM      3  C   UNL     1       0.987  10.554  19.692  0.00  0.00    +0.000 A 
ATOM      4  C   UNL     1       1.541   9.303  19.401  0.00  0.00    +0.000 A 
ATOM      5  C   UNL     1       2.024   8.980  18.056  0.00  0.00    +0.000 A 
ATOM      6  O   UNL     1       2.011   9.821  17.165  0.00  0.00    +0.000 OA
ATOM      7  O   UNL     1       2.452   7.714  17.835  0.00  0.00    +0.000 OA
ATOM      8  C   UNL     1       2.535   6.843  18.867  0.00  0.00    +0.000 A 
ATOM      9  N   UNL     1       2.191   7.077  20.088  0.00  0.00    +0.000 NA
ATOM     10  C   UNL     1       1.633   8.321  20.371  0.00  0.00    +0.000 A 
ATOM     11  C   UNL     1       1.130   8.579  21.649  0.00  0.00    +0.000 A 
ENDROOT
BRANCH   8  12
ATOM     12  C   UNL     1       3.089   5.552  18.381  0.00  0.00    +0.000 A 
ATOM     13  C   UNL     1       4.032   5.599  17.333  0.00  0.00    +0.000 A 
ATOM     14  C   UNL     1       4.591   4.431  16.812  0.00  0.00    +0.000 A 
ATOM     15  C   UNL     1       4.228   3.197  17.336  0.00  0.00    +0.000 A 
ATOM     16  C   UNL     1       3.306   3.130  18.380  0.00  0.00    +0.000 A 
ATOM     17  C   UNL     1       2.728   4.299  18.905  0.00  0.00    +0.000 A 
ATOM     18  I   UNL     1       1.288   3.979  20.407  0.00  0.00    +0.000 I 
ENDBRANCH   8  12
BRANCH   1  20
ATOM     19  C   UNL     1      -1.192  10.603  23.347  0.00  0.00    +0.000 C 
ATOM     20  O   UNL     1       0.063   9.941  23.224  0.00  0.00    +0.000 OA
ENDBRANCH   1  20
TORSDOF 2
ENDMDL
MODEL 6
REMARK VINA RESULT:      -6.8      2.495      6.815
REMARK  Name = 
REMARK  3 active torsions:
REMARK  status: ('A' for Active; 'I' for Inactive)
REMARK    1  A    between atoms: C_1  and  O_2
REMARK    2  A    between atoms: O_2  and  C_3
REMARK    3  A    between atoms: C_10  and  C_11
REMARK                            x       y       z     vdW  Elec       q    Type
REMARK                         _______ _______ _______ _____ _____    ______ ____
ROOT
ATOM      1  C   UNL     1       1.594   7.544  20.343  0.00  0.00    +0.000 A 
ATOM      2  C   UNL     1       1.322   6.369  21.045  0.00  0.00    +0.000 A 
ATOM      3  C   UNL     1       1.888   5.163  20.629  0.00  0.00    +0.000 A 
ATOM      4  C   UNL     1       2.719   5.141  19.504  0.00  0.00    +0.000 A 
ATOM      5  C   UNL     1       3.379   3.907  19.070  0.00  0.00    +0.000 A 
ATOM      6  O   UNL     1       3.170   2.847  19.647  0.00  0.00    +0.000 OA
ATOM      7  O   UNL     1       4.246   3.996  18.034  0.00  0.00    +0.000 OA
ATOM      8  C   UNL     1       4.380   5.166  17.368  0.00  0.00    +0.000 A 
ATOM      9  N   UNL     1       3.782   6.274  17.651  0.00  0.00    +0.000 NA
ATOM     10  C   UNL     1       2.962   6.292  18.775  0.00  0.00    +0.000 A 
ATOM     11  C   UNL     1       2.392   7.496  19.196  0.00  0.00    +0.000 A 
ENDROOT
BRANCH   8  12
ATOM     12  C   UNL     1       5.333   4.988  16.241  0.00  0.00    +0.000 A 
ATOM     13  C   UNL     1       4.929   4.169  15.166  0.00  0.00    +0.000 A 
ATOM     14  C   UNL     1       5.770   3.941  14.076  0.00  0.00    +0.000 A 
ATOM     15  C   UNL     1       7.024   4.536  14.034  0.00  0.00    +0.000 A 
ATOM     16  C   UNL     1       7.439   5.357  15.082  0.00  0.00    +0.000 A 
ATOM     17  C   UNL     1       6.605   5.585  16.190  0.00  0.00    +0.000 A 
ATOM     18  I   UNL     1       7.451   6.773  17.708  0.00  0.00    +0.000 I 
ENDBRANCH   8  12
BRANCH   1  20
ATOM     19  C   UNL     1       0.003   8.783  21.573  0.00  0.00    +0.000 C 
ATOM     20  O   UNL     1       1.103   8.780  20.668  0.00  0.00    +0.000 OA
ENDBRANCH   1  20
TORSDOF 2
ENDMDL
MODEL 7
REMARK VINA RESULT:      -6.8      3.013      6.900
REMARK  Name = 
REMARK  3 active torsions:
REMARK  status: ('A' for Active; 'I' for Inactive)
REMARK    1  A    between atoms: C_1  and  O_2
REMARK    2  A    between atoms: O_2  and  C_3
REMARK    3  A    between atoms: C_10  and  C_11
REMARK                            x       y       z     vdW  Elec       q    Type
REMARK                         _______ _______ _______ _____ _____    ______ ____
ROOT
ATOM      1  C   UNL     1       1.286   8.724  19.880  0.00  0.00    +0.000 A 
ATOM      2  C   UNL     1       1.004   7.774  20.863  0.00  0.00    +0.000 A 
ATOM      3  C   UNL     1       1.592   6.509  20.797  0.00  0.00    +0.000 A 
ATOM      4  C   UNL     1       2.454   6.202  19.740  0.00  0.00    +0.000 A 
ATOM      5  C   UNL     1       3.137   4.908  19.667  0.00  0.00    +0.000 A 
ATOM      6  O   UNL     1       2.921   4.036  20.500  0.00  0.00    +0.000 OA
ATOM      7  O   UNL     1       4.031   4.731  18.666  0.00  0.00    +0.000 OA
ATOM      8  C   UNL     1       4.173   5.683  17.715  0.00  0.00    +0.000 A 
ATOM      9  N   UNL     1       3.559   6.817  17.678  0.00  0.00    +0.000 NA
ATOM     10  C   UNL     1       2.707   7.121  18.737  0.00  0.00    +0.000 A 
ATOM     11  C   UNL     1       2.116   8.384  18.807  0.00  0.00    +0.000 A 
ENDROOT
BRANCH   8  12
ATOM     12  C   UNL     1       5.160   5.226  16.701  0.00  0.00    +0.000 A 
ATOM     13  C   UNL     1       4.659   4.746  15.473  0.00  0.00    +0.000 A 
ATOM     14  C   UNL     1       5.517   4.287  14.473  0.00  0.00    +0.000 A 
ATOM     15  C   UNL     1       6.891   4.312  14.676  0.00  0.00    +0.000 A 
ATOM     16  C   UNL     1       7.406   4.794  15.879  0.00  0.00    +0.000 A 
ATOM     17  C   UNL     1       6.551   5.248  16.897  0.00  0.00    +0.000 A 
ATOM     18  I   UNL     1       7.519   5.843  18.669  0.00  0.00    +0.000 I 
ENDBRANCH   8  12
BRANCH   1  20
ATOM     19  C   UNL     1       0.761  10.675  21.103  0.00  0.00    +0.000 C 
ATOM     20  O   UNL     1       0.775   9.994  19.852  0.00  0.00    +0.000 OA
ENDBRANCH   1  20
TORSDOF 2
ENDMDL
MODEL 8
REMARK VINA RESULT:      -6.6      4.165      7.649
REMARK  Name = 
REMARK  3 active torsions:
REMARK  status: ('A' for Active; 'I' for Inactive)
REMARK    1  A    between atoms: C_1  and  O_2
REMARK    2  A    between atoms: O_2  and  C_3
REMARK    3  A    between atoms: C_10  and  C_11
REMARK                            x       y       z     vdW  Elec       q    Type
REMARK                         _______ _______ _______ _____ _____    ______ ____
ROOT
ATOM      1  C   UNL     1       0.131   9.059  21.546  0.00  0.00    +0.000 A 
ATOM      2  C   UNL     1       0.017  10.200  20.750  0.00  0.00    +0.000 A 
ATOM      3  C   UNL     1       0.708  10.275  19.539  0.00  0.00    +0.000 A 
ATOM      4  C   UNL     1       1.516   9.207  19.137  0.00  0.00    +0.000 A 
ATOM      5  C   UNL     1       2.209   9.222  17.846  0.00  0.00    +0.000 A 
ATOM      6  O   UNL     1       2.148  10.201  17.112  0.00  0.00    +0.000 OA
ATOM      7  O   UNL     1       2.888   8.106  17.490  0.00  0.00    +0.000 OA
ATOM      8  C   UNL     1       3.006   7.083  18.367  0.00  0.00    +0.000 A 
ATOM      9  N   UNL     1       2.480   7.027  19.544  0.00  0.00    +0.000 NA
ATOM     10  C   UNL     1       1.670   8.089  19.937  0.00  0.00    +0.000 A 
ATOM     11  C   UNL     1       0.977   8.019  21.148  0.00  0.00    +0.000 A 
ENDROOT
BRANCH   8  12
ATOM     12  C   UNL     1       3.845   6.012  17.768  0.00  0.00    +0.000 A 
ATOM     13  C   UNL     1       5.099   6.383  17.239  0.00  0.00    +0.000 A 
ATOM     14  C   UNL     1       5.941   5.440  16.648  0.00  0.00    +0.000 A 
ATOM     15  C   UNL     1       5.553   4.108  16.587  0.00  0.00    +0.000 A 
ATOM     16  C   UNL     1       4.322   3.719  17.115  0.00  0.00    +0.000 A 
ATOM     17  C   UNL     1       3.461   4.661  17.702  0.00  0.00    +0.000 A 
ATOM     18  I   UNL     1       1.612   3.891  18.350  0.00  0.00    +0.000 I 
ENDBRANCH   8  12
BRANCH   1  20
ATOM     19  C   UNL     1      -0.899  10.066  23.417  0.00  0.00    +0.000 C 
ATOM     20  O   UNL     1      -0.507   8.874  22.743  0.00  0.00    +0.000 OA
ENDBRANCH   1  20
TORSDOF 2
ENDMDL
MODEL 9
REMARK VINA RESULT:      -6.5      4.709      7.400
REMARK  Name = 
REMARK  3 active torsions:
REMARK  status: ('A' for Active; 'I' for Inactive)
REMARK    1  A    between atoms: C_1  and  O_2
REMARK    2  A    between atoms: O_2  and  C_3
REMARK    3  A    between atoms: C_10  and  C_11
REMARK                            x       y       z     vdW  Elec       q    Type
REMARK                         _______ _______ _______ _____ _____    ______ ____
ROOT
ATOM      1  C   UNL     1       0.342  10.846  20.828  0.00  0.00    +0.000 A 
ATOM      2  C   UNL     1       0.774  11.308  19.583  0.00  0.00    +0.000 A 
ATOM      3  C   UNL     1       1.421  10.436  18.705  0.00  0.00    +0.000 A 
ATOM      4  C   UNL     1       1.639   9.109  19.084  0.00  0.00    +0.000 A 
ATOM      5  C   UNL     1       2.261   8.148  18.169  0.00  0.00    +0.000 A 
ATOM      6  O   UNL     1       2.663   8.502  17.067  0.00  0.00    +0.000 OA
ATOM      7  O   UNL     1       2.342   6.860  18.578  0.00  0.00    +0.000 OA
ATOM      8  C   UNL     1       1.969   6.530  19.836  0.00  0.00    +0.000 A 
ATOM      9  N   UNL     1       1.477   7.332  20.717  0.00  0.00    +0.000 NA
ATOM     10  C   UNL     1       1.254   8.651  20.333  0.00  0.00    +0.000 A 
ATOM     11  C   UNL     1       0.608   9.527  21.207  0.00  0.00    +0.000 A 
ENDROOT
BRANCH   8  12
ATOM     12  C   UNL     1       2.214   5.080  20.059  0.00  0.00    +0.000 A 
ATOM     13  C   UNL     1       1.172   4.322  20.633  0.00  0.00    +0.000 A 
ATOM     14  C   UNL     1       1.325   2.959  20.886  0.00  0.00    +0.000 A 
ATOM     15  C   UNL     1       2.517   2.325  20.560  0.00  0.00    +0.000 A 
ATOM     16  C   UNL     1       3.556   3.054  19.982  0.00  0.00    +0.000 A 
ATOM     17  C   UNL     1       3.417   4.430  19.732  0.00  0.00    +0.000 A 
ATOM     18  I   UNL     1       5.130   5.367  18.947  0.00  0.00    +0.000 I 
ENDBRANCH   8  12
BRANCH   1  20
ATOM     19  C   UNL     1      -0.772  10.904  22.910  0.00  0.00    +0.000 C 
ATOM     20  O   UNL     1      -0.310  11.608  21.761  0.00  0.00    +0.000 OA
ENDBRANCH   1  20
TORSDOF 2
ENDMDL
