MODEL 1
REMARK VINA RESULT:      -9.3      0.000      0.000
REMARK  Name = 
REMARK  8 active torsions:
REMARK  status: ('A' for Active; 'I' for Inactive)
REMARK    1  A    between atoms: C_2  and  C_5
REMARK    2  A    between atoms: N_3  and  O_4
REMARK    3  A    between atoms: C_5  and  O_6
REMARK    4  A    between atoms: C_11  and  S_12
REMARK    5  A    between atoms: S_12  and  C_15
REMARK    6  A    between atoms: C_18  and  O_19
REMARK    7  A    between atoms: O_19  and  C_20
REMARK    8  A    between atoms: C_20  and  C_21
REMARK                            x       y       z     vdW  Elec       q    Type
REMARK                         _______ _______ _______ _____ _____    ______ ____
ROOT
ATOM      1  S   UNL     1       4.066   5.015  18.033  0.00  0.00    +0.000 S 
ATOM      2  O   UNL     1       3.082   3.994  17.715  0.00  0.00    +0.000 OA
ATOM      3  O   UNL     1       5.061   4.737  19.057  0.00  0.00    +0.000 OA
ENDROOT
BRANCH   1   9
ATOM      4  C   UNL     1       6.122   4.486  16.163  0.00  0.00    +0.000 C 
ATOM      5  C   UNL     1       7.294   4.627  17.144  0.00  0.00    +0.000 C 
ATOM      6  O   UNL     1       7.762   5.975  17.167  0.00  0.00    +0.000 OA
ATOM      7  C   UNL     1       6.786   6.915  17.613  0.00  0.00    +0.000 C 
ATOM      8  C   UNL     1       5.532   6.878  16.738  0.00  0.00    +0.000 C 
ATOM      9  C   UNL     1       4.988   5.446  16.539  0.00  0.00    +0.000 C 
BRANCH   4  11
ATOM     10  O   UNL     1       6.226   4.107  13.768  0.00  0.00    +0.000 OA
ATOM     11  C   UNL     1       6.740   4.665  14.749  0.00  0.00    +0.000 C 
ATOM     12  N   UNL     1       7.822   5.488  14.577  0.00  0.00    +0.000 N 
ATOM     13  H   UNL     1       7.975   6.316  15.141  0.00  0.00    +0.000 HD
BRANCH  12  14
ATOM     14  O   UNL     1       8.262   5.606  13.231  0.00  0.00    +0.000 OA
ATOM     15  H   UNL     1       9.241   5.616  13.325  0.00  0.00    +0.000 HD
ENDBRANCH  12  14
ENDBRANCH   4  11
BRANCH   4  16
ATOM     16  O   UNL     1       5.652   3.133  16.093  0.00  0.00    +0.000 OA
ATOM     17  H   UNL     1       5.040   3.071  15.328  0.00  0.00    +0.000 HD
ENDBRANCH   4  16
ENDBRANCH   1   9
BRANCH   1  18
ATOM     18  C   UNL     1       3.152   6.420  18.599  0.00  0.00    +0.000 A 
ATOM     19  C   UNL     1       2.823   7.420  17.680  0.00  0.00    +0.000 A 
ATOM     20  C   UNL     1       2.045   8.502  18.079  0.00  0.00    +0.000 A 
ATOM     21  C   UNL     1       1.535   8.552  19.377  0.00  0.00    +0.000 A 
ATOM     22  C   UNL     1       1.858   7.543  20.291  0.00  0.00    +0.000 A 
ATOM     23  C   UNL     1       2.664   6.468  19.905  0.00  0.00    +0.000 A 
BRANCH  21  24
ATOM     24  O   UNL     1       0.707   9.531  19.846  0.00  0.00    +0.000 OA
BRANCH  24  25
ATOM     25  C   UNL     1       0.566  10.669  18.994  0.00  0.00    +0.000 C 
BRANCH  25  26
ATOM     26  C   UNL     1      -0.887  10.788  18.618  0.00  0.00    +0.000 A 
ATOM     27  C   UNL     1      -1.387   9.991  17.575  0.00  0.00    +0.000 A 
ATOM     28  C   UNL     1      -2.713  10.114  17.164  0.00  0.00    +0.000 A 
ATOM     29  C   UNL     1      -3.547  11.038  17.786  0.00  0.00    +0.000 A 
ATOM     30 CL   UNL     1      -5.176  11.206  17.259  0.00  0.00    +0.000 Cl
ATOM     31  C   UNL     1      -3.073  11.833  18.825  0.00  0.00    +0.000 A 
ATOM     32  C   UNL     1      -1.745  11.710  19.239  0.00  0.00    +0.000 A 
ATOM     33 CL   UNL     1      -1.214  12.731  20.528  0.00  0.00    +0.000 Cl
ENDBRANCH  25  26
ENDBRANCH  24  25
ENDBRANCH  21  24
ENDBRANCH   1  18
TORSDOF 8
ENDMDL
MODEL 2
REMARK VINA RESULT:      -9.1      2.092      2.450
REMARK  Name = 
REMARK  8 active torsions:
REMARK  status: ('A' for Active; 'I' for Inactive)
REMARK    1  A    between atoms: C_2  and  C_5
REMARK    2  A    between atoms: N_3  and  O_4
REMARK    3  A    between atoms: C_5  and  O_6
REMARK    4  A    between atoms: C_11  and  S_12
REMARK    5  A    between atoms: S_12  and  C_15
REMARK    6  A    between atoms: C_18  and  O_19
REMARK    7  A    between atoms: O_19  and  C_20
REMARK    8  A    between atoms: C_20  and  C_21
REMARK                            x       y       z     vdW  Elec       q    Type
REMARK                         _______ _______ _______ _____ _____    ______ ____
ROOT
ATOM      1  S   UNL     1       4.099   5.323  18.249  0.00  0.00    +0.000 S 
ATOM      2  O   UNL     1       3.176   4.234  17.982  0.00  0.00    +0.000 OA
ATOM      3  O   UNL     1       5.066   5.178  19.325  0.00  0.00    +0.000 OA
ENDROOT
BRANCH   1   9
ATOM      4  C   UNL     1       6.049   4.588  16.335  0.00  0.00    +0.000 C 
ATOM      5  C   UNL     1       7.238   4.542  17.305  0.00  0.00    +0.000 C 
ATOM      6  O   UNL     1       7.881   5.814  17.363  0.00  0.00    +0.000 OA
ATOM      7  C   UNL     1       7.043   6.860  17.851  0.00  0.00    +0.000 C 
ATOM      8  C   UNL     1       5.786   7.017  16.992  0.00  0.00    +0.000 C 
ATOM      9  C   UNL     1       5.056   5.677  16.756  0.00  0.00    +0.000 C 
BRANCH   4  11
ATOM     10  O   UNL     1       6.158   4.151  13.951  0.00  0.00    +0.000 OA
ATOM     11  C   UNL     1       6.673   4.730  14.920  0.00  0.00    +0.000 C 
ATOM     12  N   UNL     1       7.760   5.541  14.731  0.00  0.00    +0.000 N 
ATOM     13  H   UNL     1       7.917   6.382  15.275  0.00  0.00    +0.000 HD
BRANCH  12  14
ATOM     14  O   UNL     1       8.205   5.625  13.384  0.00  0.00    +0.000 OA
ATOM     15  H   UNL     1       8.690   4.777  13.265  0.00  0.00    +0.000 HD
ENDBRANCH  12  14
ENDBRANCH   4  11
BRANCH   4  16
ATOM     16  O   UNL     1       5.404   3.313  16.230  0.00  0.00    +0.000 OA
ATOM     17  H   UNL     1       4.519   3.460  15.831  0.00  0.00    +0.000 HD
ENDBRANCH   4  16
ENDBRANCH   1   9
BRANCH   1  18
ATOM     18  C   UNL     1       3.101   6.723  18.665  0.00  0.00    +0.000 A 
ATOM     19  C   UNL     1       2.805   7.657  17.668  0.00  0.00    +0.000 A 
ATOM     20  C   UNL     1       1.965   8.730  17.948  0.00  0.00    +0.000 A 
ATOM     21  C   UNL     1       1.363   8.834  19.203  0.00  0.00    +0.000 A 
ATOM     22  C   UNL     1       1.654   7.892  20.195  0.00  0.00    +0.000 A 
ATOM     23  C   UNL     1       2.520   6.828  19.930  0.00  0.00    +0.000 A 
BRANCH  21  24
ATOM     24  O   UNL     1       0.472   9.808  19.554  0.00  0.00    +0.000 OA
BRANCH  24  25
ATOM     25  C   UNL     1       0.922  10.709  20.567  0.00  0.00    +0.000 C 
BRANCH  25  26
ATOM     26  C   UNL     1      -0.289  11.216  21.304  0.00  0.00    +0.000 A 
ATOM     27  C   UNL     1      -1.030  12.272  20.749  0.00  0.00    +0.000 A 
ATOM     28  C   UNL     1      -2.124  12.804  21.430  0.00  0.00    +0.000 A 
ATOM     29  C   UNL     1      -2.481  12.290  22.673  0.00  0.00    +0.000 A 
ATOM     30 CL   UNL     1      -3.815  12.966  23.524  0.00  0.00    +0.000 Cl
ATOM     31  C   UNL     1      -1.763  11.240  23.239  0.00  0.00    +0.000 A 
ATOM     32  C   UNL     1      -0.668  10.706  22.557  0.00  0.00    +0.000 A 
ATOM     33 CL   UNL     1       0.187   9.409  23.314  0.00  0.00    +0.000 Cl
ENDBRANCH  25  26
ENDBRANCH  24  25
ENDBRANCH  21  24
ENDBRANCH   1  18
TORSDOF 8
ENDMDL
MODEL 3
REMARK VINA RESULT:      -9.0      0.668      1.189
REMARK  Name = 
REMARK  8 active torsions:
REMARK  status: ('A' for Active; 'I' for Inactive)
REMARK    1  A    between atoms: C_2  and  C_5
REMARK    2  A    between atoms: N_3  and  O_4
REMARK    3  A    between atoms: C_5  and  O_6
REMARK    4  A    between atoms: C_11  and  S_12
REMARK    5  A    between atoms: S_12  and  C_15
REMARK    6  A    between atoms: C_18  and  O_19
REMARK    7  A    between atoms: O_19  and  C_20
REMARK    8  A    between atoms: C_20  and  C_21
REMARK                            x       y       z     vdW  Elec       q    Type
REMARK                         _______ _______ _______ _____ _____    ______ ____
ROOT
ATOM      1  S   UNL     1       4.219   5.210  18.357  0.00  0.00    +0.000 S 
ATOM      2  O   UNL     1       3.409   4.010  18.245  0.00  0.00    +0.000 OA
ATOM      3  O   UNL     1       5.247   5.271  19.384  0.00  0.00    +0.000 OA
ENDROOT
BRANCH   1   9
ATOM      4  C   UNL     1       6.086   4.455  16.369  0.00  0.00    +0.000 C 
ATOM      5  C   UNL     1       7.334   4.537  17.259  0.00  0.00    +0.000 C 
ATOM      6  O   UNL     1       7.905   5.843  17.195  0.00  0.00    +0.000 OA
ATOM      7  C   UNL     1       7.040   6.872  17.671  0.00  0.00    +0.000 C 
ATOM      8  C   UNL     1       5.725   6.905  16.889  0.00  0.00    +0.000 C 
ATOM      9  C   UNL     1       5.059   5.515  16.785  0.00  0.00    +0.000 C 
BRANCH   4  11
ATOM     10  O   UNL     1       7.492   5.354  14.608  0.00  0.00    +0.000 OA
ATOM     11  C   UNL     1       6.611   4.536  14.910  0.00  0.00    +0.000 C 
ATOM     12  N   UNL     1       6.140   3.662  13.966  0.00  0.00    +0.000 N 
ATOM     13  H   UNL     1       5.854   2.715  14.190  0.00  0.00    +0.000 HD
BRANCH  12  14
ATOM     14  O   UNL     1       6.733   3.806  12.683  0.00  0.00    +0.000 OA
ATOM     15  H   UNL     1       7.609   4.201  12.894  0.00  0.00    +0.000 HD
ENDBRANCH  12  14
ENDBRANCH   4  11
BRANCH   4  16
ATOM     16  O   UNL     1       5.509   3.143  16.386  0.00  0.00    +0.000 OA
ATOM     17  H   UNL     1       4.586   3.220  16.062  0.00  0.00    +0.000 HD
ENDBRANCH   4  16
ENDBRANCH   1   9
BRANCH   1  18
ATOM     18  C   UNL     1       3.096   6.533  18.702  0.00  0.00    +0.000 A 
ATOM     19  C   UNL     1       2.524   6.613  19.975  0.00  0.00    +0.000 A 
ATOM     20  C   UNL     1       1.693   7.681  20.297  0.00  0.00    +0.000 A 
ATOM     21  C   UNL     1       1.489   8.707  19.374  0.00  0.00    +0.000 A 
ATOM     22  C   UNL     1       2.072   8.629  18.105  0.00  0.00    +0.000 A 
ATOM     23  C   UNL     1       2.884   7.544  17.764  0.00  0.00    +0.000 A 
BRANCH  21  24
ATOM     24  O   UNL     1       0.750   9.830  19.617  0.00  0.00    +0.000 OA
BRANCH  24  25
ATOM     25  C   UNL     1       0.491  10.648  18.475  0.00  0.00    +0.000 C 
BRANCH  25  26
ATOM     26  C   UNL     1      -1.002  10.753  18.311  0.00  0.00    +0.000 A 
ATOM     27  C   UNL     1      -1.641   9.934  17.364  0.00  0.00    +0.000 A 
ATOM     28  C   UNL     1      -3.013  10.044  17.147  0.00  0.00    +0.000 A 
ATOM     29  C   UNL     1      -3.756  10.975  17.865  0.00  0.00    +0.000 A 
ATOM     30 CL   UNL     1      -5.445  11.127  17.575  0.00  0.00    +0.000 Cl
ATOM     31  C   UNL     1      -3.143  11.792  18.811  0.00  0.00    +0.000 A 
ATOM     32  C   UNL     1      -1.769  11.683  19.032  0.00  0.00    +0.000 A 
ATOM     33 CL   UNL     1      -1.065  12.730  20.213  0.00  0.00    +0.000 Cl
ENDBRANCH  25  26
ENDBRANCH  24  25
ENDBRANCH  21  24
ENDBRANCH   1  18
TORSDOF 8
ENDMDL
MODEL 4
REMARK VINA RESULT:      -8.8      1.952      2.688
REMARK  Name = 
REMARK  8 active torsions:
REMARK  status: ('A' for Active; 'I' for Inactive)
REMARK    1  A    between atoms: C_2  and  C_5
REMARK    2  A    between atoms: N_3  and  O_4
REMARK    3  A    between atoms: C_5  and  O_6
REMARK    4  A    between atoms: C_11  and  S_12
REMARK    5  A    between atoms: S_12  and  C_15
REMARK    6  A    between atoms: C_18  and  O_19
REMARK    7  A    between atoms: O_19  and  C_20
REMARK    8  A    between atoms: C_20  and  C_21
REMARK                            x       y       z     vdW  Elec       q    Type
REMARK                         _______ _______ _______ _____ _____    ______ ____
ROOT
ATOM      1  S   UNL     1       3.891   5.134  17.895  0.00  0.00    +0.000 S 
ATOM      2  O   UNL     1       2.922   4.104  17.560  0.00  0.00    +0.000 OA
ATOM      3  O   UNL     1       4.838   4.886  18.971  0.00  0.00    +0.000 OA
ENDROOT
BRANCH   1   9
ATOM      4  C   UNL     1       6.014   4.539  16.122  0.00  0.00    +0.000 C 
ATOM      5  C   UNL     1       7.146   4.680  17.149  0.00  0.00    +0.000 C 
ATOM      6  O   UNL     1       7.635   6.021  17.167  0.00  0.00    +0.000 OA
ATOM      7  C   UNL     1       6.657   6.983  17.556  0.00  0.00    +0.000 C 
ATOM      8  C   UNL     1       5.439   6.950  16.630  0.00  0.00    +0.000 C 
ATOM      9  C   UNL     1       4.881   5.523  16.433  0.00  0.00    +0.000 C 
BRANCH   4  11
ATOM     10  O   UNL     1       6.216   4.109  13.742  0.00  0.00    +0.000 OA
ATOM     11  C   UNL     1       6.694   4.683  14.732  0.00  0.00    +0.000 C 
ATOM     12  N   UNL     1       7.790   5.492  14.589  0.00  0.00    +0.000 N 
ATOM     13  H   UNL     1       7.927   6.330  15.142  0.00  0.00    +0.000 HD
BRANCH  12  14
ATOM     14  O   UNL     1       8.288   5.578  13.261  0.00  0.00    +0.000 OA
ATOM     15  H   UNL     1       8.384   4.633  13.006  0.00  0.00    +0.000 HD
ENDBRANCH  12  14
ENDBRANCH   4  11
BRANCH   4  16
ATOM     16  O   UNL     1       5.526   3.193  16.056  0.00  0.00    +0.000 OA
ATOM     17  H   UNL     1       4.555   3.222  16.202  0.00  0.00    +0.000 HD
ENDBRANCH   4  16
ENDBRANCH   1   9
BRANCH   1  18
ATOM     18  C   UNL     1       2.953   6.554  18.378  0.00  0.00    +0.000 A 
ATOM     19  C   UNL     1       2.531   6.659  19.707  0.00  0.00    +0.000 A 
ATOM     20  C   UNL     1       1.854   7.797  20.133  0.00  0.00    +0.000 A 
ATOM     21  C   UNL     1       1.659   8.861  19.252  0.00  0.00    +0.000 A 
ATOM     22  C   UNL     1       2.093   8.757  17.926  0.00  0.00    +0.000 A 
ATOM     23  C   UNL     1       2.748   7.605  17.483  0.00  0.00    +0.000 A 
BRANCH  21  24
ATOM     24  O   UNL     1       1.070  10.046  19.590  0.00  0.00    +0.000 OA
BRANCH  24  25
ATOM     25  C   UNL     1      -0.356  10.017  19.669  0.00  0.00    +0.000 C 
BRANCH  25  26
ATOM     26  C   UNL     1      -0.780  11.005  20.723  0.00  0.00    +0.000 A 
ATOM     27  C   UNL     1      -1.115  12.313  20.333  0.00  0.00    +0.000 A 
ATOM     28  C   UNL     1      -1.458  13.269  21.288  0.00  0.00    +0.000 A 
ATOM     29  C   UNL     1      -1.462  12.930  22.637  0.00  0.00    +0.000 A 
ATOM     30 CL   UNL     1      -1.859  14.120  23.814  0.00  0.00    +0.000 Cl
ATOM     31  C   UNL     1      -1.138  11.639  23.044  0.00  0.00    +0.000 A 
ATOM     32  C   UNL     1      -0.795  10.679  22.089  0.00  0.00    +0.000 A 
ATOM     33 CL   UNL     1      -0.396   9.097  22.657  0.00  0.00    +0.000 Cl
ENDBRANCH  25  26
ENDBRANCH  24  25
ENDBRANCH  21  24
ENDBRANCH   1  18
TORSDOF 8
ENDMDL
MODEL 5
REMARK VINA RESULT:      -8.8      2.976      4.127
REMARK  Name = 
REMARK  8 active torsions:
REMARK  status: ('A' for Active; 'I' for Inactive)
REMARK    1  A    between atoms: C_2  and  C_5
REMARK    2  A    between atoms: N_3  and  O_4
REMARK    3  A    between atoms: C_5  and  O_6
REMARK    4  A    between atoms: C_11  and  S_12
REMARK    5  A    between atoms: S_12  and  C_15
REMARK    6  A    between atoms: C_18  and  O_19
REMARK    7  A    between atoms: O_19  and  C_20
REMARK    8  A    between atoms: C_20  and  C_21
REMARK                            x       y       z     vdW  Elec       q    Type
REMARK                         _______ _______ _______ _____ _____    ______ ____
ROOT
ATOM      1  S   UNL     1       3.306   5.587  18.304  0.00  0.00    +0.000 S 
ATOM      2  O   UNL     1       4.673   5.941  17.964  0.00  0.00    +0.000 OA
ATOM      3  O   UNL     1       2.458   4.996  17.281  0.00  0.00    +0.000 OA
ENDROOT
BRANCH   1   9
ATOM      4  C   UNL     1       4.110   3.130  19.454  0.00  0.00    +0.000 C 
ATOM      5  C   UNL     1       3.381   2.221  18.456  0.00  0.00    +0.000 C 
ATOM      6  O   UNL     1       2.066   1.924  18.923  0.00  0.00    +0.000 OA
ATOM      7  C   UNL     1       1.232   3.073  19.058  0.00  0.00    +0.000 C 
ATOM      8  C   UNL     1       1.841   4.098  20.017  0.00  0.00    +0.000 C 
ATOM      9  C   UNL     1       3.315   4.420  19.685  0.00  0.00    +0.000 C 
BRANCH   4  11
ATOM     10  O   UNL     1       3.560   2.232  21.641  0.00  0.00    +0.000 OA
ATOM     11  C   UNL     1       4.374   2.247  20.705  0.00  0.00    +0.000 C 
ATOM     12  N   UNL     1       5.479   1.438  20.749  0.00  0.00    +0.000 N 
ATOM     13  H   UNL     1       5.879   1.012  19.920  0.00  0.00    +0.000 HD
BRANCH  12  14
ATOM     14  O   UNL     1       5.580   0.644  21.922  0.00  0.00    +0.000 OA
ATOM     15  H   UNL     1       4.666   0.678  22.284  0.00  0.00    +0.000 HD
ENDBRANCH  12  14
ENDBRANCH   4  11
BRANCH   4  16
ATOM     16  O   UNL     1       5.448   3.417  19.028  0.00  0.00    +0.000 OA
ATOM     17  H   UNL     1       5.711   4.273  19.431  0.00  0.00    +0.000 HD
ENDBRANCH   4  16
ENDBRANCH   1   9
BRANCH   1  18
ATOM     18  C   UNL     1       2.515   7.091  18.796  0.00  0.00    +0.000 A 
ATOM     19  C   UNL     1       2.214   8.042  17.817  0.00  0.00    +0.000 A 
ATOM     20  C   UNL     1       1.528   9.202  18.163  0.00  0.00    +0.000 A 
ATOM     21  C   UNL     1       1.081   9.382  19.472  0.00  0.00    +0.000 A 
ATOM     22  C   UNL     1       1.374   8.422  20.447  0.00  0.00    +0.000 A 
ATOM     23  C   UNL     1       2.088   7.268  20.113  0.00  0.00    +0.000 A 
BRANCH  21  24
ATOM     24  O   UNL     1       0.342  10.449  19.896  0.00  0.00    +0.000 OA
BRANCH  24  25
ATOM     25  C   UNL     1      -0.019  11.384  18.878  0.00  0.00    +0.000 C 
BRANCH  25  26
ATOM     26  C   UNL     1      -1.511  11.309  18.692  0.00  0.00    +0.000 A 
ATOM     27  C   UNL     1      -2.036  10.390  17.767  0.00  0.00    +0.000 A 
ATOM     28  C   UNL     1      -3.408  10.333  17.528  0.00  0.00    +0.000 A 
ATOM     29  C   UNL     1      -4.265  11.196  18.204  0.00  0.00    +0.000 A 
ATOM     30 CL   UNL     1      -5.955  11.141  17.887  0.00  0.00    +0.000 Cl
ATOM     31  C   UNL     1      -3.766  12.110  19.128  0.00  0.00    +0.000 A 
ATOM     32  C   UNL     1      -2.392  12.169  19.369  0.00  0.00    +0.000 A 
ATOM     33 CL   UNL     1      -1.834  13.329  20.521  0.00  0.00    +0.000 Cl
ENDBRANCH  25  26
ENDBRANCH  24  25
ENDBRANCH  21  24
ENDBRANCH   1  18
TORSDOF 8
ENDMDL
MODEL 6
REMARK VINA RESULT:      -8.7      2.117      2.574
REMARK  Name = 
REMARK  8 active torsions:
REMARK  status: ('A' for Active; 'I' for Inactive)
REMARK    1  A    between atoms: C_2  and  C_5
REMARK    2  A    between atoms: N_3  and  O_4
REMARK    3  A    between atoms: C_5  and  O_6
REMARK    4  A    between atoms: C_11  and  S_12
REMARK    5  A    between atoms: S_12  and  C_15
REMARK    6  A    between atoms: C_18  and  O_19
REMARK    7  A    between atoms: O_19  and  C_20
REMARK    8  A    between atoms: C_20  and  C_21
REMARK                            x       y       z     vdW  Elec       q    Type
REMARK                         _______ _______ _______ _____ _____    ______ ____
ROOT
ATOM      1  S   UNL     1       4.440   4.242  18.295  0.00  0.00    +0.000 S 
ATOM      2  O   UNL     1       3.598   3.101  17.981  0.00  0.00    +0.000 OA
ATOM      3  O   UNL     1       5.606   4.045  19.142  0.00  0.00    +0.000 OA
ENDROOT
BRANCH   1   9
ATOM      4  C   UNL     1       6.238   4.253  16.109  0.00  0.00    +0.000 C 
ATOM      5  C   UNL     1       7.515   4.468  16.933  0.00  0.00    +0.000 C 
ATOM      6  O   UNL     1       7.789   5.862  17.070  0.00  0.00    +0.000 OA
ATOM      7  C   UNL     1       6.772   6.582  17.764  0.00  0.00    +0.000 C 
ATOM      8  C   UNL     1       5.415   6.444  17.070  0.00  0.00    +0.000 C 
ATOM      9  C   UNL     1       5.052   4.975  16.759  0.00  0.00    +0.000 C 
BRANCH   4  11
ATOM     10  O   UNL     1       5.816   4.453  13.728  0.00  0.00    +0.000 OA
ATOM     11  C   UNL     1       6.600   4.681  14.661  0.00  0.00    +0.000 C 
ATOM     12  N   UNL     1       7.763   5.365  14.423  0.00  0.00    +0.000 N 
ATOM     13  H   UNL     1       8.171   6.004  15.096  0.00  0.00    +0.000 HD
BRANCH  12  14
ATOM     14  O   UNL     1       7.955   5.743  13.067  0.00  0.00    +0.000 OA
ATOM     15  H   UNL     1       8.173   6.700  13.139  0.00  0.00    +0.000 HD
ENDBRANCH  12  14
ENDBRANCH   4  11
BRANCH   4  16
ATOM     16  O   UNL     1       5.956   2.859  15.926  0.00  0.00    +0.000 OA
ATOM     17  H   UNL     1       6.451   2.558  15.133  0.00  0.00    +0.000 HD
ENDBRANCH   4  16
ENDBRANCH   1   9
BRANCH   1  18
ATOM     18  C   UNL     1       3.405   5.402  19.139  0.00  0.00    +0.000 A 
ATOM     19  C   UNL     1       3.132   6.628  18.527  0.00  0.00    +0.000 A 
ATOM     20  C   UNL     1       2.264   7.530  19.134  0.00  0.00    +0.000 A 
ATOM     21  C   UNL     1       1.613   7.181  20.318  0.00  0.00    +0.000 A 
ATOM     22  C   UNL     1       1.881   5.948  20.922  0.00  0.00    +0.000 A 
ATOM     23  C   UNL     1       2.774   5.049  20.333  0.00  0.00    +0.000 A 
BRANCH  21  24
ATOM     24  O   UNL     1       0.693   7.964  20.954  0.00  0.00    +0.000 OA
BRANCH  24  25
ATOM     25  C   UNL     1       1.237   8.949  21.836  0.00  0.00    +0.000 C 
BRANCH  25  26
ATOM     26  C   UNL     1       0.237  10.068  21.949  0.00  0.00    +0.000 A 
ATOM     27  C   UNL     1      -0.572  10.144  23.096  0.00  0.00    +0.000 A 
ATOM     28  C   UNL     1      -1.547  11.134  23.210  0.00  0.00    +0.000 A 
ATOM     29  C   UNL     1      -1.726  12.050  22.178  0.00  0.00    +0.000 A 
ATOM     30 CL   UNL     1      -2.948  13.255  22.310  0.00  0.00    +0.000 Cl
ATOM     31  C   UNL     1      -0.932  11.996  21.036  0.00  0.00    +0.000 A 
ATOM     32  C   UNL     1       0.045  11.006  20.921  0.00  0.00    +0.000 A 
ATOM     33 CL   UNL     1       0.994  10.986  19.476  0.00  0.00    +0.000 Cl
ENDBRANCH  25  26
ENDBRANCH  24  25
ENDBRANCH  21  24
ENDBRANCH   1  18
TORSDOF 8
ENDMDL
MODEL 7
REMARK VINA RESULT:      -8.7      2.164      2.692
REMARK  Name = 
REMARK  8 active torsions:
REMARK  status: ('A' for Active; 'I' for Inactive)
REMARK    1  A    between atoms: C_2  and  C_5
REMARK    2  A    between atoms: N_3  and  O_4
REMARK    3  A    between atoms: C_5  and  O_6
REMARK    4  A    between atoms: C_11  and  S_12
REMARK    5  A    between atoms: S_12  and  C_15
REMARK    6  A    between atoms: C_18  and  O_19
REMARK    7  A    between atoms: O_19  and  C_20
REMARK    8  A    between atoms: C_20  and  C_21
REMARK                            x       y       z     vdW  Elec       q    Type
REMARK                         _______ _______ _______ _____ _____    ______ ____
ROOT
ATOM      1  S   UNL     1       4.203   5.301  18.411  0.00  0.00    +0.000 S 
ATOM      2  O   UNL     1       3.414   4.082  18.353  0.00  0.00    +0.000 OA
ATOM      3  O   UNL     1       5.226   5.428  19.437  0.00  0.00    +0.000 OA
ENDROOT
BRANCH   1   9
ATOM      4  C   UNL     1       6.074   4.478  16.455  0.00  0.00    +0.000 C 
ATOM      5  C   UNL     1       7.321   4.602  17.342  0.00  0.00    +0.000 C 
ATOM      6  O   UNL     1       7.885   5.908  17.226  0.00  0.00    +0.000 OA
ATOM      7  C   UNL     1       7.014   6.950  17.660  0.00  0.00    +0.000 C 
ATOM      8  C   UNL     1       5.699   6.945  16.877  0.00  0.00    +0.000 C 
ATOM      9  C   UNL     1       5.042   5.548  16.829  0.00  0.00    +0.000 C 
BRANCH   4  11
ATOM     10  O   UNL     1       7.581   5.202  14.696  0.00  0.00    +0.000 OA
ATOM     11  C   UNL     1       6.599   4.504  14.994  0.00  0.00    +0.000 C 
ATOM     12  N   UNL     1       6.013   3.710  14.044  0.00  0.00    +0.000 N 
ATOM     13  H   UNL     1       5.605   2.808  14.260  0.00  0.00    +0.000 HD
BRANCH  12  14
ATOM     14  O   UNL     1       6.615   3.788  12.759  0.00  0.00    +0.000 OA
ATOM     15  H   UNL     1       7.010   4.689  12.761  0.00  0.00    +0.000 HD
ENDBRANCH  12  14
ENDBRANCH   4  11
BRANCH   4  16
ATOM     16  O   UNL     1       5.505   3.165  16.524  0.00  0.00    +0.000 OA
ATOM     17  H   UNL     1       4.801   3.182  17.208  0.00  0.00    +0.000 HD
ENDBRANCH   4  16
ENDBRANCH   1   9
BRANCH   1  18
ATOM     18  C   UNL     1       3.055   6.618  18.692  0.00  0.00    +0.000 A 
ATOM     19  C   UNL     1       2.490   6.757  19.963  0.00  0.00    +0.000 A 
ATOM     20  C   UNL     1       1.640   7.824  20.232  0.00  0.00    +0.000 A 
ATOM     21  C   UNL     1       1.407   8.793  19.256  0.00  0.00    +0.000 A 
ATOM     22  C   UNL     1       1.982   8.656  17.988  0.00  0.00    +0.000 A 
ATOM     23  C   UNL     1       2.814   7.571  17.700  0.00  0.00    +0.000 A 
BRANCH  21  24
ATOM     24  O   UNL     1       0.646   9.912  19.442  0.00  0.00    +0.000 OA
BRANCH  24  25
ATOM     25  C   UNL     1       1.057  10.755  20.520  0.00  0.00    +0.000 C 
BRANCH  25  26
ATOM     26  C   UNL     1      -0.179  11.202  21.253  0.00  0.00    +0.000 A 
ATOM     27  C   UNL     1      -0.966  12.226  20.698  0.00  0.00    +0.000 A 
ATOM     28  C   UNL     1      -2.087  12.703  21.376  0.00  0.00    +0.000 A 
ATOM     29  C   UNL     1      -2.425  12.169  22.615  0.00  0.00    +0.000 A 
ATOM     30 CL   UNL     1      -3.793  12.778  23.462  0.00  0.00    +0.000 Cl
ATOM     31  C   UNL     1      -1.662  11.151  23.180  0.00  0.00    +0.000 A 
ATOM     32  C   UNL     1      -0.540  10.671  22.502  0.00  0.00    +0.000 A 
ATOM     33 CL   UNL     1       0.371   9.412  23.258  0.00  0.00    +0.000 Cl
ENDBRANCH  25  26
ENDBRANCH  24  25
ENDBRANCH  21  24
ENDBRANCH   1  18
TORSDOF 8
ENDMDL
MODEL 8
REMARK VINA RESULT:      -8.7      3.627      4.963
REMARK  Name = 
REMARK  8 active torsions:
REMARK  status: ('A' for Active; 'I' for Inactive)
REMARK    1  A    between atoms: C_2  and  C_5
REMARK    2  A    between atoms: N_3  and  O_4
REMARK    3  A    between atoms: C_5  and  O_6
REMARK    4  A    between atoms: C_11  and  S_12
REMARK    5  A    between atoms: S_12  and  C_15
REMARK    6  A    between atoms: C_18  and  O_19
REMARK    7  A    between atoms: O_19  and  C_20
REMARK    8  A    between atoms: C_20  and  C_21
REMARK                            x       y       z     vdW  Elec       q    Type
REMARK                         _______ _______ _______ _____ _____    ______ ____
ROOT
ATOM      1  S   UNL     1       2.738   5.361  18.272  0.00  0.00    +0.000 S 
ATOM      2  O   UNL     1       4.029   5.534  17.628  0.00  0.00    +0.000 OA
ATOM      3  O   UNL     1       1.622   4.861  17.485  0.00  0.00    +0.000 OA
ENDROOT
BRANCH   1   9
ATOM      4  C   UNL     1       3.867   3.049  19.451  0.00  0.00    +0.000 C 
ATOM      5  C   UNL     1       3.250   2.036  18.478  0.00  0.00    +0.000 C 
ATOM      6  O   UNL     1       1.989   1.581  18.967  0.00  0.00    +0.000 OA
ATOM      7  C   UNL     1       1.016   2.615  19.095  0.00  0.00    +0.000 C 
ATOM      8  C   UNL     1       1.498   3.727  20.029  0.00  0.00    +0.000 C 
ATOM      9  C   UNL     1       2.914   4.230  19.672  0.00  0.00    +0.000 C 
BRANCH   4  11
ATOM     10  O   UNL     1       3.511   2.217  21.703  0.00  0.00    +0.000 OA
ATOM     11  C   UNL     1       4.257   2.230  20.712  0.00  0.00    +0.000 C 
ATOM     12  N   UNL     1       5.399   1.474  20.708  0.00  0.00    +0.000 N 
ATOM     13  H   UNL     1       5.761   1.033  19.870  0.00  0.00    +0.000 HD
BRANCH  12  14
ATOM     14  O   UNL     1       5.618   0.734  21.901  0.00  0.00    +0.000 OA
ATOM     15  H   UNL     1       6.546   0.967  22.131  0.00  0.00    +0.000 HD
ENDBRANCH  12  14
ENDBRANCH   4  11
BRANCH   4  16
ATOM     16  O   UNL     1       5.151   3.499  19.002  0.00  0.00    +0.000 OA
ATOM     17  H   UNL     1       5.094   3.642  18.033  0.00  0.00    +0.000 HD
ENDBRANCH   4  16
ENDBRANCH   1   9
BRANCH   1  18
ATOM     18  C   UNL     1       2.258   6.961  18.852  0.00  0.00    +0.000 A 
ATOM     19  C   UNL     1       2.065   7.983  17.918  0.00  0.00    +0.000 A 
ATOM     20  C   UNL     1       1.618   9.233  18.338  0.00  0.00    +0.000 A 
ATOM     21  C   UNL     1       1.297   9.443  19.679  0.00  0.00    +0.000 A 
ATOM     22  C   UNL     1       1.482   8.414  20.609  0.00  0.00    +0.000 A 
ATOM     23  C   UNL     1       1.958   7.166  20.200  0.00  0.00    +0.000 A 
BRANCH  21  24
ATOM     24  O   UNL     1       0.787  10.607  20.179  0.00  0.00    +0.000 OA
BRANCH  24  25
ATOM     25  C   UNL     1      -0.634  10.731  20.104  0.00  0.00    +0.000 C 
BRANCH  25  26
ATOM     26  C   UNL     1      -1.044  11.880  20.987  0.00  0.00    +0.000 A 
ATOM     27  C   UNL     1      -1.302  13.130  20.399  0.00  0.00    +0.000 A 
ATOM     28  C   UNL     1      -1.629  14.230  21.192  0.00  0.00    +0.000 A 
ATOM     29  C   UNL     1      -1.693  14.092  22.575  0.00  0.00    +0.000 A 
ATOM     30 CL   UNL     1      -2.071  15.456  23.551  0.00  0.00    +0.000 Cl
ATOM     31  C   UNL     1      -1.446  12.861  23.176  0.00  0.00    +0.000 A 
ATOM     32  C   UNL     1      -1.119  11.758  22.384  0.00  0.00    +0.000 A 
ATOM     33 CL   UNL     1      -0.816  10.260  23.190  0.00  0.00    +0.000 Cl
ENDBRANCH  25  26
ENDBRANCH  24  25
ENDBRANCH  21  24
ENDBRANCH   1  18
TORSDOF 8
ENDMDL
MODEL 9
REMARK VINA RESULT:      -8.6      1.289      2.171
REMARK  Name = 
REMARK  8 active torsions:
REMARK  status: ('A' for Active; 'I' for Inactive)
REMARK    1  A    between atoms: C_2  and  C_5
REMARK    2  A    between atoms: N_3  and  O_4
REMARK    3  A    between atoms: C_5  and  O_6
REMARK    4  A    between atoms: C_11  and  S_12
REMARK    5  A    between atoms: S_12  and  C_15
REMARK    6  A    between atoms: C_18  and  O_19
REMARK    7  A    between atoms: O_19  and  C_20
REMARK    8  A    between atoms: C_20  and  C_21
REMARK                            x       y       z     vdW  Elec       q    Type
REMARK                         _______ _______ _______ _____ _____    ______ ____
ROOT
ATOM      1  S   UNL     1       4.116   4.615  17.882  0.00  0.00    +0.000 S 
ATOM      2  O   UNL     1       3.191   3.554  17.526  0.00  0.00    +0.000 OA
ATOM      3  O   UNL     1       5.157   4.342  18.861  0.00  0.00    +0.000 OA
ENDROOT
BRANCH   1   9
ATOM      4  C   UNL     1       6.170   4.356  15.953  0.00  0.00    +0.000 C 
ATOM      5  C   UNL     1       7.345   4.554  16.919  0.00  0.00    +0.000 C 
ATOM      6  O   UNL     1       7.696   5.935  16.999  0.00  0.00    +0.000 OA
ATOM      7  C   UNL     1       6.652   6.764  17.507  0.00  0.00    +0.000 C 
ATOM      8  C   UNL     1       5.386   6.658  16.654  0.00  0.00    +0.000 C 
ATOM      9  C   UNL     1       4.965   5.195  16.394  0.00  0.00    +0.000 C 
BRANCH   4  11
ATOM     10  O   UNL     1       6.205   4.161  13.534  0.00  0.00    +0.000 OA
ATOM     11  C   UNL     1       6.739   4.655  14.539  0.00  0.00    +0.000 C 
ATOM     12  N   UNL     1       7.798   5.513  14.397  0.00  0.00    +0.000 N 
ATOM     13  H   UNL     1       7.952   6.299  15.017  0.00  0.00    +0.000 HD
BRANCH  12  14
ATOM     14  O   UNL     1       8.193   5.741  13.051  0.00  0.00    +0.000 OA
ATOM     15  H   UNL     1       8.151   6.721  12.978  0.00  0.00    +0.000 HD
ENDBRANCH  12  14
ENDBRANCH   4  11
BRANCH   4  16
ATOM     16  O   UNL     1       5.817   2.973  15.825  0.00  0.00    +0.000 OA
ATOM     17  H   UNL     1       6.634   2.477  15.602  0.00  0.00    +0.000 HD
ENDBRANCH   4  16
ENDBRANCH   1   9
BRANCH   1  18
ATOM     18  C   UNL     1       3.132   5.921  18.557  0.00  0.00    +0.000 A 
ATOM     19  C   UNL     1       2.679   5.808  19.874  0.00  0.00    +0.000 A 
ATOM     20  C   UNL     1       1.964   6.851  20.455  0.00  0.00    +0.000 A 
ATOM     21  C   UNL     1       1.760   8.035  19.746  0.00  0.00    +0.000 A 
ATOM     22  C   UNL     1       2.224   8.148  18.431  0.00  0.00    +0.000 A 
ATOM     23  C   UNL     1       2.917   7.094  17.831  0.00  0.00    +0.000 A 
BRANCH  21  24
ATOM     24  O   UNL     1       1.133   9.139  20.249  0.00  0.00    +0.000 OA
BRANCH  24  25
ATOM     25  C   UNL     1       0.474   9.959  19.282  0.00  0.00    +0.000 C 
BRANCH  25  26
ATOM     26  C   UNL     1      -0.458  10.883  20.019  0.00  0.00    +0.000 A 
ATOM     27  C   UNL     1      -0.311  11.031  21.409  0.00  0.00    +0.000 A 
ATOM     28  C   UNL     1      -1.191  11.834  22.132  0.00  0.00    +0.000 A 
ATOM     29  C   UNL     1      -2.228  12.489  21.476  0.00  0.00    +0.000 A 
ATOM     30 CL   UNL     1      -3.329  13.459  22.375  0.00  0.00    +0.000 Cl
ATOM     31  C   UNL     1      -2.388  12.361  20.099  0.00  0.00    +0.000 A 
ATOM     32  C   UNL     1      -1.507  11.557  19.373  0.00  0.00    +0.000 A 
ATOM     33 CL   UNL     1      -1.763  11.431  17.668  0.00  0.00    +0.000 Cl
ENDBRANCH  25  26
ENDBRANCH  24  25
ENDBRANCH  21  24
ENDBRANCH   1  18
TORSDOF 8
ENDMDL
