MODEL 1
REMARK VINA RESULT:      -8.1      0.000      0.000
REMARK  Name = 
REMARK  6 active torsions:
REMARK  status: ('A' for Active; 'I' for Inactive)
REMARK    1  A    between atoms: C_1  and  C_2
REMARK    2  A    between atoms: C_2  and  C_3
REMARK    3  A    between atoms: C_3  and  S_4
REMARK    4  A    between atoms: S_4  and  C_5
REMARK    5  A    between atoms: C_21  and  C_22
REMARK    6  A    between atoms: C_22  and  O_24
REMARK                            x       y       z     vdW  Elec       q    Type
REMARK                         _______ _______ _______ _____ _____    ______ ____
ROOT
ATOM      1  C   UNL     1       4.707   6.779  17.287  0.00  0.00    +0.000 C 
ATOM      2  C   UNL     1       3.864   5.824  18.149  0.00  0.00    +0.000 C 
ATOM      3  S   UNL     1       3.410   4.358  17.084  0.00  0.00    +0.000 S 
ATOM      4  C   UNL     1       3.423   3.161  18.466  0.00  0.00    +0.000 C 
ATOM      5  C   UNL     1       2.091   2.982  19.221  0.00  0.00    +0.000 C 
ATOM      6  F   UNL     1       1.807   1.743  19.683  0.00  0.00    +0.000 F 
ATOM      7  C   UNL     1       2.766   3.837  20.320  0.00  0.00    +0.000 C 
ATOM      8  O   UNL     1       2.424   4.447  21.307  0.00  0.00    +0.000 OA
ATOM      9  N   UNL     1       3.955   3.887  19.634  0.00  0.00    +0.000 N 
ATOM     10  C   UNL     1       4.587   5.198  19.375  0.00  0.00    +0.000 C 
ENDROOT
BRANCH  10  11
ATOM     11  C   UNL     1       6.103   4.978  19.217  0.00  0.00    +0.000 C 
ATOM     12  O   UNL     1       6.963   5.540  19.879  0.00  0.00    +0.000 OA
BRANCH  11  13
ATOM     13  O   UNL     1       6.427   4.023  18.308  0.00  0.00    +0.000 OA
ATOM     14  H   UNL     1       6.308   4.361  17.396  0.00  0.00    +0.000 HD
ENDBRANCH  11  13
ENDBRANCH  10  11
BRANCH   2  15
ATOM     15  C   UNL     1       2.525   6.532  18.513  0.00  0.00    +0.000 C 
BRANCH  15  16
ATOM     16  S   UNL     1       2.444   8.253  17.923  0.00  0.00    +0.000 S 
BRANCH  16  17
ATOM     17  C   UNL     1       1.509   9.021  19.185  0.00  0.00    +0.000 A 
ATOM     18  N   UNL     1       1.346   8.483  20.371  0.00  0.00    +0.000 NA
ATOM     19  C   UNL     1       0.577   9.331  21.156  0.00  0.00    +0.000 A 
ATOM     20  C   UNL     1       0.192   9.113  22.498  0.00  0.00    +0.000 A 
ATOM     21  C   UNL     1      -0.583  10.071  23.165  0.00  0.00    +0.000 A 
ATOM     22  C   UNL     1      -0.984  11.234  22.516  0.00  0.00    +0.000 A 
ATOM     23  C   UNL     1      -0.623  11.472  21.189  0.00  0.00    +0.000 A 
ATOM     24  C   UNL     1       0.159  10.508  20.532  0.00  0.00    +0.000 A 
ATOM     25  S   UNL     1       0.756  10.529  18.920  0.00  0.00    +0.000 S 
ENDBRANCH  16  17
ENDBRANCH  15  16
ENDBRANCH   2  15
TORSDOF 5
ENDMDL
MODEL 2
REMARK VINA RESULT:      -8.1      0.803      1.265
REMARK  Name = 
REMARK  6 active torsions:
REMARK  status: ('A' for Active; 'I' for Inactive)
REMARK    1  A    between atoms: C_1  and  C_2
REMARK    2  A    between atoms: C_2  and  C_3
REMARK    3  A    between atoms: C_3  and  S_4
REMARK    4  A    between atoms: S_4  and  C_5
REMARK    5  A    between atoms: C_21  and  C_22
REMARK    6  A    between atoms: C_22  and  O_24
REMARK                            x       y       z     vdW  Elec       q    Type
REMARK                         _______ _______ _______ _____ _____    ______ ____
ROOT
ATOM      1  C   UNL     1       4.660   6.768  17.368  0.00  0.00    +0.000 C 
ATOM      2  C   UNL     1       3.846   5.756  18.192  0.00  0.00    +0.000 C 
ATOM      3  S   UNL     1       3.440   4.317  17.073  0.00  0.00    +0.000 S 
ATOM      4  C   UNL     1       3.489   3.071  18.410  0.00  0.00    +0.000 C 
ATOM      5  C   UNL     1       2.162   2.822  19.154  0.00  0.00    +0.000 C 
ATOM      6  F   UNL     1       1.916   1.558  19.569  0.00  0.00    +0.000 F 
ATOM      7  C   UNL     1       2.807   3.657  20.286  0.00  0.00    +0.000 C 
ATOM      8  O   UNL     1       2.445   4.219  21.293  0.00  0.00    +0.000 OA
ATOM      9  N   UNL     1       3.995   3.770  19.605  0.00  0.00    +0.000 N 
ATOM     10  C   UNL     1       4.586   5.109  19.396  0.00  0.00    +0.000 C 
ENDROOT
BRANCH  10  11
ATOM     11  C   UNL     1       6.109   4.943  19.235  0.00  0.00    +0.000 C 
ATOM     12  O   UNL     1       6.950   5.557  19.875  0.00  0.00    +0.000 OA
BRANCH  11  13
ATOM     13  O   UNL     1       6.464   3.975  18.352  0.00  0.00    +0.000 OA
ATOM     14  H   UNL     1       6.808   3.188  18.824  0.00  0.00    +0.000 HD
ENDBRANCH  11  13
ENDBRANCH  10  11
BRANCH   2  15
ATOM     15  C   UNL     1       2.485   6.408  18.578  0.00  0.00    +0.000 C 
BRANCH  15  16
ATOM     16  S   UNL     1       2.366   8.158  18.088  0.00  0.00    +0.000 S 
BRANCH  16  17
ATOM     17  C   UNL     1       1.478   8.846  19.429  0.00  0.00    +0.000 A 
ATOM     18  N   UNL     1       0.864  10.003  19.349  0.00  0.00    +0.000 NA
ATOM     19  C   UNL     1       0.236  10.272  20.559  0.00  0.00    +0.000 A 
ATOM     20  C   UNL     1      -0.537  11.413  20.867  0.00  0.00    +0.000 A 
ATOM     21  C   UNL     1      -1.117  11.540  22.136  0.00  0.00    +0.000 A 
ATOM     22  C   UNL     1      -0.934  10.553  23.099  0.00  0.00    +0.000 A 
ATOM     23  C   UNL     1      -0.170   9.418  22.823  0.00  0.00    +0.000 A 
ATOM     24  C   UNL     1       0.402   9.299  21.546  0.00  0.00    +0.000 A 
ATOM     25  S   UNL     1       1.374   8.027  20.921  0.00  0.00    +0.000 S 
ENDBRANCH  16  17
ENDBRANCH  15  16
ENDBRANCH   2  15
TORSDOF 5
ENDMDL
MODEL 3
REMARK VINA RESULT:      -7.8      1.897      2.333
REMARK  Name = 
REMARK  6 active torsions:
REMARK  status: ('A' for Active; 'I' for Inactive)
REMARK    1  A    between atoms: C_1  and  C_2
REMARK    2  A    between atoms: C_2  and  C_3
REMARK    3  A    between atoms: C_3  and  S_4
REMARK    4  A    between atoms: S_4  and  C_5
REMARK    5  A    between atoms: C_21  and  C_22
REMARK    6  A    between atoms: C_22  and  O_24
REMARK                            x       y       z     vdW  Elec       q    Type
REMARK                         _______ _______ _______ _____ _____    ______ ____
ROOT
ATOM      1  C   UNL     1       5.813   4.112  19.203  0.00  0.00    +0.000 C 
ATOM      2  C   UNL     1       4.300   3.878  19.349  0.00  0.00    +0.000 C 
ATOM      3  S   UNL     1       3.643   3.379  17.674  0.00  0.00    +0.000 S 
ATOM      4  C   UNL     1       2.343   2.282  18.343  0.00  0.00    +0.000 C 
ATOM      5  C   UNL     1       0.983   2.946  18.640  0.00  0.00    +0.000 C 
ATOM      6  F   UNL     1      -0.125   2.200  18.429  0.00  0.00    +0.000 F 
ATOM      7  C   UNL     1       1.429   2.861  20.120  0.00  0.00    +0.000 C 
ATOM      8  O   UNL     1       1.090   3.337  21.179  0.00  0.00    +0.000 OA
ATOM      9  N   UNL     1       2.586   2.196  19.795  0.00  0.00    +0.000 N 
ATOM     10  C   UNL     1       3.881   2.710  20.288  0.00  0.00    +0.000 C 
ENDROOT
BRANCH  10  11
ATOM     11  C   UNL     1       4.868   1.531  20.370  0.00  0.00    +0.000 C 
ATOM     12  O   UNL     1       5.594   1.295  21.324  0.00  0.00    +0.000 OA
BRANCH  11  13
ATOM     13  O   UNL     1       4.816   0.698  19.300  0.00  0.00    +0.000 OA
ATOM     14  H   UNL     1       5.538   0.903  18.669  0.00  0.00    +0.000 HD
ENDBRANCH  11  13
ENDBRANCH  10  11
BRANCH   2  15
ATOM     15  C   UNL     1       3.618   5.233  19.701  0.00  0.00    +0.000 C 
BRANCH  15  16
ATOM     16  S   UNL     1       3.127   6.189  18.232  0.00  0.00    +0.000 S 
BRANCH  16  17
ATOM     17  C   UNL     1       2.251   7.523  18.947  0.00  0.00    +0.000 A 
ATOM     18  N   UNL     1       1.873   7.526  20.204  0.00  0.00    +0.000 NA
ATOM     19  C   UNL     1       1.218   8.720  20.480  0.00  0.00    +0.000 A 
ATOM     20  C   UNL     1       0.674   9.109  21.725  0.00  0.00    +0.000 A 
ATOM     21  C   UNL     1       0.046  10.355  21.852  0.00  0.00    +0.000 A 
ATOM     22  C   UNL     1      -0.052  11.212  20.761  0.00  0.00    +0.000 A 
ATOM     23  C   UNL     1       0.472  10.850  19.519  0.00  0.00    +0.000 A 
ATOM     24  C   UNL     1       1.104   9.602  19.404  0.00  0.00    +0.000 A 
ATOM     25  S   UNL     1       1.841   8.896  18.022  0.00  0.00    +0.000 S 
ENDBRANCH  16  17
ENDBRANCH  15  16
ENDBRANCH   2  15
TORSDOF 5
ENDMDL
MODEL 4
REMARK VINA RESULT:      -7.7      0.960      1.180
REMARK  Name = 
REMARK  6 active torsions:
REMARK  status: ('A' for Active; 'I' for Inactive)
REMARK    1  A    between atoms: C_1  and  C_2
REMARK    2  A    between atoms: C_2  and  C_3
REMARK    3  A    between atoms: C_3  and  S_4
REMARK    4  A    between atoms: S_4  and  C_5
REMARK    5  A    between atoms: C_21  and  C_22
REMARK    6  A    between atoms: C_22  and  O_24
REMARK                            x       y       z     vdW  Elec       q    Type
REMARK                         _______ _______ _______ _____ _____    ______ ____
ROOT
ATOM      1  C   UNL     1       5.507   7.120  17.608  0.00  0.00    +0.000 C 
ATOM      2  C   UNL     1       4.712   5.889  18.074  0.00  0.00    +0.000 C 
ATOM      3  S   UNL     1       4.545   4.740  16.612  0.00  0.00    +0.000 S 
ATOM      4  C   UNL     1       4.578   3.213  17.617  0.00  0.00    +0.000 C 
ATOM      5  C   UNL     1       3.212   2.707  18.126  0.00  0.00    +0.000 C 
ATOM      6  F   UNL     1       3.043   1.368  18.203  0.00  0.00    +0.000 F 
ATOM      7  C   UNL     1       3.670   3.284  19.487  0.00  0.00    +0.000 C 
ATOM      8  O   UNL     1       3.164   3.561  20.550  0.00  0.00    +0.000 OA
ATOM      9  N   UNL     1       4.902   3.634  18.992  0.00  0.00    +0.000 N 
ATOM     10  C   UNL     1       5.389   5.018  19.170  0.00  0.00    +0.000 C 
ENDROOT
BRANCH  10  11
ATOM     11  C   UNL     1       6.928   4.994  19.149  0.00  0.00    +0.000 C 
ATOM     12  O   UNL     1       7.607   4.521  18.250  0.00  0.00    +0.000 OA
BRANCH  11  13
ATOM     13  O   UNL     1       7.500   5.629  20.204  0.00  0.00    +0.000 OA
ATOM     14  H   UNL     1       7.517   6.597  20.056  0.00  0.00    +0.000 HD
ENDBRANCH  11  13
ENDBRANCH  10  11
BRANCH   2  15
ATOM     15  C   UNL     1       3.267   6.340  18.443  0.00  0.00    +0.000 C 
BRANCH  15  16
ATOM     16  S   UNL     1       2.794   7.921  17.675  0.00  0.00    +0.000 S 
BRANCH  16  17
ATOM     17  C   UNL     1       1.847   8.666  18.943  0.00  0.00    +0.000 A 
ATOM     18  N   UNL     1       1.785   8.177  20.159  0.00  0.00    +0.000 NA
ATOM     19  C   UNL     1       0.974   8.992  20.938  0.00  0.00    +0.000 A 
ATOM     20  C   UNL     1       0.669   8.810  22.306  0.00  0.00    +0.000 A 
ATOM     21  C   UNL     1      -0.162   9.726  22.962  0.00  0.00    +0.000 A 
ATOM     22  C   UNL     1      -0.697  10.813  22.279  0.00  0.00    +0.000 A 
ATOM     23  C   UNL     1      -0.417  11.014  20.926  0.00  0.00    +0.000 A 
ATOM     24  C   UNL     1       0.423  10.092  20.279  0.00  0.00    +0.000 A 
ATOM     25  S   UNL     1       0.946  10.084  18.642  0.00  0.00    +0.000 S 
ENDBRANCH  16  17
ENDBRANCH  15  16
ENDBRANCH   2  15
TORSDOF 5
ENDMDL
MODEL 5
REMARK VINA RESULT:      -7.5      0.936      1.023
REMARK  Name = 
REMARK  6 active torsions:
REMARK  status: ('A' for Active; 'I' for Inactive)
REMARK    1  A    between atoms: C_1  and  C_2
REMARK    2  A    between atoms: C_2  and  C_3
REMARK    3  A    between atoms: C_3  and  S_4
REMARK    4  A    between atoms: S_4  and  C_5
REMARK    5  A    between atoms: C_21  and  C_22
REMARK    6  A    between atoms: C_22  and  O_24
REMARK                            x       y       z     vdW  Elec       q    Type
REMARK                         _______ _______ _______ _____ _____    ______ ____
ROOT
ATOM      1  C   UNL     1       4.104   6.490  17.421  0.00  0.00    +0.000 C 
ATOM      2  C   UNL     1       3.281   5.755  18.493  0.00  0.00    +0.000 C 
ATOM      3  S   UNL     1       2.032   4.685  17.609  0.00  0.00    +0.000 S 
ATOM      4  C   UNL     1       2.038   3.369  18.878  0.00  0.00    +0.000 C 
ATOM      5  C   UNL     1       1.028   3.535  20.031  0.00  0.00    +0.000 C 
ATOM      6  F   UNL     1       0.476   2.407  20.532  0.00  0.00    +0.000 F 
ATOM      7  C   UNL     1       2.265   3.957  20.860  0.00  0.00    +0.000 C 
ATOM      8  O   UNL     1       2.481   4.501  21.918  0.00  0.00    +0.000 OA
ATOM      9  N   UNL     1       3.123   3.709  19.817  0.00  0.00    +0.000 N 
ATOM     10  C   UNL     1       4.070   4.760  19.391  0.00  0.00    +0.000 C 
ENDROOT
BRANCH  10  11
ATOM     11  C   UNL     1       5.282   4.078  18.730  0.00  0.00    +0.000 C 
ATOM     12  O   UNL     1       6.450   4.355  18.959  0.00  0.00    +0.000 OA
BRANCH  11  13
ATOM     13  O   UNL     1       4.950   3.057  17.900  0.00  0.00    +0.000 OA
ATOM     14  H   UNL     1       4.435   3.388  17.135  0.00  0.00    +0.000 HD
ENDBRANCH  11  13
ENDBRANCH  10  11
BRANCH   2  15
ATOM     15  C   UNL     1       2.463   6.806  19.300  0.00  0.00    +0.000 C 
BRANCH  15  16
ATOM     16  S   UNL     1       2.172   8.347  18.376  0.00  0.00    +0.000 S 
BRANCH  16  17
ATOM     17  C   UNL     1       1.159   9.245  19.484  0.00  0.00    +0.000 A 
ATOM     18  N   UNL     1       0.941   8.852  20.718  0.00  0.00    +0.000 NA
ATOM     19  C   UNL     1       0.118   9.774  21.352  0.00  0.00    +0.000 A 
ATOM     20  C   UNL     1      -0.334   9.714  22.689  0.00  0.00    +0.000 A 
ATOM     21  C   UNL     1      -1.158  10.729  23.192  0.00  0.00    +0.000 A 
ATOM     22  C   UNL     1      -1.541  11.795  22.385  0.00  0.00    +0.000 A 
ATOM     23  C   UNL     1      -1.114  11.876  21.058  0.00  0.00    +0.000 A 
ATOM     24  C   UNL     1      -0.283  10.856  20.566  0.00  0.00    +0.000 A 
ATOM     25  S   UNL     1       0.398  10.692  18.997  0.00  0.00    +0.000 S 
ENDBRANCH  16  17
ENDBRANCH  15  16
ENDBRANCH   2  15
TORSDOF 5
ENDMDL
MODEL 6
REMARK VINA RESULT:      -7.4      1.255      1.381
REMARK  Name = 
REMARK  6 active torsions:
REMARK  status: ('A' for Active; 'I' for Inactive)
REMARK    1  A    between atoms: C_1  and  C_2
REMARK    2  A    between atoms: C_2  and  C_3
REMARK    3  A    between atoms: C_3  and  S_4
REMARK    4  A    between atoms: S_4  and  C_5
REMARK    5  A    between atoms: C_21  and  C_22
REMARK    6  A    between atoms: C_22  and  O_24
REMARK                            x       y       z     vdW  Elec       q    Type
REMARK                         _______ _______ _______ _____ _____    ______ ____
ROOT
ATOM      1  C   UNL     1       4.013   4.658  16.679  0.00  0.00    +0.000 C 
ATOM      2  C   UNL     1       3.187   4.569  17.973  0.00  0.00    +0.000 C 
ATOM      3  S   UNL     1       2.179   2.999  17.890  0.00  0.00    +0.000 S 
ATOM      4  C   UNL     1       2.224   2.697  19.692  0.00  0.00    +0.000 C 
ATOM      5  C   UNL     1       1.090   3.341  20.516  0.00  0.00    +0.000 C 
ATOM      6  F   UNL     1       0.638   2.648  21.586  0.00  0.00    +0.000 F 
ATOM      7  C   UNL     1       2.173   4.362  20.939  0.00  0.00    +0.000 C 
ATOM      8  O   UNL     1       2.212   5.448  21.469  0.00  0.00    +0.000 OA
ATOM      9  N   UNL     1       3.157   3.692  20.252  0.00  0.00    +0.000 N 
ATOM     10  C   UNL     1       4.001   4.432  19.291  0.00  0.00    +0.000 C 
ENDROOT
BRANCH  10  11
ATOM     11  C   UNL     1       5.350   3.699  19.171  0.00  0.00    +0.000 C 
ATOM     12  O   UNL     1       6.398   4.219  18.818  0.00  0.00    +0.000 OA
BRANCH  11  13
ATOM     13  O   UNL     1       5.307   2.403  19.572  0.00  0.00    +0.000 OA
ATOM     14  H   UNL     1       5.767   2.294  20.431  0.00  0.00    +0.000 HD
ENDBRANCH  11  13
ENDBRANCH  10  11
BRANCH   2  15
ATOM     15  C   UNL     1       2.165   5.745  17.993  0.00  0.00    +0.000 C 
BRANCH  15  16
ATOM     16  S   UNL     1       2.955   7.379  17.861  0.00  0.00    +0.000 S 
BRANCH  16  17
ATOM     17  C   UNL     1       1.992   8.334  18.966  0.00  0.00    +0.000 A 
ATOM     18  N   UNL     1       1.814   7.994  20.221  0.00  0.00    +0.000 NA
ATOM     19  C   UNL     1       1.024   8.951  20.846  0.00  0.00    +0.000 A 
ATOM     20  C   UNL     1       0.619   8.950  22.199  0.00  0.00    +0.000 A 
ATOM     21  C   UNL     1      -0.176   9.995  22.689  0.00  0.00    +0.000 A 
ATOM     22  C   UNL     1      -0.575  11.033  21.853  0.00  0.00    +0.000 A 
ATOM     23  C   UNL     1      -0.193  11.054  20.510  0.00  0.00    +0.000 A 
ATOM     24  C   UNL     1       0.608  10.005  20.031  0.00  0.00    +0.000 A 
ATOM     25  S   UNL     1       1.231   9.770  18.447  0.00  0.00    +0.000 S 
ENDBRANCH  16  17
ENDBRANCH  15  16
ENDBRANCH   2  15
TORSDOF 5
ENDMDL
MODEL 7
REMARK VINA RESULT:      -7.3      2.973      3.850
REMARK  Name = 
REMARK  6 active torsions:
REMARK  status: ('A' for Active; 'I' for Inactive)
REMARK    1  A    between atoms: C_1  and  C_2
REMARK    2  A    between atoms: C_2  and  C_3
REMARK    3  A    between atoms: C_3  and  S_4
REMARK    4  A    between atoms: S_4  and  C_5
REMARK    5  A    between atoms: C_21  and  C_22
REMARK    6  A    between atoms: C_22  and  O_24
REMARK                            x       y       z     vdW  Elec       q    Type
REMARK                         _______ _______ _______ _____ _____    ______ ____
ROOT
ATOM      1  C   UNL     1       3.201   4.127  16.803  0.00  0.00    +0.000 C 
ATOM      2  C   UNL     1       4.375   5.024  17.231  0.00  0.00    +0.000 C 
ATOM      3  S   UNL     1       5.282   4.147  18.607  0.00  0.00    +0.000 S 
ATOM      4  C   UNL     1       6.924   4.806  18.148  0.00  0.00    +0.000 C 
ATOM      5  C   UNL     1       7.319   6.150  18.792  0.00  0.00    +0.000 C 
ATOM      6  F   UNL     1       8.624   6.325  19.100  0.00  0.00    +0.000 F 
ATOM      7  C   UNL     1       6.998   6.746  17.400  0.00  0.00    +0.000 C 
ATOM      8  O   UNL     1       6.807   7.841  16.925  0.00  0.00    +0.000 OA
ATOM      9  N   UNL     1       6.741   5.507  16.864  0.00  0.00    +0.000 N 
ATOM     10  C   UNL     1       5.467   5.276  16.152  0.00  0.00    +0.000 C 
ENDROOT
BRANCH  10  11
ATOM     11  C   UNL     1       5.681   4.136  15.139  0.00  0.00    +0.000 C 
ATOM     12  O   UNL     1       5.410   4.199  13.949  0.00  0.00    +0.000 OA
BRANCH  11  13
ATOM     13  O   UNL     1       6.286   3.041  15.666  0.00  0.00    +0.000 OA
ATOM     14  H   UNL     1       7.202   3.254  15.943  0.00  0.00    +0.000 HD
ENDBRANCH  11  13
ENDBRANCH  10  11
BRANCH   2  15
ATOM     15  C   UNL     1       3.801   6.333  17.850  0.00  0.00    +0.000 C 
BRANCH  15  16
ATOM     16  S   UNL     1       3.012   6.071  19.470  0.00  0.00    +0.000 S 
BRANCH  16  17
ATOM     17  C   UNL     1       2.082   7.540  19.658  0.00  0.00    +0.000 A 
ATOM     18  N   UNL     1       1.466   7.848  20.775  0.00  0.00    +0.000 NA
ATOM     19  C   UNL     1       0.832   9.074  20.624  0.00  0.00    +0.000 A 
ATOM     20  C   UNL     1       0.075   9.753  21.605  0.00  0.00    +0.000 A 
ATOM     21  C   UNL     1      -0.501  10.995  21.305  0.00  0.00    +0.000 A 
ATOM     22  C   UNL     1      -0.339  11.565  20.047  0.00  0.00    +0.000 A 
ATOM     23  C   UNL     1       0.399  10.912  19.058  0.00  0.00    +0.000 A 
ATOM     24  C   UNL     1       0.977   9.671  19.371  0.00  0.00    +0.000 A 
ATOM     25  S   UNL     1       1.933   8.652  18.372  0.00  0.00    +0.000 S 
ENDBRANCH  16  17
ENDBRANCH  15  16
ENDBRANCH   2  15
TORSDOF 5
ENDMDL
MODEL 8
REMARK VINA RESULT:      -7.1      1.458      1.924
REMARK  Name = 
REMARK  6 active torsions:
REMARK  status: ('A' for Active; 'I' for Inactive)
REMARK    1  A    between atoms: C_1  and  C_2
REMARK    2  A    between atoms: C_2  and  C_3
REMARK    3  A    between atoms: C_3  and  S_4
REMARK    4  A    between atoms: S_4  and  C_5
REMARK    5  A    between atoms: C_21  and  C_22
REMARK    6  A    between atoms: C_22  and  O_24
REMARK                            x       y       z     vdW  Elec       q    Type
REMARK                         _______ _______ _______ _____ _____    ______ ____
ROOT
ATOM      1  C   UNL     1       5.715   7.302  17.625  0.00  0.00    +0.000 C 
ATOM      2  C   UNL     1       4.981   6.004  18.002  0.00  0.00    +0.000 C 
ATOM      3  S   UNL     1       4.619   5.082  16.419  0.00  0.00    +0.000 S 
ATOM      4  C   UNL     1       4.774   3.424  17.173  0.00  0.00    +0.000 C 
ATOM      5  C   UNL     1       3.484   2.829  17.774  0.00  0.00    +0.000 C 
ATOM      6  F   UNL     1       3.318   1.491  17.673  0.00  0.00    +0.000 F 
ATOM      7  C   UNL     1       4.118   3.204  19.135  0.00  0.00    +0.000 C 
ATOM      8  O   UNL     1       3.757   3.314  20.283  0.00  0.00    +0.000 OA
ATOM      9  N   UNL     1       5.278   3.641  18.541  0.00  0.00    +0.000 N 
ATOM     10  C   UNL     1       5.791   4.990  18.859  0.00  0.00    +0.000 C 
ENDROOT
BRANCH  10  11
ATOM     11  C   UNL     1       7.314   4.991  18.635  0.00  0.00    +0.000 C 
ATOM     12  O   UNL     1       7.869   4.628  17.608  0.00  0.00    +0.000 OA
BRANCH  11  13
ATOM     13  O   UNL     1       8.020   5.516  19.669  0.00  0.00    +0.000 OA
ATOM     14  H   UNL     1       7.677   6.403  19.904  0.00  0.00    +0.000 HD
ENDBRANCH  11  13
ENDBRANCH  10  11
BRANCH   2  15
ATOM     15  C   UNL     1       3.600   6.375  18.618  0.00  0.00    +0.000 C 
BRANCH  15  16
ATOM     16  S   UNL     1       2.807   7.792  17.795  0.00  0.00    +0.000 S 
BRANCH  16  17
ATOM     17  C   UNL     1       1.890   8.501  19.105  0.00  0.00    +0.000 A 
ATOM     18  N   UNL     1       1.336   9.688  19.018  0.00  0.00    +0.000 NA
ATOM     19  C   UNL     1       0.666   9.967  20.202  0.00  0.00    +0.000 A 
ATOM     20  C   UNL     1      -0.066  11.140  20.494  0.00  0.00    +0.000 A 
ATOM     21  C   UNL     1      -0.698  11.274  21.737  0.00  0.00    +0.000 A 
ATOM     22  C   UNL     1      -0.608  10.265  22.690  0.00  0.00    +0.000 A 
ATOM     23  C   UNL     1       0.114   9.099  22.429  0.00  0.00    +0.000 A 
ATOM     24  C   UNL     1       0.739   8.972  21.178  0.00  0.00    +0.000 A 
ATOM     25  S   UNL     1       1.677   7.664  20.576  0.00  0.00    +0.000 S 
ENDBRANCH  16  17
ENDBRANCH  15  16
ENDBRANCH   2  15
TORSDOF 5
ENDMDL
MODEL 9
REMARK VINA RESULT:      -7.1      2.435      3.383
REMARK  Name = 
REMARK  6 active torsions:
REMARK  status: ('A' for Active; 'I' for Inactive)
REMARK    1  A    between atoms: C_1  and  C_2
REMARK    2  A    between atoms: C_2  and  C_3
REMARK    3  A    between atoms: C_3  and  S_4
REMARK    4  A    between atoms: S_4  and  C_5
REMARK    5  A    between atoms: C_21  and  C_22
REMARK    6  A    between atoms: C_22  and  O_24
REMARK                            x       y       z     vdW  Elec       q    Type
REMARK                         _______ _______ _______ _____ _____    ______ ____
ROOT
ATOM      1  C   UNL     1       2.121   5.153  19.967  0.00  0.00    +0.000 C 
ATOM      2  C   UNL     1       3.278   5.480  19.008  0.00  0.00    +0.000 C 
ATOM      3  S   UNL     1       4.809   4.634  19.663  0.00  0.00    +0.000 S 
ATOM      4  C   UNL     1       5.531   4.333  18.011  0.00  0.00    +0.000 C 
ATOM      5  C   UNL     1       6.432   5.453  17.450  0.00  0.00    +0.000 C 
ATOM      6  F   UNL     1       7.492   5.073  16.702  0.00  0.00    +0.000 F 
ATOM      7  C   UNL     1       5.215   5.783  16.553  0.00  0.00    +0.000 C 
ATOM      8  O   UNL     1       4.853   6.696  15.848  0.00  0.00    +0.000 OA
ATOM      9  N   UNL     1       4.496   4.716  17.033  0.00  0.00    +0.000 N 
ATOM     10  C   UNL     1       3.132   4.938  17.557  0.00  0.00    +0.000 C 
ENDROOT
BRANCH  10  11
ATOM     11  C   UNL     1       2.340   3.625  17.410  0.00  0.00    +0.000 C 
ATOM     12  O   UNL     1       2.833   2.507  17.428  0.00  0.00    +0.000 OA
BRANCH  11  13
ATOM     13  O   UNL     1       0.996   3.802  17.333  0.00  0.00    +0.000 OA
ATOM     14  H   UNL     1       0.569   3.018  16.929  0.00  0.00    +0.000 HD
ENDBRANCH  11  13
ENDBRANCH  10  11
BRANCH   2  15
ATOM     15  C   UNL     1       3.561   7.010  19.073  0.00  0.00    +0.000 C 
BRANCH  15  16
ATOM     16  S   UNL     1       2.427   7.991  18.041  0.00  0.00    +0.000 S 
BRANCH  16  17
ATOM     17  C   UNL     1       1.485   8.838  19.248  0.00  0.00    +0.000 A 
ATOM     18  N   UNL     1       1.384   8.417  20.487  0.00  0.00    +0.000 NA
ATOM     19  C   UNL     1       0.590   9.302  21.205  0.00  0.00    +0.000 A 
ATOM     20  C   UNL     1       0.254   9.205  22.574  0.00  0.00    +0.000 A 
ATOM     21  C   UNL     1      -0.555  10.185  23.164  0.00  0.00    +0.000 A 
ATOM     22  C   UNL     1      -1.037  11.252  22.413  0.00  0.00    +0.000 A 
ATOM     23  C   UNL     1      -0.725  11.368  21.057  0.00  0.00    +0.000 A 
ATOM     24  C   UNL     1       0.092  10.384  20.477  0.00  0.00    +0.000 A 
ATOM     25  S   UNL     1       0.643  10.268  18.854  0.00  0.00    +0.000 S 
ENDBRANCH  16  17
ENDBRANCH  15  16
ENDBRANCH   2  15
TORSDOF 5
ENDMDL
