MODEL 1
REMARK VINA RESULT:      -7.8      0.000      0.000
REMARK  Name = 
REMARK  5 active torsions:
REMARK  status: ('A' for Active; 'I' for Inactive)
REMARK    1  A    between atoms: C_1  and  C_2
REMARK    2  A    between atoms: C_10  and  N_11
REMARK    3  A    between atoms: N_11  and  C_12
REMARK    4  A    between atoms: C_12  and  N_14
REMARK    5  A    between atoms: C_15  and  C_17
REMARK                            x       y       z     vdW  Elec       q    Type
REMARK                         _______ _______ _______ _____ _____    ______ ____
ROOT
ATOM      1  N   UNL     1       5.792   6.188  18.462  0.00  0.00    +0.000 N 
ATOM      2  H   UNL     1       6.233   6.204  19.381  0.00  0.00    +0.000 HD
ENDROOT
BRANCH   1  12
ATOM      3  C   UNL     1       3.415   7.722  17.554  0.00  0.00    +0.000 C 
ATOM      4  C   UNL     1       3.351   6.276  17.998  0.00  0.00    +0.000 A 
ATOM      5  C   UNL     1       2.055   5.672  17.935  0.00  0.00    +0.000 A 
ATOM      6  C   UNL     1       1.783   4.348  18.282  0.00  0.00    +0.000 A 
ATOM      7  C   UNL     1       2.886   3.598  18.747  0.00  0.00    +0.000 A 
ATOM      8  N   UNL     1       2.823   2.328  19.163  0.00  0.00    +0.000 NA
ATOM      9  S   UNL     1       4.349   1.929  19.672  0.00  0.00    +0.000 S 
ATOM     10  N   UNL     1       5.133   3.361  19.428  0.00  0.00    +0.000 NA
ATOM     11  C   UNL     1       4.269   4.204  18.832  0.00  0.00    +0.000 A 
ATOM     12  C   UNL     1       4.520   5.548  18.396  0.00  0.00    +0.000 A 
ENDBRANCH   1  12
BRANCH   1  13
ATOM     13  C   UNL     1       6.546   6.777  17.462  0.00  0.00    +0.000 C 
ATOM     14  S   UNL     1       7.625   8.049  17.618  0.00  0.00    +0.000 S 
BRANCH  13  15
ATOM     15  N   UNL     1       6.445   6.179  16.208  0.00  0.00    +0.000 N 
ATOM     16  C   UNL     1       7.051   5.005  15.798  0.00  0.00    +0.000 C 
ATOM     17  O   UNL     1       7.864   4.425  16.517  0.00  0.00    +0.000 OA
ATOM     18  H   UNL     1       5.908   6.697  15.524  0.00  0.00    +0.000 HD
BRANCH  16  19
ATOM     19  C   UNL     1       6.744   4.520  14.462  0.00  0.00    +0.000 A 
ATOM     20  C   UNL     1       5.683   3.721  14.073  0.00  0.00    +0.000 A 
ATOM     21  C   UNL     1       5.790   3.551  12.680  0.00  0.00    +0.000 A 
ATOM     22  C   UNL     1       6.910   4.252  12.293  0.00  0.00    +0.000 A 
ATOM     23  O   UNL     1       7.507   4.837  13.375  0.00  0.00    +0.000 OA
ENDBRANCH  16  19
ENDBRANCH  13  15
ENDBRANCH   1  13
TORSDOF 4
ENDMDL
MODEL 2
REMARK VINA RESULT:      -7.6      2.391      3.130
REMARK  Name = 
REMARK  5 active torsions:
REMARK  status: ('A' for Active; 'I' for Inactive)
REMARK    1  A    between atoms: C_1  and  C_2
REMARK    2  A    between atoms: C_10  and  N_11
REMARK    3  A    between atoms: N_11  and  C_12
REMARK    4  A    between atoms: C_12  and  N_14
REMARK    5  A    between atoms: C_15  and  C_17
REMARK                            x       y       z     vdW  Elec       q    Type
REMARK                         _______ _______ _______ _____ _____    ______ ____
ROOT
ATOM      1  N   UNL     1       5.537   3.665  18.544  0.00  0.00    +0.000 N 
ATOM      2  H   UNL     1       5.641   2.755  18.096  0.00  0.00    +0.000 HD
ENDROOT
BRANCH   1  12
ATOM      3  C   UNL     1       4.784   1.379  20.287  0.00  0.00    +0.000 C 
ATOM      4  C   UNL     1       4.029   2.691  20.266  0.00  0.00    +0.000 A 
ATOM      5  C   UNL     1       2.922   2.777  21.167  0.00  0.00    +0.000 A 
ATOM      6  C   UNL     1       2.109   3.901  21.315  0.00  0.00    +0.000 A 
ATOM      7  C   UNL     1       2.420   4.996  20.479  0.00  0.00    +0.000 A 
ATOM      8  N   UNL     1       1.737   6.146  20.443  0.00  0.00    +0.000 NA
ATOM      9  S   UNL     1       2.444   7.070  19.263  0.00  0.00    +0.000 S 
ATOM     10  N   UNL     1       3.609   6.032  18.723  0.00  0.00    +0.000 NA
ATOM     11  C   UNL     1       3.580   4.941  19.510  0.00  0.00    +0.000 A 
ATOM     12  C   UNL     1       4.437   3.792  19.443  0.00  0.00    +0.000 A 
ENDBRANCH   1  12
BRANCH   1  13
ATOM     13  C   UNL     1       6.485   4.596  18.159  0.00  0.00    +0.000 C 
ATOM     14  S   UNL     1       7.304   5.680  19.140  0.00  0.00    +0.000 S 
BRANCH  13  15
ATOM     15  N   UNL     1       6.846   4.559  16.815  0.00  0.00    +0.000 N 
ATOM     16  C   UNL     1       5.995   4.442  15.730  0.00  0.00    +0.000 C 
ATOM     17  O   UNL     1       4.792   4.236  15.886  0.00  0.00    +0.000 OA
ATOM     18  H   UNL     1       7.843   4.571  16.633  0.00  0.00    +0.000 HD
BRANCH  16  19
ATOM     19  C   UNL     1       6.584   4.503  14.402  0.00  0.00    +0.000 A 
ATOM     20  C   UNL     1       6.215   3.784  13.278  0.00  0.00    +0.000 A 
ATOM     21  C   UNL     1       7.049   4.211  12.229  0.00  0.00    +0.000 A 
ATOM     22  C   UNL     1       7.885   5.164  12.767  0.00  0.00    +0.000 A 
ATOM     23  O   UNL     1       7.617   5.340  14.096  0.00  0.00    +0.000 OA
ENDBRANCH  16  19
ENDBRANCH  13  15
ENDBRANCH   1  13
TORSDOF 4
ENDMDL
MODEL 3
REMARK VINA RESULT:      -7.5      1.682      1.756
REMARK  Name = 
REMARK  5 active torsions:
REMARK  status: ('A' for Active; 'I' for Inactive)
REMARK    1  A    between atoms: C_1  and  C_2
REMARK    2  A    between atoms: C_10  and  N_11
REMARK    3  A    between atoms: N_11  and  C_12
REMARK    4  A    between atoms: C_12  and  N_14
REMARK    5  A    between atoms: C_15  and  C_17
REMARK                            x       y       z     vdW  Elec       q    Type
REMARK                         _______ _______ _______ _____ _____    ______ ____
ROOT
ATOM      1  N   UNL     1       4.386   5.968  18.231  0.00  0.00    +0.000 N 
ATOM      2  H   UNL     1       4.155   6.909  17.916  0.00  0.00    +0.000 HD
ENDROOT
BRANCH   1  12
ATOM      3  C   UNL     1       2.361   7.396  19.871  0.00  0.00    +0.000 C 
ATOM      4  C   UNL     1       2.355   5.896  19.663  0.00  0.00    +0.000 A 
ATOM      5  C   UNL     1       1.283   5.193  20.298  0.00  0.00    +0.000 A 
ATOM      6  C   UNL     1       1.085   3.814  20.218  0.00  0.00    +0.000 A 
ATOM      7  C   UNL     1       2.048   3.100  19.471  0.00  0.00    +0.000 A 
ATOM      8  N   UNL     1       2.056   1.772  19.309  0.00  0.00    +0.000 NA
ATOM      9  S   UNL     1       3.412   1.418  18.425  0.00  0.00    +0.000 S 
ATOM     10  N   UNL     1       4.063   2.926  18.254  0.00  0.00    +0.000 NA
ATOM     11  C   UNL     1       3.198   3.808  18.789  0.00  0.00    +0.000 A 
ATOM     12  C   UNL     1       3.322   5.237  18.835  0.00  0.00    +0.000 A 
ENDBRANCH   1  12
BRANCH   1  13
ATOM     13  C   UNL     1       5.707   5.610  18.021  0.00  0.00    +0.000 C 
ATOM     14  S   UNL     1       6.962   5.656  19.128  0.00  0.00    +0.000 S 
BRANCH  13  15
ATOM     15  N   UNL     1       5.987   5.077  16.765  0.00  0.00    +0.000 N 
ATOM     16  C   UNL     1       5.756   5.675  15.539  0.00  0.00    +0.000 C 
ATOM     17  O   UNL     1       5.143   6.739  15.457  0.00  0.00    +0.000 OA
ATOM     18  H   UNL     1       6.354   4.133  16.767  0.00  0.00    +0.000 HD
BRANCH  16  19
ATOM     19  C   UNL     1       6.200   4.967  14.349  0.00  0.00    +0.000 A 
ATOM     20  C   UNL     1       5.584   3.901  13.718  0.00  0.00    +0.000 A 
ATOM     21  C   UNL     1       6.367   3.584  12.593  0.00  0.00    +0.000 A 
ATOM     22  C   UNL     1       7.421   4.470  12.598  0.00  0.00    +0.000 A 
ATOM     23  O   UNL     1       7.335   5.310  13.674  0.00  0.00    +0.000 OA
ENDBRANCH  16  19
ENDBRANCH  13  15
ENDBRANCH   1  13
TORSDOF 4
ENDMDL
MODEL 4
REMARK VINA RESULT:      -7.4      1.219      1.219
REMARK  Name = 
REMARK  5 active torsions:
REMARK  status: ('A' for Active; 'I' for Inactive)
REMARK    1  A    between atoms: C_1  and  C_2
REMARK    2  A    between atoms: C_10  and  N_11
REMARK    3  A    between atoms: N_11  and  C_12
REMARK    4  A    between atoms: C_12  and  N_14
REMARK    5  A    between atoms: C_15  and  C_17
REMARK                            x       y       z     vdW  Elec       q    Type
REMARK                         _______ _______ _______ _____ _____    ______ ____
ROOT
ATOM      1  N   UNL     1       5.291   5.737  19.001  0.00  0.00    +0.000 N 
ATOM      2  H   UNL     1       5.247   6.355  19.811  0.00  0.00    +0.000 HD
ENDROOT
BRANCH   1  12
ATOM      3  C   UNL     1       3.009   7.383  18.046  0.00  0.00    +0.000 C 
ATOM      4  C   UNL     1       2.938   5.880  18.209  0.00  0.00    +0.000 A 
ATOM      5  C   UNL     1       1.689   5.281  17.850  0.00  0.00    +0.000 A 
ATOM      6  C   UNL     1       1.422   3.913  17.909  0.00  0.00    +0.000 A 
ATOM      7  C   UNL     1       2.476   3.104  18.389  0.00  0.00    +0.000 A 
ATOM      8  N   UNL     1       2.404   1.779  18.556  0.00  0.00    +0.000 NA
ATOM      9  S   UNL     1       3.857   1.311  19.202  0.00  0.00    +0.000 S 
ATOM     10  N   UNL     1       4.612   2.774  19.337  0.00  0.00    +0.000 NA
ATOM     11  C   UNL     1       3.809   3.701  18.783  0.00  0.00    +0.000 A 
ATOM     12  C   UNL     1       4.067   5.105  18.636  0.00  0.00    +0.000 A 
ENDBRANCH   1  12
BRANCH   1  13
ATOM     13  C   UNL     1       6.552   5.628  18.441  0.00  0.00    +0.000 C 
ATOM     14  S   UNL     1       8.022   5.961  19.172  0.00  0.00    +0.000 S 
BRANCH  13  15
ATOM     15  N   UNL     1       6.588   5.104  17.151  0.00  0.00    +0.000 N 
ATOM     16  C   UNL     1       6.255   5.760  15.979  0.00  0.00    +0.000 C 
ATOM     17  O   UNL     1       5.762   6.888  16.001  0.00  0.00    +0.000 OA
ATOM     18  H   UNL     1       6.842   4.126  17.088  0.00  0.00    +0.000 HD
BRANCH  16  19
ATOM     19  C   UNL     1       6.441   5.043  14.729  0.00  0.00    +0.000 A 
ATOM     20  C   UNL     1       5.679   4.002  14.227  0.00  0.00    +0.000 A 
ATOM     21  C   UNL     1       6.225   3.663  12.975  0.00  0.00    +0.000 A 
ATOM     22  C   UNL     1       7.292   4.511  12.781  0.00  0.00    +0.000 A 
ATOM     23  O   UNL     1       7.441   5.348  13.851  0.00  0.00    +0.000 OA
ENDBRANCH  16  19
ENDBRANCH  13  15
ENDBRANCH   1  13
TORSDOF 4
ENDMDL
MODEL 5
REMARK VINA RESULT:      -7.3      1.519      1.558
REMARK  Name = 
REMARK  5 active torsions:
REMARK  status: ('A' for Active; 'I' for Inactive)
REMARK    1  A    between atoms: C_1  and  C_2
REMARK    2  A    between atoms: C_10  and  N_11
REMARK    3  A    between atoms: N_11  and  C_12
REMARK    4  A    between atoms: C_12  and  N_14
REMARK    5  A    between atoms: C_15  and  C_17
REMARK                            x       y       z     vdW  Elec       q    Type
REMARK                         _______ _______ _______ _____ _____    ______ ____
ROOT
ATOM      1  N   UNL     1       4.635   6.025  17.812  0.00  0.00    +0.000 N 
ATOM      2  H   UNL     1       4.225   6.618  17.091  0.00  0.00    +0.000 HD
ENDROOT
BRANCH   1  12
ATOM      3  C   UNL     1       2.444   7.765  18.810  0.00  0.00    +0.000 C 
ATOM      4  C   UNL     1       2.690   6.363  19.323  0.00  0.00    +0.000 A 
ATOM      5  C   UNL     1       1.775   5.906  20.324  0.00  0.00    +0.000 A 
ATOM      6  C   UNL     1       1.816   4.642  20.914  0.00  0.00    +0.000 A 
ATOM      7  C   UNL     1       2.865   3.799  20.485  0.00  0.00    +0.000 A 
ATOM      8  N   UNL     1       3.097   2.570  20.957  0.00  0.00    +0.000 NA
ATOM      9  S   UNL     1       4.467   2.029  20.197  0.00  0.00    +0.000 S 
ATOM     10  N   UNL     1       4.842   3.348  19.277  0.00  0.00    +0.000 NA
ATOM     11  C   UNL     1       3.854   4.249  19.432  0.00  0.00    +0.000 A 
ATOM     12  C   UNL     1       3.732   5.530  18.797  0.00  0.00    +0.000 A 
ENDBRANCH   1  12
BRANCH   1  13
ATOM     13  C   UNL     1       6.002   5.847  17.687  0.00  0.00    +0.000 C 
ATOM     14  S   UNL     1       7.144   5.843  18.912  0.00  0.00    +0.000 S 
BRANCH  13  15
ATOM     15  N   UNL     1       6.451   5.559  16.400  0.00  0.00    +0.000 N 
ATOM     16  C   UNL     1       5.932   4.615  15.532  0.00  0.00    +0.000 C 
ATOM     17  O   UNL     1       5.055   3.832  15.896  0.00  0.00    +0.000 OA
ATOM     18  H   UNL     1       7.273   6.071  16.103  0.00  0.00    +0.000 HD
BRANCH  16  19
ATOM     19  C   UNL     1       6.509   4.535  14.200  0.00  0.00    +0.000 A 
ATOM     20  C   UNL     1       6.174   3.659  13.182  0.00  0.00    +0.000 A 
ATOM     21  C   UNL     1       6.977   3.992  12.076  0.00  0.00    +0.000 A 
ATOM     22  C   UNL     1       7.762   5.050  12.477  0.00  0.00    +0.000 A 
ATOM     23  O   UNL     1       7.492   5.381  13.776  0.00  0.00    +0.000 OA
ENDBRANCH  16  19
ENDBRANCH  13  15
ENDBRANCH   1  13
TORSDOF 4
ENDMDL
MODEL 6
REMARK VINA RESULT:      -7.2      2.011      2.854
REMARK  Name = 
REMARK  5 active torsions:
REMARK  status: ('A' for Active; 'I' for Inactive)
REMARK    1  A    between atoms: C_1  and  C_2
REMARK    2  A    between atoms: C_10  and  N_11
REMARK    3  A    between atoms: N_11  and  C_12
REMARK    4  A    between atoms: C_12  and  N_14
REMARK    5  A    between atoms: C_15  and  C_17
REMARK                            x       y       z     vdW  Elec       q    Type
REMARK                         _______ _______ _______ _____ _____    ______ ____
ROOT
ATOM      1  N   UNL     1       5.646   3.815  18.688  0.00  0.00    +0.000 N 
ATOM      2  H   UNL     1       5.951   3.153  19.401  0.00  0.00    +0.000 HD
ENDROOT
BRANCH   1  12
ATOM      3  C   UNL     1       4.022   1.344  18.392  0.00  0.00    +0.000 C 
ATOM      4  C   UNL     1       3.437   2.738  18.309  0.00  0.00    +0.000 A 
ATOM      5  C   UNL     1       2.024   2.799  18.096  0.00  0.00    +0.000 A 
ATOM      6  C   UNL     1       1.287   3.981  18.007  0.00  0.00    +0.000 A 
ATOM      7  C   UNL     1       2.033   5.175  18.113  0.00  0.00    +0.000 A 
ATOM      8  N   UNL     1       1.519   6.406  18.015  0.00  0.00    +0.000 NA
ATOM      9  S   UNL     1       2.796   7.456  18.133  0.00  0.00    +0.000 S 
ATOM     10  N   UNL     1       4.051   6.391  18.266  0.00  0.00    +0.000 NA
ATOM     11  C   UNL     1       3.529   5.152  18.334  0.00  0.00    +0.000 A 
ATOM     12  C   UNL     1       4.237   3.914  18.494  0.00  0.00    +0.000 A 
ENDBRANCH   1  12
BRANCH   1  13
ATOM     13  C   UNL     1       6.682   4.466  18.041  0.00  0.00    +0.000 C 
ATOM     14  S   UNL     1       7.897   5.386  18.735  0.00  0.00    +0.000 S 
BRANCH  13  15
ATOM     15  N   UNL     1       6.753   4.253  16.666  0.00  0.00    +0.000 N 
ATOM     16  C   UNL     1       6.571   5.197  15.670  0.00  0.00    +0.000 C 
ATOM     17  O   UNL     1       6.197   6.338  15.938  0.00  0.00    +0.000 OA
ATOM     18  H   UNL     1       6.908   3.293  16.384  0.00  0.00    +0.000 HD
BRANCH  16  19
ATOM     19  C   UNL     1       6.768   4.770  14.295  0.00  0.00    +0.000 A 
ATOM     20  C   UNL     1       6.135   3.735  13.629  0.00  0.00    +0.000 A 
ATOM     21  C   UNL     1       6.630   3.733  12.312  0.00  0.00    +0.000 A 
ATOM     22  C   UNL     1       7.540   4.764  12.243  0.00  0.00    +0.000 A 
ATOM     23  O   UNL     1       7.641   5.395  13.452  0.00  0.00    +0.000 OA
ENDBRANCH  16  19
ENDBRANCH  13  15
ENDBRANCH   1  13
TORSDOF 4
ENDMDL
MODEL 7
REMARK VINA RESULT:      -7.1      2.230      3.156
REMARK  Name = 
REMARK  5 active torsions:
REMARK  status: ('A' for Active; 'I' for Inactive)
REMARK    1  A    between atoms: C_1  and  C_2
REMARK    2  A    between atoms: C_10  and  N_11
REMARK    3  A    between atoms: N_11  and  C_12
REMARK    4  A    between atoms: C_12  and  N_14
REMARK    5  A    between atoms: C_15  and  C_17
REMARK                            x       y       z     vdW  Elec       q    Type
REMARK                         _______ _______ _______ _____ _____    ______ ____
ROOT
ATOM      1  N   UNL     1       4.817   4.012  18.293  0.00  0.00    +0.000 N 
ATOM      2  H   UNL     1       4.614   3.047  18.036  0.00  0.00    +0.000 HD
ENDROOT
BRANCH   1  12
ATOM      3  C   UNL     1       3.550   2.566  20.559  0.00  0.00    +0.000 C 
ATOM      4  C   UNL     1       3.174   3.977  20.158  0.00  0.00    +0.000 A 
ATOM      5  C   UNL     1       2.165   4.595  20.963  0.00  0.00    +0.000 A 
ATOM      6  C   UNL     1       1.689   5.893  20.775  0.00  0.00    +0.000 A 
ATOM      7  C   UNL     1       2.248   6.598  19.686  0.00  0.00    +0.000 A 
ATOM      8  N   UNL     1       1.896   7.835  19.318  0.00  0.00    +0.000 NA
ATOM      9  S   UNL     1       2.777   8.184  17.958  0.00  0.00    +0.000 S 
ATOM     10  N   UNL     1       3.600   6.767  17.759  0.00  0.00    +0.000 NA
ATOM     11  C   UNL     1       3.312   5.976  18.810  0.00  0.00    +0.000 A 
ATOM     12  C   UNL     1       3.828   4.665  19.084  0.00  0.00    +0.000 A 
ENDBRANCH   1  12
BRANCH   1  13
ATOM     13  C   UNL     1       6.015   4.490  17.789  0.00  0.00    +0.000 C 
ATOM     14  S   UNL     1       7.249   5.239  18.639  0.00  0.00    +0.000 S 
BRANCH  13  15
ATOM     15  N   UNL     1       6.236   4.240  16.437  0.00  0.00    +0.000 N 
ATOM     16  C   UNL     1       6.235   5.167  15.410  0.00  0.00    +0.000 C 
ATOM     17  O   UNL     1       5.906   6.336  15.611  0.00  0.00    +0.000 OA
ATOM     18  H   UNL     1       6.362   3.265  16.192  0.00  0.00    +0.000 HD
BRANCH  16  19
ATOM     19  C   UNL     1       6.568   4.696  14.076  0.00  0.00    +0.000 A 
ATOM     20  C   UNL     1       5.997   3.643  13.382  0.00  0.00    +0.000 A 
ATOM     21  C   UNL     1       6.623   3.596  12.123  0.00  0.00    +0.000 A 
ATOM     22  C   UNL     1       7.545   4.619  12.116  0.00  0.00    +0.000 A 
ATOM     23  O   UNL     1       7.528   5.288  13.308  0.00  0.00    +0.000 OA
ENDBRANCH  16  19
ENDBRANCH  13  15
ENDBRANCH   1  13
TORSDOF 4
ENDMDL
MODEL 8
REMARK VINA RESULT:      -7.1      2.012      2.315
REMARK  Name = 
REMARK  5 active torsions:
REMARK  status: ('A' for Active; 'I' for Inactive)
REMARK    1  A    between atoms: C_1  and  C_2
REMARK    2  A    between atoms: C_10  and  N_11
REMARK    3  A    between atoms: N_11  and  C_12
REMARK    4  A    between atoms: C_12  and  N_14
REMARK    5  A    between atoms: C_15  and  C_17
REMARK                            x       y       z     vdW  Elec       q    Type
REMARK                         _______ _______ _______ _____ _____    ______ ____
ROOT
ATOM      1  N   UNL     1       3.760   6.135  18.928  0.00  0.00    +0.000 N 
ATOM      2  H   UNL     1       4.546   6.348  19.541  0.00  0.00    +0.000 HD
ENDROOT
BRANCH   1  12
ATOM      3  C   UNL     1       1.568   6.762  20.832  0.00  0.00    +0.000 C 
ATOM      4  C   UNL     1       1.850   5.366  20.321  0.00  0.00    +0.000 A 
ATOM      5  C   UNL     1       0.968   4.346  20.802  0.00  0.00    +0.000 A 
ATOM      6  C   UNL     1       1.044   3.001  20.440  0.00  0.00    +0.000 A 
ATOM      7  C   UNL     1       2.095   2.662  19.560  0.00  0.00    +0.000 A 
ATOM      8  N   UNL     1       2.359   1.424  19.128  0.00  0.00    +0.000 NA
ATOM      9  S   UNL     1       3.717   1.538  18.185  0.00  0.00    +0.000 S 
ATOM     10  N   UNL     1       4.048   3.150  18.326  0.00  0.00    +0.000 NA
ATOM     11  C   UNL     1       3.050   3.711  19.034  0.00  0.00    +0.000 A 
ATOM     12  C   UNL     1       2.891   5.097  19.372  0.00  0.00    +0.000 A 
ENDBRANCH   1  12
BRANCH   1  13
ATOM     13  C   UNL     1       3.723   6.894  17.771  0.00  0.00    +0.000 C 
ATOM     14  S   UNL     1       3.039   8.410  17.571  0.00  0.00    +0.000 S 
BRANCH  13  15
ATOM     15  N   UNL     1       4.407   6.358  16.683  0.00  0.00    +0.000 N 
ATOM     16  C   UNL     1       5.698   5.858  16.679  0.00  0.00    +0.000 C 
ATOM     17  O   UNL     1       6.422   5.962  17.668  0.00  0.00    +0.000 OA
ATOM     18  H   UNL     1       3.910   6.388  15.801  0.00  0.00    +0.000 HD
BRANCH  16  19
ATOM     19  C   UNL     1       6.189   5.272  15.442  0.00  0.00    +0.000 A 
ATOM     20  C   UNL     1       5.562   4.332  14.642  0.00  0.00    +0.000 A 
ATOM     21  C   UNL     1       6.407   4.103  13.542  0.00  0.00    +0.000 A 
ATOM     22  C   UNL     1       7.506   4.912  13.728  0.00  0.00    +0.000 A 
ATOM     23  O   UNL     1       7.388   5.619  14.892  0.00  0.00    +0.000 OA
ENDBRANCH  16  19
ENDBRANCH  13  15
ENDBRANCH   1  13
TORSDOF 4
ENDMDL
MODEL 9
REMARK VINA RESULT:      -7.0      1.766      1.855
REMARK  Name = 
REMARK  5 active torsions:
REMARK  status: ('A' for Active; 'I' for Inactive)
REMARK    1  A    between atoms: C_1  and  C_2
REMARK    2  A    between atoms: C_10  and  N_11
REMARK    3  A    between atoms: N_11  and  C_12
REMARK    4  A    between atoms: C_12  and  N_14
REMARK    5  A    between atoms: C_15  and  C_17
REMARK                            x       y       z     vdW  Elec       q    Type
REMARK                         _______ _______ _______ _____ _____    ______ ____
ROOT
ATOM      1  N   UNL     1       4.912   4.553  17.890  0.00  0.00    +0.000 N 
ATOM      2  H   UNL     1       4.709   3.768  17.273  0.00  0.00    +0.000 HD
ENDROOT
BRANCH   1  12
ATOM      3  C   UNL     1       3.810   7.307  17.717  0.00  0.00    +0.000 C 
ATOM      4  C   UNL     1       3.333   6.283  18.724  0.00  0.00    +0.000 A 
ATOM      5  C   UNL     1       2.284   6.720  19.594  0.00  0.00    +0.000 A 
ATOM      6  C   UNL     1       1.691   5.927  20.578  0.00  0.00    +0.000 A 
ATOM      7  C   UNL     1       2.213   4.621  20.708  0.00  0.00    +0.000 A 
ATOM      8  N   UNL     1       1.808   3.725  21.615  0.00  0.00    +0.000 NA
ATOM      9  S   UNL     1       2.765   2.388  21.409  0.00  0.00    +0.000 S 
ATOM     10  N   UNL     1       3.757   2.911  20.197  0.00  0.00    +0.000 NA
ATOM     11  C   UNL     1       3.325   4.125  19.810  0.00  0.00    +0.000 A 
ATOM     12  C   UNL     1       3.855   4.948  18.761  0.00  0.00    +0.000 A 
ENDBRANCH   1  12
BRANCH   1  13
ATOM     13  C   UNL     1       6.179   5.086  17.727  0.00  0.00    +0.000 C 
ATOM     14  S   UNL     1       7.234   5.586  18.928  0.00  0.00    +0.000 S 
BRANCH  13  15
ATOM     15  N   UNL     1       6.644   5.129  16.415  0.00  0.00    +0.000 N 
ATOM     16  C   UNL     1       6.353   4.233  15.402  0.00  0.00    +0.000 C 
ATOM     17  O   UNL     1       5.714   3.205  15.627  0.00  0.00    +0.000 OA
ATOM     18  H   UNL     1       7.300   5.874  16.212  0.00  0.00    +0.000 HD
BRANCH  16  19
ATOM     19  C   UNL     1       6.887   4.514  14.080  0.00  0.00    +0.000 A 
ATOM     20  C   UNL     1       6.587   3.874  12.890  0.00  0.00    +0.000 A 
ATOM     21  C   UNL     1       7.323   4.521  11.881  0.00  0.00    +0.000 A 
ATOM     22  C   UNL     1       8.036   5.519  12.506  0.00  0.00    +0.000 A 
ATOM     23  O   UNL     1       7.787   5.515  13.851  0.00  0.00    +0.000 OA
ENDBRANCH  16  19
ENDBRANCH  13  15
ENDBRANCH   1  13
TORSDOF 4
ENDMDL
