MODEL 1
REMARK VINA RESULT:      -7.2      0.000      0.000
REMARK  Name = 
REMARK  8 active torsions:
REMARK  status: ('A' for Active; 'I' for Inactive)
REMARK    1  A    between atoms: C_1  and  O_2
REMARK    2  A    between atoms: O_2  and  C_3
REMARK    3  A    between atoms: C_8  and  O_9
REMARK    4  A    between atoms: O_9  and  C_10
REMARK    5  A    between atoms: C_10  and  C_11
REMARK    6  A    between atoms: N_13  and  C_14
REMARK    7  A    between atoms: C_19  and  O_20
REMARK    8  A    between atoms: O_20  and  C_21
REMARK                            x       y       z     vdW  Elec       q    Type
REMARK                         _______ _______ _______ _____ _____    ______ ____
ROOT
ATOM      1  C   UNL     1       3.837   3.600  19.638  0.00  0.00    +0.000 C 
ATOM      2  O   UNL     1       3.497   2.784  20.501  0.00  0.00    +0.000 OA
ATOM      3  N   UNL     1       5.066   3.459  19.026  0.00  0.00    +0.000 N 
ATOM      4  H   UNL     1       5.281   2.474  18.949  0.00  0.00    +0.000 HD
ENDROOT
BRANCH   3   5
ATOM      5  C   UNL     1       5.385   4.227  17.901  0.00  0.00    +0.000 A 
ATOM      6  N   UNL     1       4.926   3.779  16.712  0.00  0.00    +0.000 NA
ATOM      7  C   UNL     1       4.998   4.642  15.678  0.00  0.00    +0.000 A 
ATOM      8  C   UNL     1       5.519   5.923  15.781  0.00  0.00    +0.000 A 
ATOM      9  C   UNL     1       6.046   6.336  17.004  0.00  0.00    +0.000 A 
ATOM     10  C   UNL     1       5.995   5.475  18.094  0.00  0.00    +0.000 A 
BRANCH  10  11
ATOM     11  O   UNL     1       6.545   5.705  19.323  0.00  0.00    +0.000 OA
BRANCH  11  12
ATOM     12  C   UNL     1       7.955   5.724  19.404  0.00  0.00    +0.000 C 
ATOM     13  F   UNL     1       8.419   4.766  18.562  0.00  0.00    +0.000 F 
ATOM     14  F   UNL     1       8.424   6.905  18.930  0.00  0.00    +0.000 F 
ENDBRANCH  11  12
ENDBRANCH  10  11
ENDBRANCH   3   5
BRANCH   1  15
ATOM     15  C   UNL     1       2.874   4.702  19.148  0.00  0.00    +0.000 C 
BRANCH  15  16
ATOM     16  O   UNL     1       2.704   5.776  20.058  0.00  0.00    +0.000 OA
BRANCH  16  22
ATOM     17  C   UNL     1       1.627   8.040  20.182  0.00  0.00    +0.000 A 
ATOM     18  C   UNL     1       1.355   9.226  19.475  0.00  0.00    +0.000 A 
ATOM     19  C   UNL     1       1.711   9.358  18.134  0.00  0.00    +0.000 A 
ATOM     20  C   UNL     1       2.389   8.326  17.500  0.00  0.00    +0.000 A 
ATOM     21  C   UNL     1       2.717   7.170  18.211  0.00  0.00    +0.000 A 
ATOM     22  C   UNL     1       2.339   7.004  19.554  0.00  0.00    +0.000 A 
BRANCH  17  24
ATOM     23  C   UNL     1       1.171   9.151  22.223  0.00  0.00    +0.000 C 
ATOM     24  O   UNL     1       1.255   7.928  21.493  0.00  0.00    +0.000 OA
ENDBRANCH  17  24
ENDBRANCH  16  22
ENDBRANCH  15  16
ENDBRANCH   1  15
TORSDOF 7
ENDMDL
MODEL 2
REMARK VINA RESULT:      -7.1      3.105      5.850
REMARK  Name = 
REMARK  8 active torsions:
REMARK  status: ('A' for Active; 'I' for Inactive)
REMARK    1  A    between atoms: C_1  and  O_2
REMARK    2  A    between atoms: O_2  and  C_3
REMARK    3  A    between atoms: C_8  and  O_9
REMARK    4  A    between atoms: O_9  and  C_10
REMARK    5  A    between atoms: C_10  and  C_11
REMARK    6  A    between atoms: N_13  and  C_14
REMARK    7  A    between atoms: C_19  and  O_20
REMARK    8  A    between atoms: O_20  and  C_21
REMARK                            x       y       z     vdW  Elec       q    Type
REMARK                         _______ _______ _______ _____ _____    ______ ____
ROOT
ATOM      1  C   UNL     1       2.583   2.886  17.627  0.00  0.00    +0.000 C 
ATOM      2  O   UNL     1       2.225   1.814  17.128  0.00  0.00    +0.000 OA
ATOM      3  N   UNL     1       1.632   3.839  17.929  0.00  0.00    +0.000 N 
ATOM      4  H   UNL     1       0.781   3.372  18.211  0.00  0.00    +0.000 HD
ENDROOT
BRANCH   3   5
ATOM      5  C   UNL     1       1.976   4.962  18.690  0.00  0.00    +0.000 A 
ATOM      6  N   UNL     1       2.514   6.004  18.021  0.00  0.00    +0.000 NA
ATOM      7  C   UNL     1       2.595   7.170  18.695  0.00  0.00    +0.000 A 
ATOM      8  C   UNL     1       2.175   7.332  20.006  0.00  0.00    +0.000 A 
ATOM      9  C   UNL     1       1.684   6.222  20.694  0.00  0.00    +0.000 A 
ATOM     10  C   UNL     1       1.587   5.000  20.037  0.00  0.00    +0.000 A 
BRANCH  10  11
ATOM     11  O   UNL     1       1.213   3.815  20.602  0.00  0.00    +0.000 OA
BRANCH  11  12
ATOM     12  C   UNL     1       1.979   3.349  21.692  0.00  0.00    +0.000 C 
ATOM     13  F   UNL     1       1.274   2.351  22.282  0.00  0.00    +0.000 F 
ATOM     14  F   UNL     1       3.125   2.784  21.236  0.00  0.00    +0.000 F 
ENDBRANCH  11  12
ENDBRANCH  10  11
ENDBRANCH   3   5
BRANCH   1  15
ATOM     15  C   UNL     1       4.053   3.137  18.027  0.00  0.00    +0.000 C 
BRANCH  15  16
ATOM     16  O   UNL     1       4.860   3.659  16.985  0.00  0.00    +0.000 OA
BRANCH  16  22
ATOM     17  C   UNL     1       6.446   5.526  16.434  0.00  0.00    +0.000 A 
ATOM     18  C   UNL     1       7.339   6.473  16.969  0.00  0.00    +0.000 A 
ATOM     19  C   UNL     1       7.619   6.503  18.334  0.00  0.00    +0.000 A 
ATOM     20  C   UNL     1       6.969   5.621  19.186  0.00  0.00    +0.000 A 
ATOM     21  C   UNL     1       6.037   4.718  18.673  0.00  0.00    +0.000 A 
ATOM     22  C   UNL     1       5.764   4.650  17.297  0.00  0.00    +0.000 A 
BRANCH  17  24
ATOM     23  C   UNL     1       7.309   5.177  14.257  0.00  0.00    +0.000 C 
ATOM     24  O   UNL     1       6.199   5.506  15.090  0.00  0.00    +0.000 OA
ENDBRANCH  17  24
ENDBRANCH  16  22
ENDBRANCH  15  16
ENDBRANCH   1  15
TORSDOF 7
ENDMDL
MODEL 3
REMARK VINA RESULT:      -7.1      2.589      4.089
REMARK  Name = 
REMARK  8 active torsions:
REMARK  status: ('A' for Active; 'I' for Inactive)
REMARK    1  A    between atoms: C_1  and  O_2
REMARK    2  A    between atoms: O_2  and  C_3
REMARK    3  A    between atoms: C_8  and  O_9
REMARK    4  A    between atoms: O_9  and  C_10
REMARK    5  A    between atoms: C_10  and  C_11
REMARK    6  A    between atoms: N_13  and  C_14
REMARK    7  A    between atoms: C_19  and  O_20
REMARK    8  A    between atoms: O_20  and  C_21
REMARK                            x       y       z     vdW  Elec       q    Type
REMARK                         _______ _______ _______ _____ _____    ______ ____
ROOT
ATOM      1  C   UNL     1       6.949   5.344  19.173  0.00  0.00    +0.000 C 
ATOM      2  O   UNL     1       7.534   5.456  20.254  0.00  0.00    +0.000 OA
ATOM      3  N   UNL     1       7.380   6.089  18.094  0.00  0.00    +0.000 N 
ATOM      4  H   UNL     1       8.384   6.198  18.154  0.00  0.00    +0.000 HD
ENDROOT
BRANCH   3   5
ATOM      5  C   UNL     1       6.886   5.825  16.811  0.00  0.00    +0.000 A 
ATOM      6  N   UNL     1       7.626   5.004  16.036  0.00  0.00    +0.000 NA
ATOM      7  C   UNL     1       7.030   4.538  14.918  0.00  0.00    +0.000 A 
ATOM      8  C   UNL     1       5.737   4.867  14.542  0.00  0.00    +0.000 A 
ATOM      9  C   UNL     1       5.020   5.769  15.328  0.00  0.00    +0.000 A 
ATOM     10  C   UNL     1       5.599   6.276  16.485  0.00  0.00    +0.000 A 
BRANCH  10  11
ATOM     11  O   UNL     1       5.057   7.228  17.301  0.00  0.00    +0.000 OA
BRANCH  11  12
ATOM     12  C   UNL     1       3.663   7.433  17.216  0.00  0.00    +0.000 C 
ATOM     13  F   UNL     1       3.063   6.343  17.758  0.00  0.00    +0.000 F 
ATOM     14  F   UNL     1       3.308   8.486  17.994  0.00  0.00    +0.000 F 
ENDBRANCH  11  12
ENDBRANCH  10  11
ENDBRANCH   3   5
BRANCH   1  15
ATOM     15  C   UNL     1       5.823   4.308  18.968  0.00  0.00    +0.000 C 
BRANCH  15  16
ATOM     16  O   UNL     1       4.668   4.537  19.759  0.00  0.00    +0.000 OA
BRANCH  16  22
ATOM     17  C   UNL     1       2.244   3.946  20.034  0.00  0.00    +0.000 A 
ATOM     18  C   UNL     1       1.184   3.170  19.529  0.00  0.00    +0.000 A 
ATOM     19  C   UNL     1       1.389   2.271  18.484  0.00  0.00    +0.000 A 
ATOM     20  C   UNL     1       2.643   2.175  17.898  0.00  0.00    +0.000 A 
ATOM     21  C   UNL     1       3.686   2.984  18.353  0.00  0.00    +0.000 A 
ATOM     22  C   UNL     1       3.509   3.874  19.426  0.00  0.00    +0.000 A 
BRANCH  17  24
ATOM     23  C   UNL     1       1.619   6.129  20.705  0.00  0.00    +0.000 C 
ATOM     24  O   UNL     1       2.022   4.810  21.069  0.00  0.00    +0.000 OA
ENDBRANCH  17  24
ENDBRANCH  16  22
ENDBRANCH  15  16
ENDBRANCH   1  15
TORSDOF 7
ENDMDL
MODEL 4
REMARK VINA RESULT:      -7.1      2.914      5.645
REMARK  Name = 
REMARK  8 active torsions:
REMARK  status: ('A' for Active; 'I' for Inactive)
REMARK    1  A    between atoms: C_1  and  O_2
REMARK    2  A    between atoms: O_2  and  C_3
REMARK    3  A    between atoms: C_8  and  O_9
REMARK    4  A    between atoms: O_9  and  C_10
REMARK    5  A    between atoms: C_10  and  C_11
REMARK    6  A    between atoms: N_13  and  C_14
REMARK    7  A    between atoms: C_19  and  O_20
REMARK    8  A    between atoms: O_20  and  C_21
REMARK                            x       y       z     vdW  Elec       q    Type
REMARK                         _______ _______ _______ _____ _____    ______ ____
ROOT
ATOM      1  C   UNL     1       3.838   3.411  18.050  0.00  0.00    +0.000 C 
ATOM      2  O   UNL     1       3.906   2.384  17.367  0.00  0.00    +0.000 OA
ATOM      3  N   UNL     1       2.700   4.189  17.985  0.00  0.00    +0.000 N 
ATOM      4  H   UNL     1       1.901   3.587  17.839  0.00  0.00    +0.000 HD
ENDROOT
BRANCH   3   5
ATOM      5  C   UNL     1       2.503   5.227  18.903  0.00  0.00    +0.000 A 
ATOM      6  N   UNL     1       2.859   6.466  18.499  0.00  0.00    +0.000 NA
ATOM      7  C   UNL     1       2.428   7.491  19.263  0.00  0.00    +0.000 A 
ATOM      8  C   UNL     1       1.671   7.328  20.413  0.00  0.00    +0.000 A 
ATOM      9  C   UNL     1       1.373   6.035  20.841  0.00  0.00    +0.000 A 
ATOM     10  C   UNL     1       1.802   4.950  20.085  0.00  0.00    +0.000 A 
BRANCH  10  11
ATOM     11  O   UNL     1       1.663   3.634  20.422  0.00  0.00    +0.000 OA
BRANCH  11  12
ATOM     12  C   UNL     1       2.065   3.256  21.722  0.00  0.00    +0.000 C 
ATOM     13  F   UNL     1       1.063   2.508  22.250  0.00  0.00    +0.000 F 
ATOM     14  F   UNL     1       3.146   2.440  21.646  0.00  0.00    +0.000 F 
ENDBRANCH  11  12
ENDBRANCH  10  11
ENDBRANCH   3   5
BRANCH   1  15
ATOM     15  C   UNL     1       4.946   3.781  19.060  0.00  0.00    +0.000 C 
BRANCH  15  16
ATOM     16  O   UNL     1       6.228   3.956  18.481  0.00  0.00    +0.000 OA
BRANCH  16  22
ATOM     17  C   UNL     1       6.177   6.040  17.081  0.00  0.00    +0.000 A 
ATOM     18  C   UNL     1       6.720   7.328  16.913  0.00  0.00    +0.000 A 
ATOM     19  C   UNL     1       7.748   7.784  17.735  0.00  0.00    +0.000 A 
ATOM     20  C   UNL     1       8.209   6.979  18.767  0.00  0.00    +0.000 A 
ATOM     21  C   UNL     1       7.635   5.724  18.980  0.00  0.00    +0.000 A 
ATOM     22  C   UNL     1       6.620   5.232  18.142  0.00  0.00    +0.000 A 
BRANCH  17  24
ATOM     23  C   UNL     1       5.602   4.945  15.062  0.00  0.00    +0.000 C 
ATOM     24  O   UNL     1       5.179   5.608  16.252  0.00  0.00    +0.000 OA
ENDBRANCH  17  24
ENDBRANCH  16  22
ENDBRANCH  15  16
ENDBRANCH   1  15
TORSDOF 7
ENDMDL
MODEL 5
REMARK VINA RESULT:      -7.0      1.800      2.511
REMARK  Name = 
REMARK  8 active torsions:
REMARK  status: ('A' for Active; 'I' for Inactive)
REMARK    1  A    between atoms: C_1  and  O_2
REMARK    2  A    between atoms: O_2  and  C_3
REMARK    3  A    between atoms: C_8  and  O_9
REMARK    4  A    between atoms: O_9  and  C_10
REMARK    5  A    between atoms: C_10  and  C_11
REMARK    6  A    between atoms: N_13  and  C_14
REMARK    7  A    between atoms: C_19  and  O_20
REMARK    8  A    between atoms: O_20  and  C_21
REMARK                            x       y       z     vdW  Elec       q    Type
REMARK                         _______ _______ _______ _____ _____    ______ ____
ROOT
ATOM      1  C   UNL     1       3.812   2.588  18.147  0.00  0.00    +0.000 C 
ATOM      2  O   UNL     1       3.600   1.640  18.909  0.00  0.00    +0.000 OA
ATOM      3  N   UNL     1       5.047   3.204  18.167  0.00  0.00    +0.000 N 
ATOM      4  H   UNL     1       5.754   2.511  18.373  0.00  0.00    +0.000 HD
ENDROOT
BRANCH   3   5
ATOM      5  C   UNL     1       5.391   4.128  17.173  0.00  0.00    +0.000 A 
ATOM      6  N   UNL     1       5.170   3.751  15.896  0.00  0.00    +0.000 NA
ATOM      7  C   UNL     1       5.245   4.723  14.963  0.00  0.00    +0.000 A 
ATOM      8  C   UNL     1       5.542   6.045  15.254  0.00  0.00    +0.000 A 
ATOM      9  C   UNL     1       5.831   6.393  16.573  0.00  0.00    +0.000 A 
ATOM     10  C   UNL     1       5.769   5.420  17.564  0.00  0.00    +0.000 A 
BRANCH  10  11
ATOM     11  O   UNL     1       6.108   5.590  18.876  0.00  0.00    +0.000 OA
BRANCH  11  12
ATOM     12  C   UNL     1       7.473   5.803  19.166  0.00  0.00    +0.000 C 
ATOM     13  F   UNL     1       7.660   5.487  20.473  0.00  0.00    +0.000 F 
ATOM     14  F   UNL     1       8.233   4.933  18.454  0.00  0.00    +0.000 F 
ENDBRANCH  11  12
ENDBRANCH  10  11
ENDBRANCH   3   5
BRANCH   1  15
ATOM     15  C   UNL     1       2.771   3.025  17.094  0.00  0.00    +0.000 C 
BRANCH  15  16
ATOM     16  O   UNL     1       1.612   3.635  17.637  0.00  0.00    +0.000 OA
BRANCH  16  22
ATOM     17  C   UNL     1       1.499   4.630  19.940  0.00  0.00    +0.000 A 
ATOM     18  C   UNL     1       1.745   5.783  20.708  0.00  0.00    +0.000 A 
ATOM     19  C   UNL     1       2.188   6.962  20.111  0.00  0.00    +0.000 A 
ATOM     20  C   UNL     1       2.439   6.986  18.746  0.00  0.00    +0.000 A 
ATOM     21  C   UNL     1       2.256   5.830  17.985  0.00  0.00    +0.000 A 
ATOM     22  C   UNL     1       1.780   4.641  18.562  0.00  0.00    +0.000 A 
BRANCH  17  24
ATOM     23  C   UNL     1       1.814   3.036  21.662  0.00  0.00    +0.000 C 
ATOM     24  O   UNL     1       1.050   3.490  20.546  0.00  0.00    +0.000 OA
ENDBRANCH  17  24
ENDBRANCH  16  22
ENDBRANCH  15  16
ENDBRANCH   1  15
TORSDOF 7
ENDMDL
MODEL 6
REMARK VINA RESULT:      -7.0      2.961      4.496
REMARK  Name = 
REMARK  8 active torsions:
REMARK  status: ('A' for Active; 'I' for Inactive)
REMARK    1  A    between atoms: C_1  and  O_2
REMARK    2  A    between atoms: O_2  and  C_3
REMARK    3  A    between atoms: C_8  and  O_9
REMARK    4  A    between atoms: O_9  and  C_10
REMARK    5  A    between atoms: C_10  and  C_11
REMARK    6  A    between atoms: N_13  and  C_14
REMARK    7  A    between atoms: C_19  and  O_20
REMARK    8  A    between atoms: O_20  and  C_21
REMARK                            x       y       z     vdW  Elec       q    Type
REMARK                         _______ _______ _______ _____ _____    ______ ____
ROOT
ATOM      1  C   UNL     1       7.036   5.460  19.203  0.00  0.00    +0.000 C 
ATOM      2  O   UNL     1       7.604   5.609  20.289  0.00  0.00    +0.000 OA
ATOM      3  N   UNL     1       7.233   6.395  18.207  0.00  0.00    +0.000 N 
ATOM      4  H   UNL     1       8.177   6.752  18.277  0.00  0.00    +0.000 HD
ENDROOT
BRANCH   3   5
ATOM      5  C   UNL     1       6.787   6.144  16.904  0.00  0.00    +0.000 A 
ATOM      6  N   UNL     1       7.606   5.415  16.115  0.00  0.00    +0.000 NA
ATOM      7  C   UNL     1       7.071   4.947  14.968  0.00  0.00    +0.000 A 
ATOM      8  C   UNL     1       5.765   5.188  14.575  0.00  0.00    +0.000 A 
ATOM      9  C   UNL     1       4.962   5.999  15.377  0.00  0.00    +0.000 A 
ATOM     10  C   UNL     1       5.475   6.504  16.566  0.00  0.00    +0.000 A 
BRANCH  10  11
ATOM     11  O   UNL     1       4.843   7.377  17.404  0.00  0.00    +0.000 OA
BRANCH  11  12
ATOM     12  C   UNL     1       3.469   7.159  17.646  0.00  0.00    +0.000 C 
ATOM     13  F   UNL     1       3.357   6.646  18.897  0.00  0.00    +0.000 F 
ATOM     14  F   UNL     1       2.815   8.348  17.665  0.00  0.00    +0.000 F 
ENDBRANCH  11  12
ENDBRANCH  10  11
ENDBRANCH   3   5
BRANCH   1  15
ATOM     15  C   UNL     1       6.207   4.195  18.892  0.00  0.00    +0.000 C 
BRANCH  15  16
ATOM     16  O   UNL     1       5.117   3.982  19.773  0.00  0.00    +0.000 OA
BRANCH  16  22
ATOM     17  C   UNL     1       2.945   2.734  19.946  0.00  0.00    +0.000 A 
ATOM     18  C   UNL     1       1.853   2.219  19.224  0.00  0.00    +0.000 A 
ATOM     19  C   UNL     1       1.812   2.299  17.833  0.00  0.00    +0.000 A 
ATOM     20  C   UNL     1       2.838   2.942  17.153  0.00  0.00    +0.000 A 
ATOM     21  C   UNL     1       3.896   3.509  17.866  0.00  0.00    +0.000 A 
ATOM     22  C   UNL     1       3.972   3.411  19.265  0.00  0.00    +0.000 A 
BRANCH  17  24
ATOM     23  C   UNL     1       1.714   2.778  21.968  0.00  0.00    +0.000 C 
ATOM     24  O   UNL     1       2.970   2.630  21.309  0.00  0.00    +0.000 OA
ENDBRANCH  17  24
ENDBRANCH  16  22
ENDBRANCH  15  16
ENDBRANCH   1  15
TORSDOF 7
ENDMDL
MODEL 7
REMARK VINA RESULT:      -6.7      1.748      2.461
REMARK  Name = 
REMARK  8 active torsions:
REMARK  status: ('A' for Active; 'I' for Inactive)
REMARK    1  A    between atoms: C_1  and  O_2
REMARK    2  A    between atoms: O_2  and  C_3
REMARK    3  A    between atoms: C_8  and  O_9
REMARK    4  A    between atoms: O_9  and  C_10
REMARK    5  A    between atoms: C_10  and  C_11
REMARK    6  A    between atoms: N_13  and  C_14
REMARK    7  A    between atoms: C_19  and  O_20
REMARK    8  A    between atoms: O_20  and  C_21
REMARK                            x       y       z     vdW  Elec       q    Type
REMARK                         _______ _______ _______ _____ _____    ______ ____
ROOT
ATOM      1  C   UNL     1       5.037   3.454  18.773  0.00  0.00    +0.000 C 
ATOM      2  O   UNL     1       5.095   2.963  19.904  0.00  0.00    +0.000 OA
ATOM      3  N   UNL     1       6.145   4.096  18.260  0.00  0.00    +0.000 N 
ATOM      4  H   UNL     1       6.977   3.637  18.605  0.00  0.00    +0.000 HD
ENDROOT
BRANCH   3   5
ATOM      5  C   UNL     1       6.185   4.466  16.911  0.00  0.00    +0.000 A 
ATOM      6  N   UNL     1       6.146   3.462  16.008  0.00  0.00    +0.000 NA
ATOM      7  C   UNL     1       5.914   3.818  14.727  0.00  0.00    +0.000 A 
ATOM      8  C   UNL     1       5.735   5.128  14.314  0.00  0.00    +0.000 A 
ATOM      9  C   UNL     1       5.847   6.150  15.257  0.00  0.00    +0.000 A 
ATOM     10  C   UNL     1       6.088   5.827  16.587  0.00  0.00    +0.000 A 
BRANCH  10  11
ATOM     11  O   UNL     1       6.309   6.715  17.600  0.00  0.00    +0.000 OA
BRANCH  11  12
ATOM     12  C   UNL     1       7.561   7.367  17.625  0.00  0.00    +0.000 C 
ATOM     13  F   UNL     1       7.318   8.702  17.655  0.00  0.00    +0.000 F 
ATOM     14  F   UNL     1       8.205   7.074  18.782  0.00  0.00    +0.000 F 
ENDBRANCH  11  12
ENDBRANCH  10  11
ENDBRANCH   3   5
BRANCH   1  15
ATOM     15  C   UNL     1       3.795   3.265  17.875  0.00  0.00    +0.000 C 
BRANCH  15  16
ATOM     16  O   UNL     1       2.568   3.610  18.496  0.00  0.00    +0.000 OA
BRANCH  16  22
ATOM     17  C   UNL     1       2.165   5.311  20.299  0.00  0.00    +0.000 A 
ATOM     18  C   UNL     1       2.048   6.685  20.579  0.00  0.00    +0.000 A 
ATOM     19  C   UNL     1       2.105   7.632  19.559  0.00  0.00    +0.000 A 
ATOM     20  C   UNL     1       2.331   7.219  18.253  0.00  0.00    +0.000 A 
ATOM     21  C   UNL     1       2.508   5.863  17.973  0.00  0.00    +0.000 A 
ATOM     22  C   UNL     1       2.423   4.890  18.982  0.00  0.00    +0.000 A 
BRANCH  17  24
ATOM     23  C   UNL     1       1.199   3.305  21.107  0.00  0.00    +0.000 C 
ATOM     24  O   UNL     1       2.091   4.399  21.315  0.00  0.00    +0.000 OA
ENDBRANCH  17  24
ENDBRANCH  16  22
ENDBRANCH  15  16
ENDBRANCH   1  15
TORSDOF 7
ENDMDL
MODEL 8
REMARK VINA RESULT:      -6.7      3.001      5.658
REMARK  Name = 
REMARK  8 active torsions:
REMARK  status: ('A' for Active; 'I' for Inactive)
REMARK    1  A    between atoms: C_1  and  O_2
REMARK    2  A    between atoms: O_2  and  C_3
REMARK    3  A    between atoms: C_8  and  O_9
REMARK    4  A    between atoms: O_9  and  C_10
REMARK    5  A    between atoms: C_10  and  C_11
REMARK    6  A    between atoms: N_13  and  C_14
REMARK    7  A    between atoms: C_19  and  O_20
REMARK    8  A    between atoms: O_20  and  C_21
REMARK                            x       y       z     vdW  Elec       q    Type
REMARK                         _______ _______ _______ _____ _____    ______ ____
ROOT
ATOM      1  C   UNL     1       2.526   6.171  18.387  0.00  0.00    +0.000 C 
ATOM      2  O   UNL     1       2.126   7.324  18.197  0.00  0.00    +0.000 OA
ATOM      3  N   UNL     1       1.718   5.111  18.028  0.00  0.00    +0.000 N 
ATOM      4  H   UNL     1       1.189   5.368  17.206  0.00  0.00    +0.000 HD
ENDROOT
BRANCH   3   5
ATOM      5  C   UNL     1       2.226   3.807  18.026  0.00  0.00    +0.000 A 
ATOM      6  N   UNL     1       3.090   3.497  17.035  0.00  0.00    +0.000 NA
ATOM      7  C   UNL     1       3.780   2.346  17.181  0.00  0.00    +0.000 A 
ATOM      8  C   UNL     1       3.632   1.493  18.263  0.00  0.00    +0.000 A 
ATOM      9  C   UNL     1       2.685   1.805  19.239  0.00  0.00    +0.000 A 
ATOM     10  C   UNL     1       1.950   2.980  19.124  0.00  0.00    +0.000 A 
BRANCH  10  11
ATOM     11  O   UNL     1       0.934   3.372  19.947  0.00  0.00    +0.000 OA
BRANCH  11  12
ATOM     12  C   UNL     1       1.265   3.662  21.289  0.00  0.00    +0.000 C 
ATOM     13  F   UNL     1       1.186   2.498  21.983  0.00  0.00    +0.000 F 
ATOM     14  F   UNL     1       2.559   4.060  21.364  0.00  0.00    +0.000 F 
ENDBRANCH  11  12
ENDBRANCH  10  11
ENDBRANCH   3   5
BRANCH   1  15
ATOM     15  C   UNL     1       3.951   5.888  18.908  0.00  0.00    +0.000 C 
BRANCH  15  16
ATOM     16  O   UNL     1       4.980   6.522  18.167  0.00  0.00    +0.000 OA
BRANCH  16  22
ATOM     17  C   UNL     1       6.736   4.908  17.383  0.00  0.00    +0.000 A 
ATOM     18  C   UNL     1       7.275   4.247  16.263  0.00  0.00    +0.000 A 
ATOM     19  C   UNL     1       6.797   4.507  14.980  0.00  0.00    +0.000 A 
ATOM     20  C   UNL     1       5.741   5.391  14.808  0.00  0.00    +0.000 A 
ATOM     21  C   UNL     1       5.160   6.005  15.919  0.00  0.00    +0.000 A 
ATOM     22  C   UNL     1       5.648   5.782  17.217  0.00  0.00    +0.000 A 
BRANCH  17  24
ATOM     23  C   UNL     1       7.922   5.724  19.263  0.00  0.00    +0.000 C 
ATOM     24  O   UNL     1       7.231   4.648  18.630  0.00  0.00    +0.000 OA
ENDBRANCH  17  24
ENDBRANCH  16  22
ENDBRANCH  15  16
ENDBRANCH   1  15
TORSDOF 7
ENDMDL
MODEL 9
REMARK VINA RESULT:      -6.7      3.290      6.680
REMARK  Name = 
REMARK  8 active torsions:
REMARK  status: ('A' for Active; 'I' for Inactive)
REMARK    1  A    between atoms: C_1  and  O_2
REMARK    2  A    between atoms: O_2  and  C_3
REMARK    3  A    between atoms: C_8  and  O_9
REMARK    4  A    between atoms: O_9  and  C_10
REMARK    5  A    between atoms: C_10  and  C_11
REMARK    6  A    between atoms: N_13  and  C_14
REMARK    7  A    between atoms: C_19  and  O_20
REMARK    8  A    between atoms: O_20  and  C_21
REMARK                            x       y       z     vdW  Elec       q    Type
REMARK                         _______ _______ _______ _____ _____    ______ ____
ROOT
ATOM      1  C   UNL     1       6.824   4.629  17.953  0.00  0.00    +0.000 C 
ATOM      2  O   UNL     1       8.014   4.369  18.153  0.00  0.00    +0.000 OA
ATOM      3  N   UNL     1       5.866   4.078  18.781  0.00  0.00    +0.000 N 
ATOM      4  H   UNL     1       6.250   3.994  19.713  0.00  0.00    +0.000 HD
ENDROOT
BRANCH   3   5
ATOM      5  C   UNL     1       4.541   4.523  18.720  0.00  0.00    +0.000 A 
ATOM      6  N   UNL     1       4.282   5.728  19.272  0.00  0.00    +0.000 NA
ATOM      7  C   UNL     1       3.082   6.273  18.982  0.00  0.00    +0.000 A 
ATOM      8  C   UNL     1       2.133   5.661  18.179  0.00  0.00    +0.000 A 
ATOM      9  C   UNL     1       2.401   4.388  17.676  0.00  0.00    +0.000 A 
ATOM     10  C   UNL     1       3.624   3.789  17.954  0.00  0.00    +0.000 A 
BRANCH  10  11
ATOM     11  O   UNL     1       3.990   2.520  17.608  0.00  0.00    +0.000 OA
BRANCH  11  12
ATOM     12  C   UNL     1       3.484   1.464  18.396  0.00  0.00    +0.000 C 
ATOM     13  F   UNL     1       4.476   1.080  19.239  0.00  0.00    +0.000 F 
ATOM     14  F   UNL     1       2.477   1.922  19.181  0.00  0.00    +0.000 F 
ENDBRANCH  11  12
ENDBRANCH  10  11
ENDBRANCH   3   5
BRANCH   1  15
ATOM     15  C   UNL     1       6.390   5.645  16.875  0.00  0.00    +0.000 C 
BRANCH  15  16
ATOM     16  O   UNL     1       7.256   5.712  15.755  0.00  0.00    +0.000 OA
BRANCH  16  22
ATOM     17  C   UNL     1       7.500   5.043  13.347  0.00  0.00    +0.000 A 
ATOM     18  C   UNL     1       6.978   4.239  12.317  0.00  0.00    +0.000 A 
ATOM     19  C   UNL     1       5.833   3.470  12.519  0.00  0.00    +0.000 A 
ATOM     20  C   UNL     1       5.228   3.457  13.768  0.00  0.00    +0.000 A 
ATOM     21  C   UNL     1       5.774   4.204  14.813  0.00  0.00    +0.000 A 
ATOM     22  C   UNL     1       6.909   5.011  14.622  0.00  0.00    +0.000 A 
BRANCH  17  24
ATOM     23  C   UNL     1       8.663   6.481  11.867  0.00  0.00    +0.000 C 
ATOM     24  O   UNL     1       8.615   5.800  13.120  0.00  0.00    +0.000 OA
ENDBRANCH  17  24
ENDBRANCH  16  22
ENDBRANCH  15  16
ENDBRANCH   1  15
TORSDOF 7
ENDMDL
