MODEL 1
REMARK VINA RESULT:      -6.1      0.000      0.000
REMARK  Name = 
REMARK  13 active torsions:
REMARK  status: ('A' for Active; 'I' for Inactive)
REMARK    1  A    between atoms: C_5  and  S_6
REMARK    2  A    between atoms: S_6  and  C_7
REMARK    3  A    between atoms: C_7  and  C_8
REMARK    4  A    between atoms: C_8  and  C_9
REMARK    5  A    between atoms: C_9  and  C_10
REMARK    6  A    between atoms: C_10  and  C_11
REMARK    7  A    between atoms: C_11  and  C_12
REMARK    8  A    between atoms: C_12  and  C_13
REMARK    9  A    between atoms: C_13  and  C_14
REMARK   10  A    between atoms: C_14  and  C_15
REMARK   11  A    between atoms: C_15  and  C_16
REMARK   12  A    between atoms: C_16  and  S_17
REMARK   13  A    between atoms: S_17  and  C_18
REMARK                            x       y       z     vdW  Elec       q    Type
REMARK                         _______ _______ _______ _____ _____    ______ ____
ROOT
ATOM      1  C   UNL     1       2.758   5.636  20.349  0.00  0.00    +0.000 C 
ENDROOT
BRANCH   1   2
ATOM      2  C   UNL     1       3.194   6.826  19.502  0.00  0.00    +0.000 C 
BRANCH   2   3
ATOM      3  C   UNL     1       1.996   7.464  18.804  0.00  0.00    +0.000 C 
BRANCH   3   4
ATOM      4  C   UNL     1       2.458   8.444  17.728  0.00  0.00    +0.000 C 
BRANCH   4   5
ATOM      5  C   UNL     1       1.862   9.833  17.957  0.00  0.00    +0.000 C 
BRANCH   5   6
ATOM      6  S   UNL     1       0.719   9.753  19.377  0.00  0.00    +0.000 S 
BRANCH   6  11
ATOM      7 CL   UNL     1      -4.762  11.888  17.083  0.00  0.00    +0.000 Cl
ATOM      8  C   UNL     1      -3.275  11.278  17.697  0.00  0.00    +0.000 A 
ATOM      9  C   UNL     1      -2.673  11.877  18.800  0.00  0.00    +0.000 A 
ATOM     10  C   UNL     1      -1.462  11.376  19.281  0.00  0.00    +0.000 A 
ATOM     11  C   UNL     1      -0.844  10.268  18.685  0.00  0.00    +0.000 A 
ATOM     12  C   UNL     1      -1.458   9.676  17.574  0.00  0.00    +0.000 A 
ATOM     13  C   UNL     1      -2.670  10.180  17.085  0.00  0.00    +0.000 A 
ENDBRANCH   6  11
ENDBRANCH   5   6
ENDBRANCH   4   5
ENDBRANCH   3   4
ENDBRANCH   2   3
ENDBRANCH   1   2
BRANCH   1  14
ATOM     14  C   UNL     1       1.243   5.468  20.300  0.00  0.00    +0.000 C 
BRANCH  14  15
ATOM     15  C   UNL     1       0.867   3.994  20.216  0.00  0.00    +0.000 C 
BRANCH  15  16
ATOM     16  C   UNL     1       1.475   3.350  18.974  0.00  0.00    +0.000 C 
BRANCH  16  17
ATOM     17  C   UNL     1       2.315   2.131  19.354  0.00  0.00    +0.000 C 
BRANCH  17  18
ATOM     18  C   UNL     1       3.603   2.073  18.537  0.00  0.00    +0.000 C 
BRANCH  18  19
ATOM     19  S   UNL     1       3.444   3.208  17.118  0.00  0.00    +0.000 S 
BRANCH  19  20
ATOM     20  C   UNL     1       4.730   4.415  17.395  0.00  0.00    +0.000 A 
ATOM     21  C   UNL     1       5.628   4.393  18.467  0.00  0.00    +0.000 A 
ATOM     22  C   UNL     1       6.597   5.393  18.605  0.00  0.00    +0.000 A 
ATOM     23  C   UNL     1       6.673   6.422  17.669  0.00  0.00    +0.000 A 
ATOM     24 CL   UNL     1       7.861   7.655  17.851  0.00  0.00    +0.000 Cl
ATOM     25  C   UNL     1       5.792   6.457  16.593  0.00  0.00    +0.000 A 
ATOM     26  C   UNL     1       4.825   5.456  16.459  0.00  0.00    +0.000 A 
ENDBRANCH  19  20
ENDBRANCH  18  19
ENDBRANCH  17  18
ENDBRANCH  16  17
ENDBRANCH  15  16
ENDBRANCH  14  15
ENDBRANCH   1  14
TORSDOF 13
ENDMDL
MODEL 2
REMARK VINA RESULT:      -6.0      2.818      3.593
REMARK  Name = 
REMARK  13 active torsions:
REMARK  status: ('A' for Active; 'I' for Inactive)
REMARK    1  A    between atoms: C_5  and  S_6
REMARK    2  A    between atoms: S_6  and  C_7
REMARK    3  A    between atoms: C_7  and  C_8
REMARK    4  A    between atoms: C_8  and  C_9
REMARK    5  A    between atoms: C_9  and  C_10
REMARK    6  A    between atoms: C_10  and  C_11
REMARK    7  A    between atoms: C_11  and  C_12
REMARK    8  A    between atoms: C_12  and  C_13
REMARK    9  A    between atoms: C_13  and  C_14
REMARK   10  A    between atoms: C_14  and  C_15
REMARK   11  A    between atoms: C_15  and  C_16
REMARK   12  A    between atoms: C_16  and  S_17
REMARK   13  A    between atoms: S_17  and  C_18
REMARK                            x       y       z     vdW  Elec       q    Type
REMARK                         _______ _______ _______ _____ _____    ______ ____
ROOT
ATOM      1  C   UNL     1       2.525   6.887  18.213  0.00  0.00    +0.000 C 
ENDROOT
BRANCH   1   2
ATOM      2  C   UNL     1       2.544   8.404  18.067  0.00  0.00    +0.000 C 
BRANCH   2   3
ATOM      3  C   UNL     1       1.469   9.047  18.937  0.00  0.00    +0.000 C 
BRANCH   3   4
ATOM      4  C   UNL     1       0.453   9.794  18.077  0.00  0.00    +0.000 C 
BRANCH   4   5
ATOM      5  C   UNL     1      -0.473  10.652  18.938  0.00  0.00    +0.000 C 
BRANCH   5   6
ATOM      6  S   UNL     1       0.512  11.427  20.263  0.00  0.00    +0.000 S 
BRANCH   6  11
ATOM      7 CL   UNL     1       3.027  16.586  17.631  0.00  0.00    +0.000 Cl
ATOM      8  C   UNL     1       2.354  15.163  18.326  0.00  0.00    +0.000 A 
ATOM      9  C   UNL     1       1.188  15.235  19.081  0.00  0.00    +0.000 A 
ATOM     10  C   UNL     1       0.659  14.073  19.645  0.00  0.00    +0.000 A 
ATOM     11  C   UNL     1       1.272  12.826  19.455  0.00  0.00    +0.000 A 
ATOM     12  C   UNL     1       2.448  12.768  18.696  0.00  0.00    +0.000 A 
ATOM     13  C   UNL     1       2.983  13.933  18.133  0.00  0.00    +0.000 A 
ENDBRANCH   6  11
ENDBRANCH   5   6
ENDBRANCH   4   5
ENDBRANCH   3   4
ENDBRANCH   2   3
ENDBRANCH   1   2
BRANCH   1  14
ATOM     14  C   UNL     1       2.592   6.488  19.683  0.00  0.00    +0.000 C 
BRANCH  14  15
ATOM     15  C   UNL     1       1.610   5.362  19.981  0.00  0.00    +0.000 C 
BRANCH  15  16
ATOM     16  C   UNL     1       2.107   4.501  21.138  0.00  0.00    +0.000 C 
BRANCH  16  17
ATOM     17  C   UNL     1       2.183   3.033  20.723  0.00  0.00    +0.000 C 
BRANCH  17  18
ATOM     18  C   UNL     1       1.870   2.861  19.239  0.00  0.00    +0.000 C 
BRANCH  18  19
ATOM     19  S   UNL     1       3.316   2.107  18.422  0.00  0.00    +0.000 S 
BRANCH  19  20
ATOM     20  C   UNL     1       4.353   3.503  18.022  0.00  0.00    +0.000 A 
ATOM     21  C   UNL     1       4.428   4.106  16.763  0.00  0.00    +0.000 A 
ATOM     22  C   UNL     1       5.283   5.193  16.543  0.00  0.00    +0.000 A 
ATOM     23  C   UNL     1       6.066   5.683  17.586  0.00  0.00    +0.000 A 
ATOM     24 CL   UNL     1       7.122   7.014  17.307  0.00  0.00    +0.000 Cl
ATOM     25  C   UNL     1       5.999   5.100  18.847  0.00  0.00    +0.000 A 
ATOM     26  C   UNL     1       5.145   4.014  19.061  0.00  0.00    +0.000 A 
ENDBRANCH  19  20
ENDBRANCH  18  19
ENDBRANCH  17  18
ENDBRANCH  16  17
ENDBRANCH  15  16
ENDBRANCH  14  15
ENDBRANCH   1  14
TORSDOF 13
ENDMDL
MODEL 3
REMARK VINA RESULT:      -5.9      2.509      3.463
REMARK  Name = 
REMARK  13 active torsions:
REMARK  status: ('A' for Active; 'I' for Inactive)
REMARK    1  A    between atoms: C_5  and  S_6
REMARK    2  A    between atoms: S_6  and  C_7
REMARK    3  A    between atoms: C_7  and  C_8
REMARK    4  A    between atoms: C_8  and  C_9
REMARK    5  A    between atoms: C_9  and  C_10
REMARK    6  A    between atoms: C_10  and  C_11
REMARK    7  A    between atoms: C_11  and  C_12
REMARK    8  A    between atoms: C_12  and  C_13
REMARK    9  A    between atoms: C_13  and  C_14
REMARK   10  A    between atoms: C_14  and  C_15
REMARK   11  A    between atoms: C_15  and  C_16
REMARK   12  A    between atoms: C_16  and  S_17
REMARK   13  A    between atoms: S_17  and  C_18
REMARK                            x       y       z     vdW  Elec       q    Type
REMARK                         _______ _______ _______ _____ _____    ______ ____
ROOT
ATOM      1  C   UNL     1       2.474   7.846  17.889  0.00  0.00    +0.000 C 
ENDROOT
BRANCH   1   2
ATOM      2  C   UNL     1       1.760   8.856  18.779  0.00  0.00    +0.000 C 
BRANCH   2   3
ATOM      3  C   UNL     1       0.698   9.618  17.992  0.00  0.00    +0.000 C 
BRANCH   3   4
ATOM      4  C   UNL     1      -0.208  10.408  18.933  0.00  0.00    +0.000 C 
BRANCH   4   5
ATOM      5  C   UNL     1       0.612  11.270  19.892  0.00  0.00    +0.000 C 
BRANCH   5   6
ATOM      6  S   UNL     1      -0.136  12.932  19.973  0.00  0.00    +0.000 S 
BRANCH   6  11
ATOM      7 CL   UNL     1      -4.339  12.213  24.629  0.00  0.00    +0.000 Cl
ATOM      8  C   UNL     1      -3.217  12.416  23.341  0.00  0.00    +0.000 A 
ATOM      9  C   UNL     1      -2.012  11.720  23.344  0.00  0.00    +0.000 A 
ATOM     10  C   UNL     1      -1.108  11.902  22.296  0.00  0.00    +0.000 A 
ATOM     11  C   UNL     1      -1.395  12.763  21.228  0.00  0.00    +0.000 A 
ATOM     12  C   UNL     1      -2.610  13.461  21.239  0.00  0.00    +0.000 A 
ATOM     13  C   UNL     1      -3.516  13.284  22.292  0.00  0.00    +0.000 A 
ENDBRANCH   6  11
ENDBRANCH   5   6
ENDBRANCH   4   5
ENDBRANCH   3   4
ENDBRANCH   2   3
ENDBRANCH   1   2
BRANCH   1  14
ATOM     14  C   UNL     1       2.547   6.485  18.573  0.00  0.00    +0.000 C 
BRANCH  14  15
ATOM     15  C   UNL     1       2.042   6.575  20.008  0.00  0.00    +0.000 C 
BRANCH  15  16
ATOM     16  C   UNL     1       1.928   5.187  20.630  0.00  0.00    +0.000 C 
BRANCH  16  17
ATOM     17  C   UNL     1       1.711   4.128  19.551  0.00  0.00    +0.000 C 
BRANCH  17  18
ATOM     18  C   UNL     1       2.585   2.900  19.799  0.00  0.00    +0.000 C 
BRANCH  18  19
ATOM     19  S   UNL     1       3.399   2.439  18.233  0.00  0.00    +0.000 S 
BRANCH  19  20
ATOM     20  C   UNL     1       4.529   3.786  17.930  0.00  0.00    +0.000 A 
ATOM     21  C   UNL     1       4.716   4.409  16.693  0.00  0.00    +0.000 A 
ATOM     22  C   UNL     1       5.638   5.453  16.552  0.00  0.00    +0.000 A 
ATOM     23  C   UNL     1       6.378   5.880  17.653  0.00  0.00    +0.000 A 
ATOM     24 CL   UNL     1       7.517   7.158  17.471  0.00  0.00    +0.000 Cl
ATOM     25  C   UNL     1       6.200   5.276  18.893  0.00  0.00    +0.000 A 
ATOM     26  C   UNL     1       5.279   4.233  19.029  0.00  0.00    +0.000 A 
ENDBRANCH  19  20
ENDBRANCH  18  19
ENDBRANCH  17  18
ENDBRANCH  16  17
ENDBRANCH  15  16
ENDBRANCH  14  15
ENDBRANCH   1  14
TORSDOF 13
ENDMDL
MODEL 4
REMARK VINA RESULT:      -5.9      2.511      3.335
REMARK  Name = 
REMARK  13 active torsions:
REMARK  status: ('A' for Active; 'I' for Inactive)
REMARK    1  A    between atoms: C_5  and  S_6
REMARK    2  A    between atoms: S_6  and  C_7
REMARK    3  A    between atoms: C_7  and  C_8
REMARK    4  A    between atoms: C_8  and  C_9
REMARK    5  A    between atoms: C_9  and  C_10
REMARK    6  A    between atoms: C_10  and  C_11
REMARK    7  A    between atoms: C_11  and  C_12
REMARK    8  A    between atoms: C_12  and  C_13
REMARK    9  A    between atoms: C_13  and  C_14
REMARK   10  A    between atoms: C_14  and  C_15
REMARK   11  A    between atoms: C_15  and  C_16
REMARK   12  A    between atoms: C_16  and  S_17
REMARK   13  A    between atoms: S_17  and  C_18
REMARK                            x       y       z     vdW  Elec       q    Type
REMARK                         _______ _______ _______ _____ _____    ______ ____
ROOT
ATOM      1  C   UNL     1       2.649   7.745  18.223  0.00  0.00    +0.000 C 
ENDROOT
BRANCH   1   2
ATOM      2  C   UNL     1       1.616   8.724  18.769  0.00  0.00    +0.000 C 
BRANCH   2   3
ATOM      3  C   UNL     1       1.443   9.912  17.828  0.00  0.00    +0.000 C 
BRANCH   3   4
ATOM      4  C   UNL     1       1.182  11.193  18.617  0.00  0.00    +0.000 C 
BRANCH   4   5
ATOM      5  C   UNL     1      -0.016  11.028  19.552  0.00  0.00    +0.000 C 
BRANCH   5   6
ATOM      6  S   UNL     1      -1.054  12.524  19.443  0.00  0.00    +0.000 S 
BRANCH   6  11
ATOM      7 CL   UNL     1      -4.577  12.429  24.682  0.00  0.00    +0.000 Cl
ATOM      8  C   UNL     1      -3.592  12.463  23.271  0.00  0.00    +0.000 A 
ATOM      9  C   UNL     1      -4.158  12.724  22.028  0.00  0.00    +0.000 A 
ATOM     10  C   UNL     1      -3.347  12.740  20.891  0.00  0.00    +0.000 A 
ATOM     11  C   UNL     1      -1.967  12.511  20.977  0.00  0.00    +0.000 A 
ATOM     12  C   UNL     1      -1.410  12.246  22.235  0.00  0.00    +0.000 A 
ATOM     13  C   UNL     1      -2.222  12.224  23.376  0.00  0.00    +0.000 A 
ENDBRANCH   6  11
ENDBRANCH   5   6
ENDBRANCH   4   5
ENDBRANCH   3   4
ENDBRANCH   2   3
ENDBRANCH   1   2
BRANCH   1  14
ATOM     14  C   UNL     1       2.235   6.308  18.519  0.00  0.00    +0.000 C 
BRANCH  14  15
ATOM     15  C   UNL     1       2.306   6.023  20.014  0.00  0.00    +0.000 C 
BRANCH  15  16
ATOM     16  C   UNL     1       1.332   4.915  20.402  0.00  0.00    +0.000 C 
BRANCH  16  17
ATOM     17  C   UNL     1       1.273   3.842  19.315  0.00  0.00    +0.000 C 
BRANCH  17  18
ATOM     18  C   UNL     1       1.958   2.556  19.772  0.00  0.00    +0.000 C 
BRANCH  18  19
ATOM     19  S   UNL     1       3.002   1.938  18.409  0.00  0.00    +0.000 S 
BRANCH  19  20
ATOM     20  C   UNL     1       4.154   3.270  18.119  0.00  0.00    +0.000 A 
ATOM     21  C   UNL     1       5.015   3.804  19.082  0.00  0.00    +0.000 A 
ATOM     22  C   UNL     1       5.876   4.860  18.761  0.00  0.00    +0.000 A 
ATOM     23  C   UNL     1       5.880   5.386  17.471  0.00  0.00    +0.000 A 
ATOM     24 CL   UNL     1       6.935   6.690  17.084  0.00  0.00    +0.000 Cl
ATOM     25  C   UNL     1       5.035   4.862  16.498  0.00  0.00    +0.000 A 
ATOM     26  C   UNL     1       4.176   3.808  16.824  0.00  0.00    +0.000 A 
ENDBRANCH  19  20
ENDBRANCH  18  19
ENDBRANCH  17  18
ENDBRANCH  16  17
ENDBRANCH  15  16
ENDBRANCH  14  15
ENDBRANCH   1  14
TORSDOF 13
ENDMDL
MODEL 5
REMARK VINA RESULT:      -5.9      1.335      9.186
REMARK  Name = 
REMARK  13 active torsions:
REMARK  status: ('A' for Active; 'I' for Inactive)
REMARK    1  A    between atoms: C_5  and  S_6
REMARK    2  A    between atoms: S_6  and  C_7
REMARK    3  A    between atoms: C_7  and  C_8
REMARK    4  A    between atoms: C_8  and  C_9
REMARK    5  A    between atoms: C_9  and  C_10
REMARK    6  A    between atoms: C_10  and  C_11
REMARK    7  A    between atoms: C_11  and  C_12
REMARK    8  A    between atoms: C_12  and  C_13
REMARK    9  A    between atoms: C_13  and  C_14
REMARK   10  A    between atoms: C_14  and  C_15
REMARK   11  A    between atoms: C_15  and  C_16
REMARK   12  A    between atoms: C_16  and  S_17
REMARK   13  A    between atoms: S_17  and  C_18
REMARK                            x       y       z     vdW  Elec       q    Type
REMARK                         _______ _______ _______ _____ _____    ______ ____
ROOT
ATOM      1  C   UNL     1       2.800   6.424  19.433  0.00  0.00    +0.000 C 
ENDROOT
BRANCH   1   2
ATOM      2  C   UNL     1       1.801   6.038  20.517  0.00  0.00    +0.000 C 
BRANCH   2   3
ATOM      3  C   UNL     1       1.055   4.762  20.140  0.00  0.00    +0.000 C 
BRANCH   3   4
ATOM      4  C   UNL     1       1.971   3.546  20.256  0.00  0.00    +0.000 C 
BRANCH   4   5
ATOM      5  C   UNL     1       1.715   2.554  19.122  0.00  0.00    +0.000 C 
BRANCH   5   6
ATOM      6  S   UNL     1       3.316   1.889  18.553  0.00  0.00    +0.000 S 
BRANCH   6  11
ATOM      7 CL   UNL     1       6.813   6.962  17.173  0.00  0.00    +0.000 Cl
ATOM      8  C   UNL     1       5.837   5.590  17.531  0.00  0.00    +0.000 A 
ATOM      9  C   UNL     1       5.979   4.927  18.745  0.00  0.00    +0.000 A 
ATOM     10  C   UNL     1       5.186   3.810  19.017  0.00  0.00    +0.000 A 
ATOM     11  C   UNL     1       4.236   3.349  18.095  0.00  0.00    +0.000 A 
ATOM     12  C   UNL     1       4.107   4.024  16.874  0.00  0.00    +0.000 A 
ATOM     13  C   UNL     1       4.904   5.141  16.597  0.00  0.00    +0.000 A 
ENDBRANCH   6  11
ENDBRANCH   5   6
ENDBRANCH   4   5
ENDBRANCH   3   4
ENDBRANCH   2   3
ENDBRANCH   1   2
BRANCH   1  14
ATOM     14  C   UNL     1       2.077   6.971  18.207  0.00  0.00    +0.000 C 
BRANCH  14  15
ATOM     15  C   UNL     1       2.282   8.477  18.089  0.00  0.00    +0.000 C 
BRANCH  15  16
ATOM     16  C   UNL     1       1.017   9.230  18.489  0.00  0.00    +0.000 C 
BRANCH  16  17
ATOM     17  C   UNL     1       1.120   9.729  19.930  0.00  0.00    +0.000 C 
BRANCH  17  18
ATOM     18  C   UNL     1      -0.109  10.549  20.318  0.00  0.00    +0.000 C 
BRANCH  18  19
ATOM     19  S   UNL     1      -0.498  11.695  18.953  0.00  0.00    +0.000 S 
BRANCH  19  20
ATOM     20  C   UNL     1      -2.243  11.442  18.672  0.00  0.00    +0.000 A 
ATOM     21  C   UNL     1      -2.781  10.487  17.804  0.00  0.00    +0.000 A 
ATOM     22  C   UNL     1      -4.166  10.372  17.642  0.00  0.00    +0.000 A 
ATOM     23  C   UNL     1      -5.022  11.213  18.350  0.00  0.00    +0.000 A 
ATOM     24 CL   UNL     1      -6.724  11.074  18.139  0.00  0.00    +0.000 Cl
ATOM     25  C   UNL     1      -4.504  12.165  19.223  0.00  0.00    +0.000 A 
ATOM     26  C   UNL     1      -3.119  12.277  19.381  0.00  0.00    +0.000 A 
ENDBRANCH  19  20
ENDBRANCH  18  19
ENDBRANCH  17  18
ENDBRANCH  16  17
ENDBRANCH  15  16
ENDBRANCH  14  15
ENDBRANCH   1  14
TORSDOF 13
ENDMDL
MODEL 6
REMARK VINA RESULT:      -5.9      1.473      8.920
REMARK  Name = 
REMARK  13 active torsions:
REMARK  status: ('A' for Active; 'I' for Inactive)
REMARK    1  A    between atoms: C_5  and  S_6
REMARK    2  A    between atoms: S_6  and  C_7
REMARK    3  A    between atoms: C_7  and  C_8
REMARK    4  A    between atoms: C_8  and  C_9
REMARK    5  A    between atoms: C_9  and  C_10
REMARK    6  A    between atoms: C_10  and  C_11
REMARK    7  A    between atoms: C_11  and  C_12
REMARK    8  A    between atoms: C_12  and  C_13
REMARK    9  A    between atoms: C_13  and  C_14
REMARK   10  A    between atoms: C_14  and  C_15
REMARK   11  A    between atoms: C_15  and  C_16
REMARK   12  A    between atoms: C_16  and  S_17
REMARK   13  A    between atoms: S_17  and  C_18
REMARK                            x       y       z     vdW  Elec       q    Type
REMARK                         _______ _______ _______ _____ _____    ______ ____
ROOT
ATOM      1  C   UNL     1       2.853   7.306  18.185  0.00  0.00    +0.000 C 
ENDROOT
BRANCH   1   2
ATOM      2  C   UNL     1       1.955   6.076  18.241  0.00  0.00    +0.000 C 
BRANCH   2   3
ATOM      3  C   UNL     1       2.066   5.383  19.596  0.00  0.00    +0.000 C 
BRANCH   3   4
ATOM      4  C   UNL     1       1.641   3.920  19.490  0.00  0.00    +0.000 C 
BRANCH   4   5
ATOM      5  C   UNL     1       2.803   2.984  19.818  0.00  0.00    +0.000 C 
BRANCH   5   6
ATOM      6  S   UNL     1       3.651   2.537  18.266  0.00  0.00    +0.000 S 
BRANCH   6  11
ATOM      7 CL   UNL     1       7.624   7.381  17.481  0.00  0.00    +0.000 Cl
ATOM      8  C   UNL     1       6.524   6.071  17.671  0.00  0.00    +0.000 A 
ATOM      9  C   UNL     1       6.343   5.484  18.919  0.00  0.00    +0.000 A 
ATOM     10  C   UNL     1       5.454   4.416  19.055  0.00  0.00    +0.000 A 
ATOM     11  C   UNL     1       4.725   3.930  17.960  0.00  0.00    +0.000 A 
ATOM     12  C   UNL     1       4.920   4.528  16.709  0.00  0.00    +0.000 A 
ATOM     13  C   UNL     1       5.816   5.596  16.568  0.00  0.00    +0.000 A 
ENDBRANCH   6  11
ENDBRANCH   5   6
ENDBRANCH   4   5
ENDBRANCH   3   4
ENDBRANCH   2   3
ENDBRANCH   1   2
BRANCH   1  14
ATOM     14  C   UNL     1       2.043   8.574  18.431  0.00  0.00    +0.000 C 
BRANCH  14  15
ATOM     15  C   UNL     1       1.527   8.615  19.864  0.00  0.00    +0.000 C 
BRANCH  15  16
ATOM     16  C   UNL     1       0.793   9.924  20.139  0.00  0.00    +0.000 C 
BRANCH  16  17
ATOM     17  C   UNL     1       1.106  10.955  19.056  0.00  0.00    +0.000 C 
BRANCH  17  18
ATOM     18  C   UNL     1       0.079  12.086  19.059  0.00  0.00    +0.000 C 
BRANCH  18  19
ATOM     19  S   UNL     1      -1.551  11.391  19.493  0.00  0.00    +0.000 S 
BRANCH  19  20
ATOM     20  C   UNL     1      -2.239  10.911  17.918  0.00  0.00    +0.000 A 
ATOM     21  C   UNL     1      -1.727   9.901  17.097  0.00  0.00    +0.000 A 
ATOM     22  C   UNL     1      -2.332   9.605  15.870  0.00  0.00    +0.000 A 
ATOM     23  C   UNL     1      -3.455  10.319  15.458  0.00  0.00    +0.000 A 
ATOM     24 CL   UNL     1      -4.188   9.956  13.943  0.00  0.00    +0.000 Cl
ATOM     25  C   UNL     1      -3.982  11.322  16.265  0.00  0.00    +0.000 A 
ATOM     26  C   UNL     1      -3.374  11.615  17.489  0.00  0.00    +0.000 A 
ENDBRANCH  19  20
ENDBRANCH  18  19
ENDBRANCH  17  18
ENDBRANCH  16  17
ENDBRANCH  15  16
ENDBRANCH  14  15
ENDBRANCH   1  14
TORSDOF 13
ENDMDL
MODEL 7
REMARK VINA RESULT:      -5.8      2.312      2.912
REMARK  Name = 
REMARK  13 active torsions:
REMARK  status: ('A' for Active; 'I' for Inactive)
REMARK    1  A    between atoms: C_5  and  S_6
REMARK    2  A    between atoms: S_6  and  C_7
REMARK    3  A    between atoms: C_7  and  C_8
REMARK    4  A    between atoms: C_8  and  C_9
REMARK    5  A    between atoms: C_9  and  C_10
REMARK    6  A    between atoms: C_10  and  C_11
REMARK    7  A    between atoms: C_11  and  C_12
REMARK    8  A    between atoms: C_12  and  C_13
REMARK    9  A    between atoms: C_13  and  C_14
REMARK   10  A    between atoms: C_14  and  C_15
REMARK   11  A    between atoms: C_15  and  C_16
REMARK   12  A    between atoms: C_16  and  S_17
REMARK   13  A    between atoms: S_17  and  C_18
REMARK                            x       y       z     vdW  Elec       q    Type
REMARK                         _______ _______ _______ _____ _____    ______ ____
ROOT
ATOM      1  C   UNL     1       2.101   6.100  19.061  0.00  0.00    +0.000 C 
ENDROOT
BRANCH   1   2
ATOM      2  C   UNL     1       2.617   7.534  19.098  0.00  0.00    +0.000 C 
BRANCH   2   3
ATOM      3  C   UNL     1       2.457   8.204  17.737  0.00  0.00    +0.000 C 
BRANCH   3   4
ATOM      4  C   UNL     1       1.751   9.550  17.877  0.00  0.00    +0.000 C 
BRANCH   4   5
ATOM      5  C   UNL     1       1.012   9.647  19.211  0.00  0.00    +0.000 C 
BRANCH   5   6
ATOM      6  S   UNL     1      -0.589  10.477  18.935  0.00  0.00    +0.000 S 
BRANCH   6  11
ATOM      7 CL   UNL     1       0.858  16.423  20.492  0.00  0.00    +0.000 Cl
ATOM      8  C   UNL     1       0.442  14.813  20.048  0.00  0.00    +0.000 A 
ATOM      9  C   UNL     1       0.635  13.767  20.944  0.00  0.00    +0.000 A 
ATOM     10  C   UNL     1       0.301  12.465  20.566  0.00  0.00    +0.000 A 
ATOM     11  C   UNL     1      -0.241  12.189  19.303  0.00  0.00    +0.000 A 
ATOM     12  C   UNL     1      -0.427  13.252  18.409  0.00  0.00    +0.000 A 
ATOM     13  C   UNL     1      -0.088  14.558  18.783  0.00  0.00    +0.000 A 
ENDBRANCH   6  11
ENDBRANCH   5   6
ENDBRANCH   4   5
ENDBRANCH   3   4
ENDBRANCH   2   3
ENDBRANCH   1   2
BRANCH   1  14
ATOM     14  C   UNL     1       2.100   5.493  20.460  0.00  0.00    +0.000 C 
BRANCH  14  15
ATOM     15  C   UNL     1       1.094   4.352  20.551  0.00  0.00    +0.000 C 
BRANCH  15  16
ATOM     16  C   UNL     1       0.856   3.728  19.179  0.00  0.00    +0.000 C 
BRANCH  16  17
ATOM     17  C   UNL     1       1.197   2.239  19.197  0.00  0.00    +0.000 C 
BRANCH  17  18
ATOM     18  C   UNL     1       2.649   2.010  19.608  0.00  0.00    +0.000 C 
BRANCH  18  19
ATOM     19  S   UNL     1       3.650   1.769  18.102  0.00  0.00    +0.000 S 
BRANCH  19  20
ATOM     20  C   UNL     1       4.389   3.370  17.825  0.00  0.00    +0.000 A 
ATOM     21  C   UNL     1       4.317   4.086  16.626  0.00  0.00    +0.000 A 
ATOM     22  C   UNL     1       4.941   5.333  16.502  0.00  0.00    +0.000 A 
ATOM     23  C   UNL     1       5.641   5.871  17.580  0.00  0.00    +0.000 A 
ATOM     24 CL   UNL     1       6.415   7.400  17.418  0.00  0.00    +0.000 Cl
ATOM     25  C   UNL     1       5.717   5.175  18.783  0.00  0.00    +0.000 A 
ATOM     26  C   UNL     1       5.093   3.930  18.902  0.00  0.00    +0.000 A 
ENDBRANCH  19  20
ENDBRANCH  18  19
ENDBRANCH  17  18
ENDBRANCH  16  17
ENDBRANCH  15  16
ENDBRANCH  14  15
ENDBRANCH   1  14
TORSDOF 13
ENDMDL
MODEL 8
REMARK VINA RESULT:      -5.8      2.102      8.821
REMARK  Name = 
REMARK  13 active torsions:
REMARK  status: ('A' for Active; 'I' for Inactive)
REMARK    1  A    between atoms: C_5  and  S_6
REMARK    2  A    between atoms: S_6  and  C_7
REMARK    3  A    between atoms: C_7  and  C_8
REMARK    4  A    between atoms: C_8  and  C_9
REMARK    5  A    between atoms: C_9  and  C_10
REMARK    6  A    between atoms: C_10  and  C_11
REMARK    7  A    between atoms: C_11  and  C_12
REMARK    8  A    between atoms: C_12  and  C_13
REMARK    9  A    between atoms: C_13  and  C_14
REMARK   10  A    between atoms: C_14  and  C_15
REMARK   11  A    between atoms: C_15  and  C_16
REMARK   12  A    between atoms: C_16  and  S_17
REMARK   13  A    between atoms: S_17  and  C_18
REMARK                            x       y       z     vdW  Elec       q    Type
REMARK                         _______ _______ _______ _____ _____    ______ ____
ROOT
ATOM      1  C   UNL     1       1.479   5.593  20.479  0.00  0.00    +0.000 C 
ENDROOT
BRANCH   1   2
ATOM      2  C   UNL     1       2.155   4.473  21.261  0.00  0.00    +0.000 C 
BRANCH   2   3
ATOM      3  C   UNL     1       1.321   3.196  21.212  0.00  0.00    +0.000 C 
BRANCH   3   4
ATOM      4  C   UNL     1       2.020   2.126  20.377  0.00  0.00    +0.000 C 
BRANCH   4   5
ATOM      5  C   UNL     1       1.839   2.389  18.883  0.00  0.00    +0.000 C 
BRANCH   5   6
ATOM      6  S   UNL     1       3.355   1.873  18.010  0.00  0.00    +0.000 S 
BRANCH   6  11
ATOM      7 CL   UNL     1       6.757   7.169  17.511  0.00  0.00    +0.000 Cl
ATOM      8  C   UNL     1       5.810   5.737  17.627  0.00  0.00    +0.000 A 
ATOM      9  C   UNL     1       5.846   4.964  18.783  0.00  0.00    +0.000 A 
ATOM     10  C   UNL     1       5.078   3.800  18.858  0.00  0.00    +0.000 A 
ATOM     11  C   UNL     1       4.256   3.400  17.796  0.00  0.00    +0.000 A 
ATOM     12  C   UNL     1       4.231   4.186  16.637  0.00  0.00    +0.000 A 
ATOM     13  C   UNL     1       5.004   5.350  16.556  0.00  0.00    +0.000 A 
ENDBRANCH   6  11
ENDBRANCH   5   6
ENDBRANCH   4   5
ENDBRANCH   3   4
ENDBRANCH   2   3
ENDBRANCH   1   2
BRANCH   1  14
ATOM     14  C   UNL     1       2.448   6.210  19.477  0.00  0.00    +0.000 C 
BRANCH  14  15
ATOM     15  C   UNL     1       2.240   7.717  19.384  0.00  0.00    +0.000 C 
BRANCH  15  16
ATOM     16  C   UNL     1       2.118   8.159  17.929  0.00  0.00    +0.000 C 
BRANCH  16  17
ATOM     17  C   UNL     1       1.588   9.589  17.842  0.00  0.00    +0.000 C 
BRANCH  17  18
ATOM     18  C   UNL     1       0.739   9.938  19.063  0.00  0.00    +0.000 C 
BRANCH  18  19
ATOM     19  S   UNL     1      -0.875  10.563  18.489  0.00  0.00    +0.000 S 
BRANCH  19  20
ATOM     20  C   UNL     1      -0.920  12.241  19.097  0.00  0.00    +0.000 A 
ATOM     21  C   UNL     1      -1.654  12.668  20.208  0.00  0.00    +0.000 A 
ATOM     22  C   UNL     1      -1.634  14.011  20.602  0.00  0.00    +0.000 A 
ATOM     23  C   UNL     1      -0.878  14.935  19.884  0.00  0.00    +0.000 A 
ATOM     24 CL   UNL     1      -0.865  16.587  20.367  0.00  0.00    +0.000 Cl
ATOM     25  C   UNL     1      -0.136  14.527  18.780  0.00  0.00    +0.000 A 
ATOM     26  C   UNL     1      -0.159  13.184  18.390  0.00  0.00    +0.000 A 
ENDBRANCH  19  20
ENDBRANCH  18  19
ENDBRANCH  17  18
ENDBRANCH  16  17
ENDBRANCH  15  16
ENDBRANCH  14  15
ENDBRANCH   1  14
TORSDOF 13
ENDMDL
MODEL 9
REMARK VINA RESULT:      -5.8      2.155      9.022
REMARK  Name = 
REMARK  13 active torsions:
REMARK  status: ('A' for Active; 'I' for Inactive)
REMARK    1  A    between atoms: C_5  and  S_6
REMARK    2  A    between atoms: S_6  and  C_7
REMARK    3  A    between atoms: C_7  and  C_8
REMARK    4  A    between atoms: C_8  and  C_9
REMARK    5  A    between atoms: C_9  and  C_10
REMARK    6  A    between atoms: C_10  and  C_11
REMARK    7  A    between atoms: C_11  and  C_12
REMARK    8  A    between atoms: C_12  and  C_13
REMARK    9  A    between atoms: C_13  and  C_14
REMARK   10  A    between atoms: C_14  and  C_15
REMARK   11  A    between atoms: C_15  and  C_16
REMARK   12  A    between atoms: C_16  and  S_17
REMARK   13  A    between atoms: S_17  and  C_18
REMARK                            x       y       z     vdW  Elec       q    Type
REMARK                         _______ _______ _______ _____ _____    ______ ____
ROOT
ATOM      1  C   UNL     1       2.827   6.299  19.880  0.00  0.00    +0.000 C 
ENDROOT
BRANCH   1   2
ATOM      2  C   UNL     1       2.101   5.132  20.540  0.00  0.00    +0.000 C 
BRANCH   2   3
ATOM      3  C   UNL     1       1.190   4.425  19.542  0.00  0.00    +0.000 C 
BRANCH   3   4
ATOM      4  C   UNL     1       1.229   2.914  19.752  0.00  0.00    +0.000 C 
BRANCH   4   5
ATOM      5  C   UNL     1       2.660   2.426  19.975  0.00  0.00    +0.000 C 
BRANCH   5   6
ATOM      6  S   UNL     1       3.436   2.127  18.351  0.00  0.00    +0.000 S 
BRANCH   6  11
ATOM      7 CL   UNL     1       6.810   7.348  17.245  0.00  0.00    +0.000 Cl
ATOM      8  C   UNL     1       5.914   5.915  17.564  0.00  0.00    +0.000 A 
ATOM      9  C   UNL     1       4.969   5.460  16.649  0.00  0.00    +0.000 A 
ATOM     10  C   UNL     1       4.244   4.300  16.927  0.00  0.00    +0.000 A 
ATOM     11  C   UNL     1       4.457   3.571  18.105  0.00  0.00    +0.000 A 
ATOM     12  C   UNL     1       5.409   4.041  19.019  0.00  0.00    +0.000 A 
ATOM     13  C   UNL     1       6.134   5.208  18.746  0.00  0.00    +0.000 A 
ENDBRANCH   6  11
ENDBRANCH   5   6
ENDBRANCH   4   5
ENDBRANCH   3   4
ENDBRANCH   2   3
ENDBRANCH   1   2
BRANCH   1  14
ATOM     14  C   UNL     1       2.013   6.847  18.713  0.00  0.00    +0.000 C 
BRANCH  14  15
ATOM     15  C   UNL     1       2.680   8.085  18.126  0.00  0.00    +0.000 C 
BRANCH  15  16
ATOM     16  C   UNL     1       1.638   9.038  17.548  0.00  0.00    +0.000 C 
BRANCH  16  17
ATOM     17  C   UNL     1       0.615   9.430  18.612  0.00  0.00    +0.000 C 
BRANCH  17  18
ATOM     18  C   UNL     1       1.236  10.345  19.665  0.00  0.00    +0.000 C 
BRANCH  18  19
ATOM     19  S   UNL     1       0.544  12.021  19.460  0.00  0.00    +0.000 S 
BRANCH  19  20
ATOM     20  C   UNL     1      -0.675  12.137  20.759  0.00  0.00    +0.000 A 
ATOM     21  C   UNL     1      -0.417  11.926  22.116  0.00  0.00    +0.000 A 
ATOM     22  C   UNL     1      -1.445  12.029  23.061  0.00  0.00    +0.000 A 
ATOM     23  C   UNL     1      -2.738  12.346  22.650  0.00  0.00    +0.000 A 
ATOM     24 CL   UNL     1      -4.000  12.461  23.816  0.00  0.00    +0.000 Cl
ATOM     25  C   UNL     1      -3.011  12.566  21.304  0.00  0.00    +0.000 A 
ATOM     26  C   UNL     1      -1.982  12.461  20.364  0.00  0.00    +0.000 A 
ENDBRANCH  19  20
ENDBRANCH  18  19
ENDBRANCH  17  18
ENDBRANCH  16  17
ENDBRANCH  15  16
ENDBRANCH  14  15
ENDBRANCH   1  14
TORSDOF 13
ENDMDL
