MODEL 1
REMARK VINA RESULT:      -7.8      0.000      0.000
REMARK  Name = 
REMARK  2 active torsions:
REMARK  status: ('A' for Active; 'I' for Inactive)
REMARK    1  A    between atoms: C_1  and  C_2
REMARK    2  A    between atoms: C_15  and  O_16
REMARK                            x       y       z     vdW  Elec       q    Type
REMARK                         _______ _______ _______ _____ _____    ______ ____
ROOT
ATOM      1  C   UNL     1       5.188   7.711  17.376  0.00  0.00    +0.000 C 
ATOM      2  C   UNL     1       5.426   6.221  17.128  0.00  0.00    +0.000 C 
ATOM      3  C   UNL     1       5.173   5.362  15.845  0.00  0.00    +0.000 C 
ATOM      4  C   UNL     1       4.711   3.763  16.226  0.00  0.00    +0.000 C 
ATOM      5  C   UNL     1       3.507   3.501  17.314  0.00  0.00    +0.000 C 
ATOM      6  C   UNL     1       3.145   4.928  17.400  0.00  0.00    +0.000 C 
ATOM      7  C   UNL     1       1.573   4.903  17.471  0.00  0.00    +0.000 C 
ATOM      8  C   UNL     1       0.797   3.636  17.916  0.00  0.00    +0.000 C 
ATOM      9  C   UNL     1       1.543   2.880  19.017  0.00  0.00    +0.000 C 
ATOM     10  C   UNL     1       0.862   2.535  20.151  0.00  0.00    +0.000 C 
ATOM     11  C   UNL     1       1.544   2.746  21.417  0.00  0.00    +0.000 C 
ATOM     12  O   UNL     1       1.077   2.297  22.459  0.00  0.00    +0.000 OA
ATOM     13  C   UNL     1       2.814   3.566  21.392  0.00  0.00    +0.000 C 
ATOM     14  C   UNL     1       4.034   2.680  21.204  0.00  0.00    +0.000 C 
ATOM     15  C   UNL     1       3.808   2.049  19.817  0.00  0.00    +0.000 C 
ATOM     16  C   UNL     1       3.087   3.167  18.984  0.00  0.00    +0.000 C 
ATOM     17  C   UNL     1       2.908   4.335  20.087  0.00  0.00    +0.000 C 
ATOM     18  C   UNL     1       4.608   5.487  18.189  0.00  0.00    +0.000 C 
ATOM     19  C   UNL     1       5.805   4.494  18.722  0.00  0.00    +0.000 C 
ATOM     20  C   UNL     1       7.147   4.677  17.988  0.00  0.00    +0.000 C 
ATOM     21  C   UNL     1       6.924   5.980  17.374  0.00  0.00    +0.000 C 
ATOM     22  O   UNL     1       7.815   6.712  16.954  0.00  0.00    +0.000 OA
ENDROOT
BRANCH  15  23
ATOM     23  O   UNL     1       5.012   1.529  19.276  0.00  0.00    +0.000 OA
ATOM     24  H   UNL     1       4.759   0.805  18.692  0.00  0.00    +0.000 HD
ENDBRANCH  15  23
TORSDOF 1
ENDMDL
MODEL 2
REMARK VINA RESULT:      -7.6      1.501      2.170
REMARK  Name = 
REMARK  2 active torsions:
REMARK  status: ('A' for Active; 'I' for Inactive)
REMARK    1  A    between atoms: C_1  and  C_2
REMARK    2  A    between atoms: C_15  and  O_16
REMARK                            x       y       z     vdW  Elec       q    Type
REMARK                         _______ _______ _______ _____ _____    ______ ____
ROOT
ATOM      1  C   UNL     1       7.409   6.481  17.837  0.00  0.00    +0.000 C 
ATOM      2  C   UNL     1       6.191   6.014  17.038  0.00  0.00    +0.000 C 
ATOM      3  C   UNL     1       5.122   6.846  16.256  0.00  0.00    +0.000 C 
ATOM      4  C   UNL     1       3.579   6.117  16.308  0.00  0.00    +0.000 C 
ATOM      5  C   UNL     1       2.957   5.630  17.748  0.00  0.00    +0.000 C 
ATOM      6  C   UNL     1       4.035   6.258  18.535  0.00  0.00    +0.000 C 
ATOM      7  C   UNL     1       3.281   6.854  19.781  0.00  0.00    +0.000 C 
ATOM      8  C   UNL     1       1.887   6.330  20.217  0.00  0.00    +0.000 C 
ATOM      9  C   UNL     1       1.762   4.822  19.999  0.00  0.00    +0.000 C 
ATOM     10  C   UNL     1       1.322   4.045  21.035  0.00  0.00    +0.000 C 
ATOM     11  C   UNL     1       2.031   2.797  21.267  0.00  0.00    +0.000 C 
ATOM     12  O   UNL     1       1.588   1.966  22.053  0.00  0.00    +0.000 OA
ATOM     13  C   UNL     1       3.338   2.595  20.534  0.00  0.00    +0.000 C 
ATOM     14  C   UNL     1       3.118   1.896  19.204  0.00  0.00    +0.000 C 
ATOM     15  C   UNL     1       2.243   2.890  18.417  0.00  0.00    +0.000 C 
ATOM     16  C   UNL     1       2.736   4.307  18.879  0.00  0.00    +0.000 C 
ATOM     17  C   UNL     1       3.840   3.923  19.996  0.00  0.00    +0.000 C 
ATOM     18  C   UNL     1       5.339   5.207  18.014  0.00  0.00    +0.000 C 
ATOM     19  C   UNL     1       5.130   3.883  17.061  0.00  0.00    +0.000 C 
ATOM     20  C   UNL     1       5.806   3.990  15.681  0.00  0.00    +0.000 C 
ATOM     21  C   UNL     1       6.731   5.087  15.937  0.00  0.00    +0.000 C 
ATOM     22  O   UNL     1       7.720   5.337  15.253  0.00  0.00    +0.000 OA
ENDROOT
BRANCH  15  23
ATOM     23  O   UNL     1       2.275   2.628  17.024  0.00  0.00    +0.000 OA
ATOM     24  H   UNL     1       1.785   3.341  16.600  0.00  0.00    +0.000 HD
ENDBRANCH  15  23
TORSDOF 1
ENDMDL
MODEL 3
REMARK VINA RESULT:      -6.9      1.519      5.652
REMARK  Name = 
REMARK  2 active torsions:
REMARK  status: ('A' for Active; 'I' for Inactive)
REMARK    1  A    between atoms: C_1  and  C_2
REMARK    2  A    between atoms: C_15  and  O_16
REMARK                            x       y       z     vdW  Elec       q    Type
REMARK                         _______ _______ _______ _____ _____    ______ ____
ROOT
ATOM      1  C   UNL     1       0.310   2.860  19.258  0.00  0.00    +0.000 C 
ATOM      2  C   UNL     1       1.416   3.582  20.029  0.00  0.00    +0.000 C 
ATOM      3  C   UNL     1       1.354   4.882  20.898  0.00  0.00    +0.000 C 
ATOM      4  C   UNL     1       2.799   5.786  20.802  0.00  0.00    +0.000 C 
ATOM      5  C   UNL     1       3.447   6.132  19.332  0.00  0.00    +0.000 C 
ATOM      6  C   UNL     1       2.282   5.614  18.591  0.00  0.00    +0.000 C 
ATOM      7  C   UNL     1       2.108   6.644  17.414  0.00  0.00    +0.000 C 
ATOM      8  C   UNL     1       3.274   7.558  16.952  0.00  0.00    +0.000 C 
ATOM      9  C   UNL     1       4.619   6.835  17.035  0.00  0.00    +0.000 C 
ATOM     10  C   UNL     1       5.438   6.848  15.940  0.00  0.00    +0.000 C 
ATOM     11  C   UNL     1       6.081   5.593  15.586  0.00  0.00    +0.000 C 
ATOM     12  O   UNL     1       6.963   5.563  14.734  0.00  0.00    +0.000 OA
ATOM     13  C   UNL     1       5.589   4.342  16.279  0.00  0.00    +0.000 C 
ATOM     14  C   UNL     1       6.384   4.069  17.544  0.00  0.00    +0.000 C 
ATOM     15  C   UNL     1       6.082   5.292  18.429  0.00  0.00    +0.000 C 
ATOM     16  C   UNL     1       4.596   5.672  18.090  0.00  0.00    +0.000 C 
ATOM     17  C   UNL     1       4.242   4.605  16.928  0.00  0.00    +0.000 C 
ATOM     18  C   UNL     1       2.489   3.920  18.996  0.00  0.00    +0.000 C 
ATOM     19  C   UNL     1       3.775   3.323  19.829  0.00  0.00    +0.000 C 
ATOM     20  C   UNL     1       3.411   2.730  21.204  0.00  0.00    +0.000 C 
ATOM     21  C   UNL     1       1.973   2.561  21.035  0.00  0.00    +0.000 C 
ATOM     22  O   UNL     1       1.274   1.825  21.724  0.00  0.00    +0.000 OA
ENDROOT
BRANCH  15  23
ATOM     23  O   UNL     1       6.378   5.039  19.793  0.00  0.00    +0.000 OA
ATOM     24  H   UNL     1       5.652   5.413  20.304  0.00  0.00    +0.000 HD
ENDBRANCH  15  23
TORSDOF 1
ENDMDL
MODEL 4
REMARK VINA RESULT:      -6.5      1.419      5.774
REMARK  Name = 
REMARK  2 active torsions:
REMARK  status: ('A' for Active; 'I' for Inactive)
REMARK    1  A    between atoms: C_1  and  C_2
REMARK    2  A    between atoms: C_15  and  O_16
REMARK                            x       y       z     vdW  Elec       q    Type
REMARK                         _______ _______ _______ _____ _____    ______ ____
ROOT
ATOM      1  C   UNL     1       3.490   1.657  21.130  0.00  0.00    +0.000 C 
ATOM      2  C   UNL     1       2.684   2.649  20.290  0.00  0.00    +0.000 C 
ATOM      3  C   UNL     1       1.628   2.390  19.166  0.00  0.00    +0.000 C 
ATOM      4  C   UNL     1       1.669   3.597  17.958  0.00  0.00    +0.000 C 
ATOM      5  C   UNL     1       3.104   4.024  17.282  0.00  0.00    +0.000 C 
ATOM      6  C   UNL     1       3.847   2.934  17.942  0.00  0.00    +0.000 C 
ATOM      7  C   UNL     1       4.844   2.442  16.828  0.00  0.00    +0.000 C 
ATOM      8  C   UNL     1       5.229   3.343  15.624  0.00  0.00    +0.000 C 
ATOM      9  C   UNL     1       5.333   4.812  16.034  0.00  0.00    +0.000 C 
ATOM     10  C   UNL     1       6.458   5.509  15.693  0.00  0.00    +0.000 C 
ATOM     11  C   UNL     1       7.033   6.370  16.714  0.00  0.00    +0.000 C 
ATOM     12  O   UNL     1       7.928   7.159  16.432  0.00  0.00    +0.000 OA
ATOM     13  C   UNL     1       6.509   6.218  18.124  0.00  0.00    +0.000 C 
ATOM     14  C   UNL     1       5.347   7.161  18.381  0.00  0.00    +0.000 C 
ATOM     15  C   UNL     1       4.272   6.686  17.386  0.00  0.00    +0.000 C 
ATOM     16  C   UNL     1       4.465   5.130  17.304  0.00  0.00    +0.000 C 
ATOM     17  C   UNL     1       5.752   4.908  18.257  0.00  0.00    +0.000 C 
ATOM     18  C   UNL     1       3.714   3.530  19.586  0.00  0.00    +0.000 C 
ATOM     19  C   UNL     1       3.055   4.982  19.988  0.00  0.00    +0.000 C 
ATOM     20  C   UNL     1       1.767   4.876  20.827  0.00  0.00    +0.000 C 
ATOM     21  C   UNL     1       1.877   3.497  21.287  0.00  0.00    +0.000 C 
ATOM     22  O   UNL     1       1.267   3.034  22.246  0.00  0.00    +0.000 OA
ENDROOT
BRANCH  15  23
ATOM     23  O   UNL     1       2.981   7.149  17.748  0.00  0.00    +0.000 OA
ATOM     24  H   UNL     1       2.525   7.358  16.924  0.00  0.00    +0.000 HD
ENDBRANCH  15  23
TORSDOF 1
ENDMDL
MODEL 5
REMARK VINA RESULT:      -6.2      1.664      5.916
REMARK  Name = 
REMARK  2 active torsions:
REMARK  status: ('A' for Active; 'I' for Inactive)
REMARK    1  A    between atoms: C_1  and  C_2
REMARK    2  A    between atoms: C_15  and  O_16
REMARK                            x       y       z     vdW  Elec       q    Type
REMARK                         _______ _______ _______ _____ _____    ______ ____
ROOT
ATOM      1  C   UNL     1       1.937   6.248  20.148  0.00  0.00    +0.000 C 
ATOM      2  C   UNL     1       2.487   4.851  19.857  0.00  0.00    +0.000 C 
ATOM      3  C   UNL     1       3.286   3.872  20.778  0.00  0.00    +0.000 C 
ATOM      4  C   UNL     1       4.415   2.941  19.898  0.00  0.00    +0.000 C 
ATOM      5  C   UNL     1       5.444   3.683  18.855  0.00  0.00    +0.000 C 
ATOM      6  C   UNL     1       5.053   5.039  19.283  0.00  0.00    +0.000 C 
ATOM      7  C   UNL     1       6.415   5.827  19.296  0.00  0.00    +0.000 C 
ATOM      8  C   UNL     1       7.646   5.340  18.486  0.00  0.00    +0.000 C 
ATOM      9  C   UNL     1       7.229   4.717  17.154  0.00  0.00    +0.000 C 
ATOM     10  C   UNL     1       7.842   5.146  16.010  0.00  0.00    +0.000 C 
ATOM     11  C   UNL     1       6.989   5.385  14.857  0.00  0.00    +0.000 C 
ATOM     12  O   UNL     1       7.478   5.595  13.753  0.00  0.00    +0.000 OA
ATOM     13  C   UNL     1       5.495   5.401  15.092  0.00  0.00    +0.000 C 
ATOM     14  C   UNL     1       4.895   4.020  14.896  0.00  0.00    +0.000 C 
ATOM     15  C   UNL     1       5.573   3.176  15.992  0.00  0.00    +0.000 C 
ATOM     16  C   UNL     1       5.758   4.165  17.198  0.00  0.00    +0.000 C 
ATOM     17  C   UNL     1       5.206   5.551  16.575  0.00  0.00    +0.000 C 
ATOM     18  C   UNL     1       3.416   5.013  18.655  0.00  0.00    +0.000 C 
ATOM     19  C   UNL     1       2.797   3.790  17.748  0.00  0.00    +0.000 C 
ATOM     20  C   UNL     1       1.640   3.029  18.425  0.00  0.00    +0.000 C 
ATOM     21  C   UNL     1       1.277   3.989  19.460  0.00  0.00    +0.000 C 
ATOM     22  O   UNL     1       0.204   3.996  20.055  0.00  0.00    +0.000 OA
ENDROOT
BRANCH  15  23
ATOM     23  O   UNL     1       4.853   1.982  16.255  0.00  0.00    +0.000 OA
ATOM     24  H   UNL     1       5.218   1.309  15.668  0.00  0.00    +0.000 HD
ENDBRANCH  15  23
TORSDOF 1
ENDMDL
MODEL 6
REMARK VINA RESULT:      -6.1      9.063     11.194
REMARK  Name = 
REMARK  2 active torsions:
REMARK  status: ('A' for Active; 'I' for Inactive)
REMARK    1  A    between atoms: C_1  and  C_2
REMARK    2  A    between atoms: C_15  and  O_16
REMARK                            x       y       z     vdW  Elec       q    Type
REMARK                         _______ _______ _______ _____ _____    ______ ____
ROOT
ATOM      1  C   UNL     1      -4.506  14.562  21.111  0.00  0.00    +0.000 C 
ATOM      2  C   UNL     1      -3.366  14.149  22.043  0.00  0.00    +0.000 C 
ATOM      3  C   UNL     1      -2.311  15.029  22.793  0.00  0.00    +0.000 C 
ATOM      4  C   UNL     1      -0.804  14.239  22.935  0.00  0.00    +0.000 C 
ATOM      5  C   UNL     1      -0.113  13.557  21.609  0.00  0.00    +0.000 C 
ATOM      6  C   UNL     1      -1.109  14.125  20.681  0.00  0.00    +0.000 C 
ATOM      7  C   UNL     1      -0.249  14.535  19.428  0.00  0.00    +0.000 C 
ATOM      8  C   UNL     1       1.144  13.909  19.155  0.00  0.00    +0.000 C 
ATOM      9  C   UNL     1       1.184  12.435  19.559  0.00  0.00    +0.000 C 
ATOM     10  C   UNL     1       1.653  11.521  18.656  0.00  0.00    +0.000 C 
ATOM     11  C   UNL     1       0.903  10.282  18.526  0.00  0.00    +0.000 C 
ATOM     12  O   UNL     1       1.356   9.346  17.876  0.00  0.00    +0.000 OA
ATOM     13  C   UNL     1      -0.457  10.222  19.184  0.00  0.00    +0.000 C 
ATOM     14  C   UNL     1      -0.355   9.683  20.600  0.00  0.00    +0.000 C 
ATOM     15  C   UNL     1       0.513  10.730  21.322  0.00  0.00    +0.000 C 
ATOM     16  C   UNL     1       0.117  12.099  20.662  0.00  0.00    +0.000 C 
ATOM     17  C   UNL     1      -0.929  11.624  19.525  0.00  0.00    +0.000 C 
ATOM     18  C   UNL     1      -2.491  13.196  21.231  0.00  0.00    +0.000 C 
ATOM     19  C   UNL     1      -2.405  11.992  22.347  0.00  0.00    +0.000 C 
ATOM     20  C   UNL     1      -3.164  12.292  23.655  0.00  0.00    +0.000 C 
ATOM     21  C   UNL     1      -4.018  13.385  23.206  0.00  0.00    +0.000 C 
ATOM     22  O   UNL     1      -5.035  13.754  23.785  0.00  0.00    +0.000 OA
ENDROOT
BRANCH  15  23
ATOM     23  O   UNL     1       0.379  10.641  22.731  0.00  0.00    +0.000 OA
ATOM     24  H   UNL     1       0.665   9.754  22.978  0.00  0.00    +0.000 HD
ENDBRANCH  15  23
TORSDOF 1
ENDMDL
MODEL 7
REMARK VINA RESULT:      -5.9     10.009     12.668
REMARK  Name = 
REMARK  2 active torsions:
REMARK  status: ('A' for Active; 'I' for Inactive)
REMARK    1  A    between atoms: C_1  and  C_2
REMARK    2  A    between atoms: C_15  and  O_16
REMARK                            x       y       z     vdW  Elec       q    Type
REMARK                         _______ _______ _______ _____ _____    ______ ____
ROOT
ATOM      1  C   UNL     1       5.669  15.002  21.593  0.00  0.00    +0.000 C 
ATOM      2  C   UNL     1       6.958  14.436  22.188  0.00  0.00    +0.000 C 
ATOM      3  C   UNL     1       7.937  15.054  23.240  0.00  0.00    +0.000 C 
ATOM      4  C   UNL     1       9.558  14.599  22.954  0.00  0.00    +0.000 C 
ATOM      5  C   UNL     1      10.193  14.757  21.447  0.00  0.00    +0.000 C 
ATOM      6  C   UNL     1       9.021  15.485  20.926  0.00  0.00    +0.000 C 
ATOM      7  C   UNL     1       9.656  16.588  19.999  0.00  0.00    +0.000 C 
ATOM      8  C   UNL     1      11.091  16.444  19.428  0.00  0.00    +0.000 C 
ATOM      9  C   UNL     1      11.413  14.990  19.079  0.00  0.00    +0.000 C 
ATOM     10  C   UNL     1      11.916  14.710  17.839  0.00  0.00    +0.000 C 
ATOM     11  C   UNL     1      11.364  13.553  17.152  0.00  0.00    +0.000 C 
ATOM     12  O   UNL     1      11.885  13.133  16.125  0.00  0.00    +0.000 OA
ATOM     13  C   UNL     1      10.115  12.932  17.735  0.00  0.00    +0.000 C 
ATOM     14  C   UNL     1      10.462  11.829  18.720  0.00  0.00    +0.000 C 
ATOM     15  C   UNL     1      11.228  12.569  19.833  0.00  0.00    +0.000 C 
ATOM     16  C   UNL     1      10.545  13.981  19.914  0.00  0.00    +0.000 C 
ATOM     17  C   UNL     1       9.466  13.894  18.714  0.00  0.00    +0.000 C 
ATOM     18  C   UNL     1       7.877  14.158  21.000  0.00  0.00    +0.000 C 
ATOM     19  C   UNL     1       8.280  12.617  21.404  0.00  0.00    +0.000 C 
ATOM     20  C   UNL     1       7.636  12.123  22.715  0.00  0.00    +0.000 C 
ATOM     21  C   UNL     1       6.573  13.109  22.862  0.00  0.00    +0.000 C 
ATOM     22  O   UNL     1       5.582  12.962  23.571  0.00  0.00    +0.000 OA
ENDROOT
BRANCH  15  23
ATOM     23  O   UNL     1      11.270  11.813  21.032  0.00  0.00    +0.000 OA
ATOM     24  H   UNL     1      12.132  11.979  21.429  0.00  0.00    +0.000 HD
ENDBRANCH  15  23
TORSDOF 1
ENDMDL
MODEL 8
REMARK VINA RESULT:      -5.8      9.084     10.828
REMARK  Name = 
REMARK  2 active torsions:
REMARK  status: ('A' for Active; 'I' for Inactive)
REMARK    1  A    between atoms: C_1  and  C_2
REMARK    2  A    between atoms: C_15  and  O_16
REMARK                            x       y       z     vdW  Elec       q    Type
REMARK                         _______ _______ _______ _____ _____    ______ ____
ROOT
ATOM      1  C   UNL     1      -4.704  12.764  22.845  0.00  0.00    +0.000 C 
ATOM      2  C   UNL     1      -3.462  13.561  22.445  0.00  0.00    +0.000 C 
ATOM      3  C   UNL     1      -3.311  14.756  21.446  0.00  0.00    +0.000 C 
ATOM      4  C   UNL     1      -1.803  14.736  20.645  0.00  0.00    +0.000 C 
ATOM      5  C   UNL     1      -1.279  13.350  19.934  0.00  0.00    +0.000 C 
ATOM      6  C   UNL     1      -2.557  12.645  20.144  0.00  0.00    +0.000 C 
ATOM      7  C   UNL     1      -2.750  11.831  18.812  0.00  0.00    +0.000 C 
ATOM      8  C   UNL     1      -1.556  11.499  17.879  0.00  0.00    +0.000 C 
ATOM      9  C   UNL     1      -0.284  11.210  18.678  0.00  0.00    +0.000 C 
ATOM     10  C   UNL     1       0.416  10.068  18.404  0.00  0.00    +0.000 C 
ATOM     11  C   UNL     1       0.898   9.304  19.543  0.00  0.00    +0.000 C 
ATOM     12  O   UNL     1       1.682   8.375  19.383  0.00  0.00    +0.000 OA
ATOM     13  C   UNL     1       0.362   9.679  20.907  0.00  0.00    +0.000 C 
ATOM     14  C   UNL     1       1.252  10.710  21.579  0.00  0.00    +0.000 C 
ATOM     15  C   UNL     1       1.159  11.930  20.644  0.00  0.00    +0.000 C 
ATOM     16  C   UNL     1      -0.310  11.897  20.091  0.00  0.00    +0.000 C 
ATOM     17  C   UNL     1      -0.881  10.538  20.756  0.00  0.00    +0.000 C 
ATOM     18  C   UNL     1      -2.472  12.537  21.893  0.00  0.00    +0.000 C 
ATOM     19  C   UNL     1      -1.171  13.005  22.782  0.00  0.00    +0.000 C 
ATOM     20  C   UNL     1      -1.448  14.196  23.720  0.00  0.00    +0.000 C 
ATOM     21  C   UNL     1      -2.905  14.167  23.743  0.00  0.00    +0.000 C 
ATOM     22  O   UNL     1      -3.597  14.708  24.601  0.00  0.00    +0.000 OA
ENDROOT
BRANCH  15  23
ATOM     23  O   UNL     1       1.567  13.122  21.294  0.00  0.00    +0.000 OA
ATOM     24  H   UNL     1       1.951  12.856  22.137  0.00  0.00    +0.000 HD
ENDBRANCH  15  23
TORSDOF 1
ENDMDL
MODEL 9
REMARK VINA RESULT:      -5.8      9.599     11.459
REMARK  Name = 
REMARK  2 active torsions:
REMARK  status: ('A' for Active; 'I' for Inactive)
REMARK    1  A    between atoms: C_1  and  C_2
REMARK    2  A    between atoms: C_15  and  O_16
REMARK                            x       y       z     vdW  Elec       q    Type
REMARK                         _______ _______ _______ _____ _____    ______ ____
ROOT
ATOM      1  C   UNL     1      -1.127  15.102  24.497  0.00  0.00    +0.000 C 
ATOM      2  C   UNL     1      -2.130  14.561  23.477  0.00  0.00    +0.000 C 
ATOM      3  C   UNL     1      -3.349  13.601  23.676  0.00  0.00    +0.000 C 
ATOM      4  C   UNL     1      -3.598  12.592  22.321  0.00  0.00    +0.000 C 
ATOM      5  C   UNL     1      -2.334  11.756  21.685  0.00  0.00    +0.000 C 
ATOM      6  C   UNL     1      -1.418  12.119  22.783  0.00  0.00    +0.000 C 
ATOM      7  C   UNL     1      -0.604  10.796  23.034  0.00  0.00    +0.000 C 
ATOM      8  C   UNL     1      -0.495   9.689  21.953  0.00  0.00    +0.000 C 
ATOM      9  C   UNL     1      -0.414  10.285  20.547  0.00  0.00    +0.000 C 
ATOM     10  C   UNL     1       0.587   9.868  19.715  0.00  0.00    +0.000 C 
ATOM     11  C   UNL     1       1.277  10.894  18.950  0.00  0.00    +0.000 C 
ATOM     12  O   UNL     1       2.057  10.585  18.055  0.00  0.00    +0.000 OA
ATOM     13  C   UNL     1       1.020  12.334  19.333  0.00  0.00    +0.000 C 
ATOM     14  C   UNL     1      -0.136  12.914  18.537  0.00  0.00    +0.000 C 
ATOM     15  C   UNL     1      -1.337  12.051  18.968  0.00  0.00    +0.000 C 
ATOM     16  C   UNL     1      -1.063  11.714  20.477  0.00  0.00    +0.000 C 
ATOM     17  C   UNL     1       0.383  12.398  20.709  0.00  0.00    +0.000 C 
ATOM     18  C   UNL     1      -1.298  13.831  22.424  0.00  0.00    +0.000 C 
ATOM     19  C   UNL     1      -1.966  14.544  21.101  0.00  0.00    +0.000 C 
ATOM     20  C   UNL     1      -3.078  15.560  21.430  0.00  0.00    +0.000 C 
ATOM     21  C   UNL     1      -2.801  15.790  22.842  0.00  0.00    +0.000 C 
ATOM     22  O   UNL     1      -3.202  16.759  23.480  0.00  0.00    +0.000 OA
ENDROOT
BRANCH  15  23
ATOM     23  O   UNL     1      -2.571  12.685  18.671  0.00  0.00    +0.000 OA
ATOM     24  H   UNL     1      -2.670  12.655  17.713  0.00  0.00    +0.000 HD
ENDBRANCH  15  23
TORSDOF 1
ENDMDL
