MODEL 1
REMARK VINA RESULT:      -7.1      0.000      0.000
REMARK  Name = 
REMARK  10 active torsions:
REMARK  status: ('A' for Active; 'I' for Inactive)
REMARK    1  A    between atoms: C_1  and  O_2
REMARK    2  A    between atoms: O_2  and  C_3
REMARK    3  A    between atoms: C_3  and  C_4
REMARK    4  A    between atoms: C_7  and  C_8
REMARK    5  A    between atoms: C_11  and  N_12
REMARK    6  A    between atoms: N_12  and  C_13
REMARK    7  A    between atoms: C_13  and  C_14
REMARK    8  A    between atoms: C_13  and  C_15
REMARK    9  A    between atoms: N_18  and  C_19
REMARK   10  A    between atoms: C_21  and  C_22
REMARK                            x       y       z     vdW  Elec       q    Type
REMARK                         _______ _______ _______ _____ _____    ______ ____
ROOT
ATOM      1  C   UNL     1      -0.957  11.246  20.965  0.00  0.00    +0.000 A 
ATOM      2  C   UNL     1      -2.093  11.806  20.335  0.00  0.00    +0.000 A 
ATOM      3  C   UNL     1      -3.189  12.374  21.055  0.00  0.00    +0.000 A 
ATOM      4  C   UNL     1      -4.391  12.901  20.451  0.00  0.00    +0.000 A 
ATOM      5  C   UNL     1      -5.432  13.304  21.317  0.00  0.00    +0.000 A 
ATOM      6  C   UNL     1      -5.179  13.291  22.687  0.00  0.00    +0.000 A 
ATOM      7  N   UNL     1      -4.030  12.888  23.266  0.00  0.00    +0.000 NA
ATOM      8  C   UNL     1      -3.072  12.420  22.466  0.00  0.00    +0.000 A 
ATOM      9  C   UNL     1      -1.934  11.951  23.086  0.00  0.00    +0.000 A 
ATOM     10  C   UNL     1      -0.909  11.360  22.355  0.00  0.00    +0.000 A 
ATOM     11  F   UNL     1       0.104  10.831  23.059  0.00  0.00    +0.000 F 
ENDROOT
BRANCH   1  15
ATOM     12  C   UNL     1       1.839   9.000  18.635  0.00  0.00    +0.000 A 
ATOM     13  C   UNL     1       1.604  10.331  18.314  0.00  0.00    +0.000 A 
ATOM     14  C   UNL     1       0.714  11.068  19.093  0.00  0.00    +0.000 A 
ATOM     15  C   UNL     1       0.067  10.490  20.199  0.00  0.00    +0.000 A 
ATOM     16  C   UNL     1       0.413   9.156  20.454  0.00  0.00    +0.000 A 
ATOM     17  F   UNL     1      -0.085   8.534  21.535  0.00  0.00    +0.000 F 
ATOM     18  N   UNL     1       1.256   8.407  19.701  0.00  0.00    +0.000 NA
BRANCH  12  19
ATOM     19  C   UNL     1       2.745   8.159  17.768  0.00  0.00    +0.000 C 
BRANCH  19  21
ATOM     20  C   UNL     1       3.962   6.148  17.686  0.00  0.00    +0.000 C 
ATOM     21  O   UNL     1       3.189   7.016  18.502  0.00  0.00    +0.000 OA
ENDBRANCH  19  21
ENDBRANCH  12  19
ENDBRANCH   1  15
BRANCH   5  22
ATOM     22  C   UNL     1      -6.821  13.745  21.027  0.00  0.00    +0.000 C 
ATOM     23  N   UNL     1      -7.831  13.383  21.866  0.00  0.00    +0.000 N 
ATOM     24  O   UNL     1      -7.060  14.494  20.085  0.00  0.00    +0.000 OA
ATOM     25  H   UNL     1      -7.739  12.703  22.616  0.00  0.00    +0.000 HD
ATOM     26  H   UNL     1      -8.764  13.683  21.615  0.00  0.00    +0.000 HD
ENDBRANCH   5  22
BRANCH   4  27
ATOM     27  N   UNL     1      -4.433  12.890  19.039  0.00  0.00    +0.000 N 
ATOM     28  H   UNL     1      -3.504  13.031  18.631  0.00  0.00    +0.000 HD
BRANCH  27  29
ATOM     29  C   UNL     1      -5.143  11.842  18.276  0.00  0.00    +0.000 C 
ATOM     30  C   UNL     1      -6.229  12.527  17.436  0.00  0.00    +0.000 C 
BRANCH  29  31
ATOM     31  C   UNL     1      -4.237  10.981  17.399  0.00  0.00    +0.000 A 
ATOM     32  C   UNL     1      -3.148  10.172  17.807  0.00  0.00    +0.000 A 
ATOM     33  C   UNL     1      -2.577   9.722  16.640  0.00  0.00    +0.000 A 
ATOM     34  N   UNL     1      -3.319  10.248  15.627  0.00  0.00    +0.000 N 
ATOM     35  C   UNL     1      -3.053  10.119  14.213  0.00  0.00    +0.000 C 
ATOM     36  N   UNL     1      -4.336  11.028  16.054  0.00  0.00    +0.000 NA
ENDBRANCH  29  31
ENDBRANCH  27  29
ENDBRANCH   4  27
TORSDOF 7
ENDMDL
MODEL 2
REMARK VINA RESULT:      -7.1      1.315      1.567
REMARK  Name = 
REMARK  10 active torsions:
REMARK  status: ('A' for Active; 'I' for Inactive)
REMARK    1  A    between atoms: C_1  and  O_2
REMARK    2  A    between atoms: O_2  and  C_3
REMARK    3  A    between atoms: C_3  and  C_4
REMARK    4  A    between atoms: C_7  and  C_8
REMARK    5  A    between atoms: C_11  and  N_12
REMARK    6  A    between atoms: N_12  and  C_13
REMARK    7  A    between atoms: C_13  and  C_14
REMARK    8  A    between atoms: C_13  and  C_15
REMARK    9  A    between atoms: N_18  and  C_19
REMARK   10  A    between atoms: C_21  and  C_22
REMARK                            x       y       z     vdW  Elec       q    Type
REMARK                         _______ _______ _______ _____ _____    ______ ____
ROOT
ATOM      1  C   UNL     1      -0.277  10.438  20.958  0.00  0.00    +0.000 A 
ATOM      2  C   UNL     1      -1.354  11.180  20.421  0.00  0.00    +0.000 A 
ATOM      3  C   UNL     1      -2.312  11.869  21.228  0.00  0.00    +0.000 A 
ATOM      4  C   UNL     1      -3.458  12.588  20.719  0.00  0.00    +0.000 A 
ATOM      5  C   UNL     1      -4.376  13.100  21.663  0.00  0.00    +0.000 A 
ATOM      6  C   UNL     1      -4.046  12.996  23.012  0.00  0.00    +0.000 A 
ATOM      7  N   UNL     1      -2.936  12.409  23.503  0.00  0.00    +0.000 NA
ATOM      8  C   UNL     1      -2.106  11.842  22.629  0.00  0.00    +0.000 A 
ATOM      9  C   UNL     1      -1.013  11.189  23.159  0.00  0.00    +0.000 A 
ATOM     10  C   UNL     1      -0.130  10.488  22.346  0.00  0.00    +0.000 A 
ATOM     11  F   UNL     1       0.834   9.791  22.965  0.00  0.00    +0.000 F 
ENDROOT
BRANCH   1  15
ATOM     12  C   UNL     1       2.355   8.055  18.574  0.00  0.00    +0.000 A 
ATOM     13  C   UNL     1       1.980   7.599  19.831  0.00  0.00    +0.000 A 
ATOM     14  C   UNL     1       1.099   8.364  20.593  0.00  0.00    +0.000 A 
ATOM     15  C   UNL     1       0.579   9.575  20.104  0.00  0.00    +0.000 A 
ATOM     16  C   UNL     1       0.992   9.915  18.809  0.00  0.00    +0.000 A 
ATOM     17  F   UNL     1       0.490  11.009  18.216  0.00  0.00    +0.000 F 
ATOM     18  N   UNL     1       1.865   9.203  18.053  0.00  0.00    +0.000 NA
BRANCH  12  19
ATOM     19  C   UNL     1       3.360   7.282  17.755  0.00  0.00    +0.000 C 
BRANCH  19  21
ATOM     20  C   UNL     1       4.350   5.154  17.918  0.00  0.00    +0.000 C 
ATOM     21  O   UNL     1       3.129   5.880  17.906  0.00  0.00    +0.000 OA
ENDBRANCH  19  21
ENDBRANCH  12  19
ENDBRANCH   1  15
BRANCH   5  22
ATOM     22  C   UNL     1      -5.701  13.748  21.477  0.00  0.00    +0.000 C 
ATOM     23  N   UNL     1      -5.763  15.053  21.093  0.00  0.00    +0.000 N 
ATOM     24  O   UNL     1      -6.738  13.103  21.592  0.00  0.00    +0.000 OA
ATOM     25  H   UNL     1      -4.964  15.680  21.057  0.00  0.00    +0.000 HD
ATOM     26  H   UNL     1      -6.685  15.461  21.006  0.00  0.00    +0.000 HD
ENDBRANCH   5  22
BRANCH   4  27
ATOM     27  N   UNL     1      -3.585  12.640  19.313  0.00  0.00    +0.000 N 
ATOM     28  H   UNL     1      -2.672  12.641  18.850  0.00  0.00    +0.000 HD
BRANCH  27  29
ATOM     29  C   UNL     1      -4.505  11.756  18.568  0.00  0.00    +0.000 C 
ATOM     30  C   UNL     1      -5.619  12.629  17.975  0.00  0.00    +0.000 C 
BRANCH  29  31
ATOM     31  C   UNL     1      -3.831  10.919  17.483  0.00  0.00    +0.000 A 
ATOM     32  C   UNL     1      -2.691  10.089  17.609  0.00  0.00    +0.000 A 
ATOM     33  C   UNL     1      -2.402   9.677  16.330  0.00  0.00    +0.000 A 
ATOM     34  N   UNL     1      -3.344  10.244  15.526  0.00  0.00    +0.000 N 
ATOM     35  C   UNL     1      -3.403  10.163  14.085  0.00  0.00    +0.000 C 
ATOM     36  N   UNL     1      -4.228  11.015  16.196  0.00  0.00    +0.000 NA
ENDBRANCH  29  31
ENDBRANCH  27  29
ENDBRANCH   4  27
TORSDOF 7
ENDMDL
MODEL 3
REMARK VINA RESULT:      -7.0      4.582      9.689
REMARK  Name = 
REMARK  10 active torsions:
REMARK  status: ('A' for Active; 'I' for Inactive)
REMARK    1  A    between atoms: C_1  and  O_2
REMARK    2  A    between atoms: O_2  and  C_3
REMARK    3  A    between atoms: C_3  and  C_4
REMARK    4  A    between atoms: C_7  and  C_8
REMARK    5  A    between atoms: C_11  and  N_12
REMARK    6  A    between atoms: N_12  and  C_13
REMARK    7  A    between atoms: C_13  and  C_14
REMARK    8  A    between atoms: C_13  and  C_15
REMARK    9  A    between atoms: N_18  and  C_19
REMARK   10  A    between atoms: C_21  and  C_22
REMARK                            x       y       z     vdW  Elec       q    Type
REMARK                         _______ _______ _______ _____ _____    ______ ____
ROOT
ATOM      1  C   UNL     1       1.413   9.116  19.321  0.00  0.00    +0.000 A 
ATOM      2  C   UNL     1       2.191   8.190  18.587  0.00  0.00    +0.000 A 
ATOM      3  C   UNL     1       2.454   6.859  19.034  0.00  0.00    +0.000 A 
ATOM      4  C   UNL     1       3.292   5.904  18.342  0.00  0.00    +0.000 A 
ATOM      5  C   UNL     1       3.552   4.677  18.992  0.00  0.00    +0.000 A 
ATOM      6  C   UNL     1       2.879   4.417  20.184  0.00  0.00    +0.000 A 
ATOM      7  N   UNL     1       2.024   5.258  20.799  0.00  0.00    +0.000 NA
ATOM      8  C   UNL     1       1.839   6.456  20.245  0.00  0.00    +0.000 A 
ATOM      9  C   UNL     1       1.012   7.324  20.928  0.00  0.00    +0.000 A 
ATOM     10  C   UNL     1       0.819   8.628  20.487  0.00  0.00    +0.000 A 
ATOM     11  F   UNL     1       0.092   9.429  21.280  0.00  0.00    +0.000 F 
ENDROOT
BRANCH   1  15
ATOM     12  C   UNL     1       1.177  13.283  18.390  0.00  0.00    +0.000 A 
ATOM     13  C   UNL     1       2.409  12.644  18.332  0.00  0.00    +0.000 A 
ATOM     14  C   UNL     1       2.478  11.280  18.607  0.00  0.00    +0.000 A 
ATOM     15  C   UNL     1       1.323  10.545  18.928  0.00  0.00    +0.000 A 
ATOM     16  C   UNL     1       0.131  11.283  18.916  0.00  0.00    +0.000 A 
ATOM     17  F   UNL     1      -1.039  10.661  19.128  0.00  0.00    +0.000 F 
ATOM     18  N   UNL     1       0.037  12.615  18.674  0.00  0.00    +0.000 NA
BRANCH  12  19
ATOM     19  C   UNL     1       1.083  14.773  18.164  0.00  0.00    +0.000 C 
BRANCH  19  21
ATOM     20  C   UNL     1      -0.374  16.594  18.468  0.00  0.00    +0.000 C 
ATOM     21  O   UNL     1       0.013  15.312  18.941  0.00  0.00    +0.000 OA
ENDBRANCH  19  21
ENDBRANCH  12  19
ENDBRANCH   1  15
BRANCH   5  22
ATOM     22  C   UNL     1       4.465   3.561  18.631  0.00  0.00    +0.000 C 
ATOM     23  N   UNL     1       5.268   3.015  19.585  0.00  0.00    +0.000 N 
ATOM     24  O   UNL     1       4.452   3.076  17.504  0.00  0.00    +0.000 OA
ATOM     25  H   UNL     1       5.404   3.404  20.514  0.00  0.00    +0.000 HD
ATOM     26  H   UNL     1       5.894   2.276  19.289  0.00  0.00    +0.000 HD
ENDBRANCH   5  22
BRANCH   4  27
ATOM     27  N   UNL     1       3.832   6.331  17.109  0.00  0.00    +0.000 N 
ATOM     28  H   UNL     1       3.807   7.351  17.017  0.00  0.00    +0.000 HD
BRANCH  27  29
ATOM     29  C   UNL     1       5.123   5.829  16.594  0.00  0.00    +0.000 C 
ATOM     30  C   UNL     1       5.144   6.058  15.078  0.00  0.00    +0.000 C 
BRANCH  29  31
ATOM     31  C   UNL     1       6.349   6.452  17.258  0.00  0.00    +0.000 A 
ATOM     32  C   UNL     1       7.201   5.871  18.228  0.00  0.00    +0.000 A 
ATOM     33  C   UNL     1       8.057   6.877  18.607  0.00  0.00    +0.000 A 
ATOM     34  N   UNL     1       7.705   7.970  17.874  0.00  0.00    +0.000 N 
ATOM     35  C   UNL     1       8.271   9.295  17.984  0.00  0.00    +0.000 C 
ATOM     36  N   UNL     1       6.660   7.748  17.046  0.00  0.00    +0.000 NA
ENDBRANCH  29  31
ENDBRANCH  27  29
ENDBRANCH   4  27
TORSDOF 7
ENDMDL
MODEL 4
REMARK VINA RESULT:      -6.9      5.164      9.661
REMARK  Name = 
REMARK  10 active torsions:
REMARK  status: ('A' for Active; 'I' for Inactive)
REMARK    1  A    between atoms: C_1  and  O_2
REMARK    2  A    between atoms: O_2  and  C_3
REMARK    3  A    between atoms: C_3  and  C_4
REMARK    4  A    between atoms: C_7  and  C_8
REMARK    5  A    between atoms: C_11  and  N_12
REMARK    6  A    between atoms: N_12  and  C_13
REMARK    7  A    between atoms: C_13  and  C_14
REMARK    8  A    between atoms: C_13  and  C_15
REMARK    9  A    between atoms: N_18  and  C_19
REMARK   10  A    between atoms: C_21  and  C_22
REMARK                            x       y       z     vdW  Elec       q    Type
REMARK                         _______ _______ _______ _____ _____    ______ ____
ROOT
ATOM      1  C   UNL     1       1.423   8.930  19.919  0.00  0.00    +0.000 A 
ATOM      2  C   UNL     1       2.213   8.096  19.094  0.00  0.00    +0.000 A 
ATOM      3  C   UNL     1       2.402   6.701  19.340  0.00  0.00    +0.000 A 
ATOM      4  C   UNL     1       3.249   5.830  18.556  0.00  0.00    +0.000 A 
ATOM      5  C   UNL     1       3.426   4.507  19.017  0.00  0.00    +0.000 A 
ATOM      6  C   UNL     1       2.670   4.095  20.113  0.00  0.00    +0.000 A 
ATOM      7  N   UNL     1       1.807   4.867  20.803  0.00  0.00    +0.000 NA
ATOM      8  C   UNL     1       1.698   6.143  20.435  0.00  0.00    +0.000 A 
ATOM      9  C   UNL     1       0.860   6.929  21.197  0.00  0.00    +0.000 A 
ATOM     10  C   UNL     1       0.740   8.294  20.958  0.00  0.00    +0.000 A 
ATOM     11  F   UNL     1      -0.008   8.993  21.824  0.00  0.00    +0.000 F 
ENDROOT
BRANCH   1  15
ATOM     12  C   UNL     1       1.177  13.165  19.375  0.00  0.00    +0.000 A 
ATOM     13  C   UNL     1       0.919  12.627  20.629  0.00  0.00    +0.000 A 
ATOM     14  C   UNL     1       1.028  11.249  20.810  0.00  0.00    +0.000 A 
ATOM     15  C   UNL     1       1.407  10.406  19.751  0.00  0.00    +0.000 A 
ATOM     16  C   UNL     1       1.684  11.062  18.544  0.00  0.00    +0.000 A 
ATOM     17  F   UNL     1       2.133  10.359  17.492  0.00  0.00    +0.000 F 
ATOM     18  N   UNL     1       1.564  12.396  18.332  0.00  0.00    +0.000 NA
BRANCH  12  19
ATOM     19  C   UNL     1       1.000  14.644  19.133  0.00  0.00    +0.000 C 
BRANCH  19  21
ATOM     20  C   UNL     1       3.173  15.515  19.359  0.00  0.00    +0.000 C 
ATOM     21  O   UNL     1       2.142  15.161  18.449  0.00  0.00    +0.000 OA
ENDBRANCH  19  21
ENDBRANCH  12  19
ENDBRANCH   1  15
BRANCH   5  22
ATOM     22  C   UNL     1       4.321   3.422  18.538  0.00  0.00    +0.000 C 
ATOM     23  N   UNL     1       5.414   3.079  19.274  0.00  0.00    +0.000 N 
ATOM     24  O   UNL     1       4.049   2.781  17.528  0.00  0.00    +0.000 OA
ATOM     25  H   UNL     1       5.759   3.607  20.072  0.00  0.00    +0.000 HD
ATOM     26  H   UNL     1       6.011   2.355  18.896  0.00  0.00    +0.000 HD
ENDBRANCH   5  22
BRANCH   4  27
ATOM     27  N   UNL     1       3.880   6.419  17.438  0.00  0.00    +0.000 N 
ATOM     28  H   UNL     1       3.955   7.436  17.537  0.00  0.00    +0.000 HD
BRANCH  27  29
ATOM     29  C   UNL     1       5.140   5.894  16.872  0.00  0.00    +0.000 C 
ATOM     30  C   UNL     1       5.087   6.082  15.351  0.00  0.00    +0.000 C 
BRANCH  29  31
ATOM     31  C   UNL     1       6.402   6.524  17.457  0.00  0.00    +0.000 A 
ATOM     32  C   UNL     1       7.292   5.966  18.407  0.00  0.00    +0.000 A 
ATOM     33  C   UNL     1       8.176   6.974  18.709  0.00  0.00    +0.000 A 
ATOM     34  N   UNL     1       7.802   8.045  17.955  0.00  0.00    +0.000 N 
ATOM     35  C   UNL     1       8.387   9.365  17.991  0.00  0.00    +0.000 C 
ATOM     36  N   UNL     1       6.718   7.807  17.184  0.00  0.00    +0.000 NA
ENDBRANCH  29  31
ENDBRANCH  27  29
ENDBRANCH   4  27
TORSDOF 7
ENDMDL
MODEL 5
REMARK VINA RESULT:      -6.9      7.942     11.767
REMARK  Name = 
REMARK  10 active torsions:
REMARK  status: ('A' for Active; 'I' for Inactive)
REMARK    1  A    between atoms: C_1  and  O_2
REMARK    2  A    between atoms: O_2  and  C_3
REMARK    3  A    between atoms: C_3  and  C_4
REMARK    4  A    between atoms: C_7  and  C_8
REMARK    5  A    between atoms: C_11  and  N_12
REMARK    6  A    between atoms: N_12  and  C_13
REMARK    7  A    between atoms: C_13  and  C_14
REMARK    8  A    between atoms: C_13  and  C_15
REMARK    9  A    between atoms: N_18  and  C_19
REMARK   10  A    between atoms: C_21  and  C_22
REMARK                            x       y       z     vdW  Elec       q    Type
REMARK                         _______ _______ _______ _____ _____    ______ ____
ROOT
ATOM      1  C   UNL     1       5.105  15.471  19.756  0.00  0.00    +0.000 A 
ATOM      2  C   UNL     1       6.326  15.087  19.155  0.00  0.00    +0.000 A 
ATOM      3  C   UNL     1       7.364  16.012  18.825  0.00  0.00    +0.000 A 
ATOM      4  C   UNL     1       8.599  15.667  18.157  0.00  0.00    +0.000 A 
ATOM      5  C   UNL     1       9.458  16.727  17.789  0.00  0.00    +0.000 A 
ATOM      6  C   UNL     1       9.122  18.011  18.211  0.00  0.00    +0.000 A 
ATOM      7  N   UNL     1       8.020  18.341  18.914  0.00  0.00    +0.000 NA
ATOM      8  C   UNL     1       7.155  17.365  19.191  0.00  0.00    +0.000 A 
ATOM      9  C   UNL     1       6.003  17.738  19.851  0.00  0.00    +0.000 A 
ATOM     10  C   UNL     1       4.994  16.817  20.110  0.00  0.00    +0.000 A 
ATOM     11  F   UNL     1       3.866  17.299  20.652  0.00  0.00    +0.000 F 
ENDROOT
BRANCH   1  15
ATOM     12  C   UNL     1       1.719  12.897  20.200  0.00  0.00    +0.000 A 
ATOM     13  C   UNL     1       2.128  13.265  18.925  0.00  0.00    +0.000 A 
ATOM     14  C   UNL     1       3.249  14.081  18.783  0.00  0.00    +0.000 A 
ATOM     15  C   UNL     1       3.974  14.520  19.904  0.00  0.00    +0.000 A 
ATOM     16  C   UNL     1       3.496  14.053  21.136  0.00  0.00    +0.000 A 
ATOM     17  F   UNL     1       4.164  14.347  22.263  0.00  0.00    +0.000 F 
ATOM     18  N   UNL     1       2.395  13.279  21.307  0.00  0.00    +0.000 NA
BRANCH  12  19
ATOM     19  C   UNL     1       0.469  12.072  20.388  0.00  0.00    +0.000 C 
BRANCH  19  21
ATOM     20  C   UNL     1      -0.270  10.614  22.079  0.00  0.00    +0.000 C 
ATOM     21  O   UNL     1       0.771  10.908  21.159  0.00  0.00    +0.000 OA
ENDBRANCH  19  21
ENDBRANCH  12  19
ENDBRANCH   1  15
BRANCH   5  22
ATOM     22  C   UNL     1      10.705  16.730  16.982  0.00  0.00    +0.000 C 
ATOM     23  N   UNL     1      10.795  15.936  15.879  0.00  0.00    +0.000 N 
ATOM     24  O   UNL     1      11.627  17.494  17.252  0.00  0.00    +0.000 OA
ATOM     25  H   UNL     1      10.120  15.218  15.632  0.00  0.00    +0.000 HD
ATOM     26  H   UNL     1      11.673  15.950  15.376  0.00  0.00    +0.000 HD
ENDBRANCH   5  22
BRANCH   4  27
ATOM     27  N   UNL     1       8.788  14.297  17.870  0.00  0.00    +0.000 N 
ATOM     28  H   UNL     1       8.798  14.119  16.862  0.00  0.00    +0.000 HD
BRANCH  27  29
ATOM     29  C   UNL     1       9.847  13.492  18.514  0.00  0.00    +0.000 C 
ATOM     30  C   UNL     1      10.281  14.221  19.792  0.00  0.00    +0.000 C 
BRANCH  29  31
ATOM     31  C   UNL     1       9.443  12.051  18.818  0.00  0.00    +0.000 A 
ATOM     32  C   UNL     1       9.819  11.260  19.930  0.00  0.00    +0.000 A 
ATOM     33  C   UNL     1       9.319  10.007  19.667  0.00  0.00    +0.000 A 
ATOM     34  N   UNL     1       8.684  10.096  18.466  0.00  0.00    +0.000 N 
ATOM     35  C   UNL     1       8.069   9.010  17.738  0.00  0.00    +0.000 C 
ATOM     36  N   UNL     1       8.747  11.328  17.915  0.00  0.00    +0.000 NA
ENDBRANCH  29  31
ENDBRANCH  27  29
ENDBRANCH   4  27
TORSDOF 7
ENDMDL
MODEL 6
REMARK VINA RESULT:      -6.8      3.584      4.886
REMARK  Name = 
REMARK  10 active torsions:
REMARK  status: ('A' for Active; 'I' for Inactive)
REMARK    1  A    between atoms: C_1  and  O_2
REMARK    2  A    between atoms: O_2  and  C_3
REMARK    3  A    between atoms: C_3  and  C_4
REMARK    4  A    between atoms: C_7  and  C_8
REMARK    5  A    between atoms: C_11  and  N_12
REMARK    6  A    between atoms: N_12  and  C_13
REMARK    7  A    between atoms: C_13  and  C_14
REMARK    8  A    between atoms: C_13  and  C_15
REMARK    9  A    between atoms: N_18  and  C_19
REMARK   10  A    between atoms: C_21  and  C_22
REMARK                            x       y       z     vdW  Elec       q    Type
REMARK                         _______ _______ _______ _____ _____    ______ ____
ROOT
ATOM      1  C   UNL     1      -2.461  14.136  22.206  0.00  0.00    +0.000 A 
ATOM      2  C   UNL     1      -3.014  13.601  21.019  0.00  0.00    +0.000 A 
ATOM      3  C   UNL     1      -4.301  12.981  20.962  0.00  0.00    +0.000 A 
ATOM      4  C   UNL     1      -4.874  12.371  19.784  0.00  0.00    +0.000 A 
ATOM      5  C   UNL     1      -6.101  11.687  19.936  0.00  0.00    +0.000 A 
ATOM      6  C   UNL     1      -6.736  11.762  21.174  0.00  0.00    +0.000 A 
ATOM      7  N   UNL     1      -6.261  12.403  22.260  0.00  0.00    +0.000 NA
ATOM      8  C   UNL     1      -5.062  12.977  22.157  0.00  0.00    +0.000 A 
ATOM      9  C   UNL     1      -4.567  13.567  23.300  0.00  0.00    +0.000 A 
ATOM     10  C   UNL     1      -3.290  14.117  23.330  0.00  0.00    +0.000 A 
ATOM     11  F   UNL     1      -2.854  14.563  24.517  0.00  0.00    +0.000 F 
ENDROOT
BRANCH   1  15
ATOM     12  C   UNL     1       1.602  15.469  22.192  0.00  0.00    +0.000 A 
ATOM     13  C   UNL     1       0.585  16.396  22.383  0.00  0.00    +0.000 A 
ATOM     14  C   UNL     1      -0.736  15.954  22.417  0.00  0.00    +0.000 A 
ATOM     15  C   UNL     1      -1.049  14.591  22.273  0.00  0.00    +0.000 A 
ATOM     16  C   UNL     1       0.057  13.743  22.129  0.00  0.00    +0.000 A 
ATOM     17  F   UNL     1      -0.126  12.415  22.067  0.00  0.00    +0.000 F 
ATOM     18  N   UNL     1       1.351  14.146  22.070  0.00  0.00    +0.000 NA
BRANCH  12  19
ATOM     19  C   UNL     1       3.036  15.928  22.084  0.00  0.00    +0.000 C 
BRANCH  19  21
ATOM     20  C   UNL     1       5.154  15.062  22.630  0.00  0.00    +0.000 C 
ATOM     21  O   UNL     1       3.826  15.282  23.083  0.00  0.00    +0.000 OA
ENDBRANCH  19  21
ENDBRANCH  12  19
ENDBRANCH   1  15
BRANCH   5  22
ATOM     22  C   UNL     1      -6.871  10.849  18.982  0.00  0.00    +0.000 C 
ATOM     23  N   UNL     1      -7.462   9.702  19.419  0.00  0.00    +0.000 N 
ATOM     24  O   UNL     1      -7.045  11.212  17.823  0.00  0.00    +0.000 OA
ATOM     25  H   UNL     1      -7.303   9.286  20.333  0.00  0.00    +0.000 HD
ATOM     26  H   UNL     1      -7.953   9.149  18.729  0.00  0.00    +0.000 HD
ENDBRANCH   5  22
BRANCH   4  27
ATOM     27  N   UNL     1      -4.104  12.457  18.603  0.00  0.00    +0.000 N 
ATOM     28  H   UNL     1      -3.510  13.291  18.598  0.00  0.00    +0.000 HD
BRANCH  27  29
ATOM     29  C   UNL     1      -3.335  11.312  18.074  0.00  0.00    +0.000 C 
ATOM     30  C   UNL     1      -3.626  11.204  16.571  0.00  0.00    +0.000 C 
BRANCH  29  31
ATOM     31  C   UNL     1      -1.833  11.389  18.335  0.00  0.00    +0.000 A 
ATOM     32  C   UNL     1      -1.002  10.409  18.929  0.00  0.00    +0.000 A 
ATOM     33  C   UNL     1       0.225  11.011  19.068  0.00  0.00    +0.000 A 
ATOM     34  N   UNL     1       0.090  12.269  18.565  0.00  0.00    +0.000 N 
ATOM     35  C   UNL     1       1.095  13.306  18.566  0.00  0.00    +0.000 C 
ATOM     36  N   UNL     1      -1.156  12.536  18.115  0.00  0.00    +0.000 NA
ENDBRANCH  29  31
ENDBRANCH  27  29
ENDBRANCH   4  27
TORSDOF 7
ENDMDL
MODEL 7
REMARK VINA RESULT:      -6.8      4.951      7.438
REMARK  Name = 
REMARK  10 active torsions:
REMARK  status: ('A' for Active; 'I' for Inactive)
REMARK    1  A    between atoms: C_1  and  O_2
REMARK    2  A    between atoms: O_2  and  C_3
REMARK    3  A    between atoms: C_3  and  C_4
REMARK    4  A    between atoms: C_7  and  C_8
REMARK    5  A    between atoms: C_11  and  N_12
REMARK    6  A    between atoms: N_12  and  C_13
REMARK    7  A    between atoms: C_13  and  C_14
REMARK    8  A    between atoms: C_13  and  C_15
REMARK    9  A    between atoms: N_18  and  C_19
REMARK   10  A    between atoms: C_21  and  C_22
REMARK                            x       y       z     vdW  Elec       q    Type
REMARK                         _______ _______ _______ _____ _____    ______ ____
ROOT
ATOM      1  C   UNL     1       0.963  11.002  19.207  0.00  0.00    +0.000 A 
ATOM      2  C   UNL     1       1.753  12.163  19.035  0.00  0.00    +0.000 A 
ATOM      3  C   UNL     1       1.206  13.480  18.952  0.00  0.00    +0.000 A 
ATOM      4  C   UNL     1       1.974  14.682  18.718  0.00  0.00    +0.000 A 
ATOM      5  C   UNL     1       1.258  15.886  18.533  0.00  0.00    +0.000 A 
ATOM      6  C   UNL     1      -0.122  15.857  18.723  0.00  0.00    +0.000 A 
ATOM      7  N   UNL     1      -0.846  14.763  19.032  0.00  0.00    +0.000 NA
ATOM      8  C   UNL     1      -0.195  13.603  19.120  0.00  0.00    +0.000 A 
ATOM      9  C   UNL     1      -0.967  12.487  19.369  0.00  0.00    +0.000 A 
ATOM     10  C   UNL     1      -0.405  11.216  19.393  0.00  0.00    +0.000 A 
ATOM     11  F   UNL     1      -1.253  10.185  19.528  0.00  0.00    +0.000 F 
ENDROOT
BRANCH   1  15
ATOM     12  C   UNL     1       2.436   7.006  18.820  0.00  0.00    +0.000 A 
ATOM     13  C   UNL     1       2.497   7.860  17.727  0.00  0.00    +0.000 A 
ATOM     14  C   UNL     1       2.043   9.170  17.864  0.00  0.00    +0.000 A 
ATOM     15  C   UNL     1       1.540   9.639  19.090  0.00  0.00    +0.000 A 
ATOM     16  C   UNL     1       1.566   8.705  20.135  0.00  0.00    +0.000 A 
ATOM     17  F   UNL     1       1.185   9.075  21.368  0.00  0.00    +0.000 F 
ATOM     18  N   UNL     1       1.980   7.418  20.025  0.00  0.00    +0.000 NA
BRANCH  12  19
ATOM     19  C   UNL     1       2.856   5.563  18.682  0.00  0.00    +0.000 C 
BRANCH  19  21
ATOM     20  C   UNL     1       4.742   4.194  19.002  0.00  0.00    +0.000 C 
ATOM     21  O   UNL     1       4.020   5.322  19.474  0.00  0.00    +0.000 OA
ENDBRANCH  19  21
ENDBRANCH  12  19
ENDBRANCH   1  15
BRANCH   5  22
ATOM     22  C   UNL     1       1.723  17.242  18.141  0.00  0.00    +0.000 C 
ATOM     23  N   UNL     1       1.114  18.340  18.668  0.00  0.00    +0.000 N 
ATOM     24  O   UNL     1       2.695  17.386  17.407  0.00  0.00    +0.000 OA
ATOM     25  H   UNL     1       0.255  18.316  19.213  0.00  0.00    +0.000 HD
ATOM     26  H   UNL     1       1.444  19.243  18.351  0.00  0.00    +0.000 HD
ENDBRANCH   5  22
BRANCH   4  27
ATOM     27  N   UNL     1       3.373  14.516  18.621  0.00  0.00    +0.000 N 
ATOM     28  H   UNL     1       3.710  14.685  17.668  0.00  0.00    +0.000 HD
BRANCH  27  29
ATOM     29  C   UNL     1       4.313  15.131  19.582  0.00  0.00    +0.000 C 
ATOM     30  C   UNL     1       4.056  14.502  20.957  0.00  0.00    +0.000 C 
BRANCH  29  31
ATOM     31  C   UNL     1       5.783  15.006  19.190  0.00  0.00    +0.000 A 
ATOM     32  C   UNL     1       6.324  14.806  17.896  0.00  0.00    +0.000 A 
ATOM     33  C   UNL     1       7.671  14.618  18.093  0.00  0.00    +0.000 A 
ATOM     34  N   UNL     1       7.876  14.719  19.436  0.00  0.00    +0.000 N 
ATOM     35  C   UNL     1       9.126  14.514  20.130  0.00  0.00    +0.000 C 
ATOM     36  N   UNL     1       6.744  14.948  20.136  0.00  0.00    +0.000 NA
ENDBRANCH  29  31
ENDBRANCH  27  29
ENDBRANCH   4  27
TORSDOF 7
ENDMDL
MODEL 8
REMARK VINA RESULT:      -6.7      5.242      7.482
REMARK  Name = 
REMARK  10 active torsions:
REMARK  status: ('A' for Active; 'I' for Inactive)
REMARK    1  A    between atoms: C_1  and  O_2
REMARK    2  A    between atoms: O_2  and  C_3
REMARK    3  A    between atoms: C_3  and  C_4
REMARK    4  A    between atoms: C_7  and  C_8
REMARK    5  A    between atoms: C_11  and  N_12
REMARK    6  A    between atoms: N_12  and  C_13
REMARK    7  A    between atoms: C_13  and  C_14
REMARK    8  A    between atoms: C_13  and  C_15
REMARK    9  A    between atoms: N_18  and  C_19
REMARK   10  A    between atoms: C_21  and  C_22
REMARK                            x       y       z     vdW  Elec       q    Type
REMARK                         _______ _______ _______ _____ _____    ______ ____
ROOT
ATOM      1  C   UNL     1       0.976  11.093  19.221  0.00  0.00    +0.000 A 
ATOM      2  C   UNL     1       1.745  12.267  19.048  0.00  0.00    +0.000 A 
ATOM      3  C   UNL     1       1.177  13.577  18.991  0.00  0.00    +0.000 A 
ATOM      4  C   UNL     1       1.923  14.793  18.756  0.00  0.00    +0.000 A 
ATOM      5  C   UNL     1       1.186  15.988  18.598  0.00  0.00    +0.000 A 
ATOM      6  C   UNL     1      -0.190  15.936  18.813  0.00  0.00    +0.000 A 
ATOM      7  N   UNL     1      -0.891  14.827  19.123  0.00  0.00    +0.000 NA
ATOM      8  C   UNL     1      -0.222  13.676  19.185  0.00  0.00    +0.000 A 
ATOM      9  C   UNL     1      -0.972  12.547  19.436  0.00  0.00    +0.000 A 
ATOM     10  C   UNL     1      -0.391  11.284  19.435  0.00  0.00    +0.000 A 
ATOM     11  F   UNL     1      -1.221  10.239  19.574  0.00  0.00    +0.000 F 
ENDROOT
BRANCH   1  15
ATOM     12  C   UNL     1       2.502   7.126  18.751  0.00  0.00    +0.000 A 
ATOM     13  C   UNL     1       2.582   8.013  17.686  0.00  0.00    +0.000 A 
ATOM     14  C   UNL     1       2.110   9.314  17.851  0.00  0.00    +0.000 A 
ATOM     15  C   UNL     1       1.571   9.740  19.078  0.00  0.00    +0.000 A 
ATOM     16  C   UNL     1       1.580   8.774  20.094  0.00  0.00    +0.000 A 
ATOM     17  F   UNL     1       1.164   9.102  21.327  0.00  0.00    +0.000 F 
ATOM     18  N   UNL     1       2.011   7.495  19.955  0.00  0.00    +0.000 NA
BRANCH  12  19
ATOM     19  C   UNL     1       2.942   5.692  18.579  0.00  0.00    +0.000 C 
BRANCH  19  21
ATOM     20  C   UNL     1       1.473   4.026  17.808  0.00  0.00    +0.000 C 
ATOM     21  O   UNL     1       1.869   4.814  18.921  0.00  0.00    +0.000 OA
ENDBRANCH  19  21
ENDBRANCH  12  19
ENDBRANCH   1  15
BRANCH   5  22
ATOM     22  C   UNL     1       1.623  17.355  18.213  0.00  0.00    +0.000 C 
ATOM     23  N   UNL     1       1.137  18.432  18.891  0.00  0.00    +0.000 N 
ATOM     24  O   UNL     1       2.471  17.522  17.343  0.00  0.00    +0.000 OA
ATOM     25  H   UNL     1       0.376  18.392  19.563  0.00  0.00    +0.000 HD
ATOM     26  H   UNL     1       1.441  19.345  18.576  0.00  0.00    +0.000 HD
ENDBRANCH   5  22
BRANCH   4  27
ATOM     27  N   UNL     1       3.322  14.649  18.631  0.00  0.00    +0.000 N 
ATOM     28  H   UNL     1       3.623  14.706  17.653  0.00  0.00    +0.000 HD
BRANCH  27  29
ATOM     29  C   UNL     1       4.275  15.400  19.475  0.00  0.00    +0.000 C 
ATOM     30  C   UNL     1       4.425  14.643  20.801  0.00  0.00    +0.000 C 
BRANCH  29  31
ATOM     31  C   UNL     1       5.636  15.640  18.826  0.00  0.00    +0.000 A 
ATOM     32  C   UNL     1       6.448  14.705  18.139  0.00  0.00    +0.000 A 
ATOM     33  C   UNL     1       7.622  15.371  17.877  0.00  0.00    +0.000 A 
ATOM     34  N   UNL     1       7.469  16.624  18.386  0.00  0.00    +0.000 N 
ATOM     35  C   UNL     1       8.471  17.664  18.421  0.00  0.00    +0.000 C 
ATOM     36  N   UNL     1       6.271  16.821  18.980  0.00  0.00    +0.000 NA
ENDBRANCH  29  31
ENDBRANCH  27  29
ENDBRANCH   4  27
TORSDOF 7
ENDMDL
MODEL 9
REMARK VINA RESULT:      -6.7      4.435      9.554
REMARK  Name = 
REMARK  10 active torsions:
REMARK  status: ('A' for Active; 'I' for Inactive)
REMARK    1  A    between atoms: C_1  and  O_2
REMARK    2  A    between atoms: O_2  and  C_3
REMARK    3  A    between atoms: C_3  and  C_4
REMARK    4  A    between atoms: C_7  and  C_8
REMARK    5  A    between atoms: C_11  and  N_12
REMARK    6  A    between atoms: N_12  and  C_13
REMARK    7  A    between atoms: C_13  and  C_14
REMARK    8  A    between atoms: C_13  and  C_15
REMARK    9  A    between atoms: N_18  and  C_19
REMARK   10  A    between atoms: C_21  and  C_22
REMARK                            x       y       z     vdW  Elec       q    Type
REMARK                         _______ _______ _______ _____ _____    ______ ____
ROOT
ATOM      1  C   UNL     1       1.341   9.230  19.477  0.00  0.00    +0.000 A 
ATOM      2  C   UNL     1       2.021   8.309  18.646  0.00  0.00    +0.000 A 
ATOM      3  C   UNL     1       2.353   6.981  19.054  0.00  0.00    +0.000 A 
ATOM      4  C   UNL     1       3.099   6.033  18.257  0.00  0.00    +0.000 A 
ATOM      5  C   UNL     1       3.454   4.808  18.866  0.00  0.00    +0.000 A 
ATOM      6  C   UNL     1       2.949   4.544  20.138  0.00  0.00    +0.000 A 
ATOM      7  N   UNL     1       2.176   5.379  20.861  0.00  0.00    +0.000 NA
ATOM      8  C   UNL     1       1.908   6.575  20.336  0.00  0.00    +0.000 A 
ATOM      9  C   UNL     1       1.173   7.436  21.123  0.00  0.00    +0.000 A 
ATOM     10  C   UNL     1       0.912   8.739  20.712  0.00  0.00    +0.000 A 
ATOM     11  F   UNL     1       0.291   9.535  21.595  0.00  0.00    +0.000 F 
ENDROOT
BRANCH   1  15
ATOM     12  C   UNL     1       0.944  13.394  18.587  0.00  0.00    +0.000 A 
ATOM     13  C   UNL     1       2.169  12.772  18.385  0.00  0.00    +0.000 A 
ATOM     14  C   UNL     1       2.287  11.408  18.649  0.00  0.00    +0.000 A 
ATOM     15  C   UNL     1       1.187  10.658  19.099  0.00  0.00    +0.000 A 
ATOM     16  C   UNL     1      -0.008  11.380  19.225  0.00  0.00    +0.000 A 
ATOM     17  F   UNL     1      -1.137  10.741  19.570  0.00  0.00    +0.000 F 
ATOM     18  N   UNL     1      -0.147  12.710  18.999  0.00  0.00    +0.000 NA
BRANCH  12  19
ATOM     19  C   UNL     1       0.804  14.882  18.375  0.00  0.00    +0.000 C 
BRANCH  19  21
ATOM     20  C   UNL     1      -0.642  16.712  18.677  0.00  0.00    +0.000 C 
ATOM     21  O   UNL     1      -0.513  15.299  18.738  0.00  0.00    +0.000 OA
ENDBRANCH  19  21
ENDBRANCH  12  19
ENDBRANCH   1  15
BRANCH   5  22
ATOM     22  C   UNL     1       4.320   3.700  18.387  0.00  0.00    +0.000 C 
ATOM     23  N   UNL     1       5.352   3.269  19.164  0.00  0.00    +0.000 N 
ATOM     24  O   UNL     1       4.074   3.118  17.335  0.00  0.00    +0.000 OA
ATOM     25  H   UNL     1       5.677   3.743  20.003  0.00  0.00    +0.000 HD
ATOM     26  H   UNL     1       5.932   2.531  18.786  0.00  0.00    +0.000 HD
ENDBRANCH   5  22
BRANCH   4  27
ATOM     27  N   UNL     1       3.466   6.462  16.963  0.00  0.00    +0.000 N 
ATOM     28  H   UNL     1       2.833   7.185  16.610  0.00  0.00    +0.000 HD
BRANCH  27  29
ATOM     29  C   UNL     1       4.856   6.822  16.612  0.00  0.00    +0.000 C 
ATOM     30  C   UNL     1       5.569   7.252  17.901  0.00  0.00    +0.000 C 
BRANCH  29  31
ATOM     31  C   UNL     1       5.631   5.716  15.901  0.00  0.00    +0.000 A 
ATOM     32  C   UNL     1       6.903   5.192  16.238  0.00  0.00    +0.000 A 
ATOM     33  C   UNL     1       7.219   4.328  15.217  0.00  0.00    +0.000 A 
ATOM     34  N   UNL     1       6.168   4.361  14.352  0.00  0.00    +0.000 N 
ATOM     35  C   UNL     1       6.078   3.675  13.084  0.00  0.00    +0.000 C 
ATOM     36  N   UNL     1       5.184   5.204  14.735  0.00  0.00    +0.000 NA
ENDBRANCH  29  31
ENDBRANCH  27  29
ENDBRANCH   4  27
TORSDOF 7
ENDMDL
