MODEL 1
REMARK VINA RESULT:      -7.3      0.000      0.000
REMARK  Name = 
REMARK  3 active torsions:
REMARK  status: ('A' for Active; 'I' for Inactive)
REMARK    1  A    between atoms: C_1  and  C_2
REMARK    2  A    between atoms: C_5  and  S_6
REMARK    3  A    between atoms: S_6  and  N_9
REMARK                            x       y       z     vdW  Elec       q    Type
REMARK                         _______ _______ _______ _____ _____    ______ ____
ROOT
ATOM      1  S   UNL     1       6.550   5.218  18.695  0.00  0.00    +0.000 S 
ATOM      2  O   UNL     1       7.112   6.033  19.740  0.00  0.00    +0.000 OA
ATOM      3  O   UNL     1       7.244   4.017  18.246  0.00  0.00    +0.000 OA
ENDROOT
BRANCH   1   4
ATOM      4  N   UNL     1       6.281   6.184  17.338  0.00  0.00    +0.000 N 
ATOM      5  C   UNL     1       6.251   5.508  16.097  0.00  0.00    +0.000 A 
ATOM      6  C   UNL     1       5.110   4.914  15.576  0.00  0.00    +0.000 A 
ATOM      7  C   UNL     1       5.209   4.304  14.325  0.00  0.00    +0.000 A 
ATOM      8  C   UNL     1       6.429   4.299  13.664  0.00  0.00    +0.000 A 
ATOM      9 CL   UNL     1       6.592   3.558  12.125  0.00  0.00    +0.000 Cl
ATOM     10  C   UNL     1       7.510   4.915  14.279  0.00  0.00    +0.000 A 
ATOM     11  N   UNL     1       7.446   5.527  15.487  0.00  0.00    +0.000 NA
ATOM     12  H   UNL     1       6.965   6.935  17.284  0.00  0.00    +0.000 HD
ENDBRANCH   1   4
BRANCH   1  17
ATOM     13  C   UNL     1       1.085   3.308  20.546  0.00  0.00    +0.000 C 
ATOM     14  C   UNL     1       2.430   3.788  20.086  0.00  0.00    +0.000 A 
ATOM     15  C   UNL     1       3.458   2.875  19.812  0.00  0.00    +0.000 A 
ATOM     16  C   UNL     1       4.704   3.330  19.390  0.00  0.00    +0.000 A 
ATOM     17  C   UNL     1       4.927   4.697  19.216  0.00  0.00    +0.000 A 
ATOM     18  C   UNL     1       3.920   5.626  19.504  0.00  0.00    +0.000 A 
ATOM     19  C   UNL     1       2.670   5.158  19.929  0.00  0.00    +0.000 A 
ENDBRANCH   1  17
TORSDOF 2
ENDMDL
MODEL 2
REMARK VINA RESULT:      -7.3      0.211      1.161
REMARK  Name = 
REMARK  3 active torsions:
REMARK  status: ('A' for Active; 'I' for Inactive)
REMARK    1  A    between atoms: C_1  and  C_2
REMARK    2  A    between atoms: C_5  and  S_6
REMARK    3  A    between atoms: S_6  and  N_9
REMARK                            x       y       z     vdW  Elec       q    Type
REMARK                         _______ _______ _______ _____ _____    ______ ____
ROOT
ATOM      1  S   UNL     1       6.673   5.299  18.545  0.00  0.00    +0.000 S 
ATOM      2  O   UNL     1       7.263   6.170  19.527  0.00  0.00    +0.000 OA
ATOM      3  O   UNL     1       7.375   4.096  18.113  0.00  0.00    +0.000 OA
ENDROOT
BRANCH   1   4
ATOM      4  N   UNL     1       6.316   6.200  17.163  0.00  0.00    +0.000 N 
ATOM      5  C   UNL     1       6.265   5.474  15.951  0.00  0.00    +0.000 A 
ATOM      6  C   UNL     1       5.130   4.818  15.498  0.00  0.00    +0.000 A 
ATOM      7  C   UNL     1       5.205   4.163  14.269  0.00  0.00    +0.000 A 
ATOM      8  C   UNL     1       6.399   4.176  13.561  0.00  0.00    +0.000 A 
ATOM      9 CL   UNL     1       6.532   3.382  12.047  0.00  0.00    +0.000 Cl
ATOM     10  C   UNL     1       7.478   4.856  14.110  0.00  0.00    +0.000 A 
ATOM     11  N   UNL     1       7.435   5.513  15.296  0.00  0.00    +0.000 NA
ATOM     12  H   UNL     1       6.969   6.973  17.054  0.00  0.00    +0.000 HD
ENDBRANCH   1   4
BRANCH   1  17
ATOM     13  C   UNL     1       1.202   3.607  20.582  0.00  0.00    +0.000 C 
ATOM     14  C   UNL     1       2.556   4.016  20.083  0.00  0.00    +0.000 A 
ATOM     15  C   UNL     1       2.865   5.369  19.884  0.00  0.00    +0.000 A 
ATOM     16  C   UNL     1       4.123   5.739  19.416  0.00  0.00    +0.000 A 
ATOM     17  C   UNL     1       5.090   4.764  19.164  0.00  0.00    +0.000 A 
ATOM     18  C   UNL     1       4.794   3.406  19.336  0.00  0.00    +0.000 A 
ATOM     19  C   UNL     1       3.526   3.045  19.807  0.00  0.00    +0.000 A 
ENDBRANCH   1  17
TORSDOF 2
ENDMDL
MODEL 3
REMARK VINA RESULT:      -6.9      1.181      1.225
REMARK  Name = 
REMARK  3 active torsions:
REMARK  status: ('A' for Active; 'I' for Inactive)
REMARK    1  A    between atoms: C_1  and  C_2
REMARK    2  A    between atoms: C_5  and  S_6
REMARK    3  A    between atoms: S_6  and  N_9
REMARK                            x       y       z     vdW  Elec       q    Type
REMARK                         _______ _______ _______ _____ _____    ______ ____
ROOT
ATOM      1  S   UNL     1       6.564   5.605  17.442  0.00  0.00    +0.000 S 
ATOM      2  O   UNL     1       7.107   6.664  18.250  0.00  0.00    +0.000 OA
ATOM      3  O   UNL     1       7.326   4.380  17.227  0.00  0.00    +0.000 OA
ENDROOT
BRANCH   1   4
ATOM      4  N   UNL     1       6.168   6.227  15.924  0.00  0.00    +0.000 N 
ATOM      5  C   UNL     1       6.299   5.331  14.838  0.00  0.00    +0.000 A 
ATOM      6  C   UNL     1       5.302   4.450  14.447  0.00  0.00    +0.000 A 
ATOM      7  C   UNL     1       5.548   3.641  13.338  0.00  0.00    +0.000 A 
ATOM      8  C   UNL     1       6.769   3.732  12.685  0.00  0.00    +0.000 A 
ATOM      9 CL   UNL     1       7.112   2.753  11.319  0.00  0.00    +0.000 Cl
ATOM     10  C   UNL     1       7.702   4.641  13.165  0.00  0.00    +0.000 A 
ATOM     11  N   UNL     1       7.490   5.452  14.232  0.00  0.00    +0.000 NA
ATOM     12  H   UNL     1       6.708   7.066  15.723  0.00  0.00    +0.000 HD
ENDBRANCH   1   4
BRANCH   1  17
ATOM     13  C   UNL     1       1.336   3.865  20.009  0.00  0.00    +0.000 C 
ATOM     14  C   UNL     1       2.621   4.299  19.368  0.00  0.00    +0.000 A 
ATOM     15  C   UNL     1       3.817   3.615  19.631  0.00  0.00    +0.000 A 
ATOM     16  C   UNL     1       5.005   4.027  19.035  0.00  0.00    +0.000 A 
ATOM     17  C   UNL     1       5.007   5.111  18.155  0.00  0.00    +0.000 A 
ATOM     18  C   UNL     1       3.828   5.820  17.896  0.00  0.00    +0.000 A 
ATOM     19  C   UNL     1       2.638   5.398  18.501  0.00  0.00    +0.000 A 
ENDBRANCH   1  17
TORSDOF 2
ENDMDL
MODEL 4
REMARK VINA RESULT:      -6.9      3.629      6.148
REMARK  Name = 
REMARK  3 active torsions:
REMARK  status: ('A' for Active; 'I' for Inactive)
REMARK    1  A    between atoms: C_1  and  C_2
REMARK    2  A    between atoms: C_5  and  S_6
REMARK    3  A    between atoms: S_6  and  N_9
REMARK                            x       y       z     vdW  Elec       q    Type
REMARK                         _______ _______ _______ _____ _____    ______ ____
ROOT
ATOM      1  S   UNL     1       4.844   4.351  19.022  0.00  0.00    +0.000 S 
ATOM      2  O   UNL     1       5.053   3.026  19.545  0.00  0.00    +0.000 OA
ATOM      3  O   UNL     1       5.340   5.515  19.748  0.00  0.00    +0.000 OA
ENDROOT
BRANCH   1   4
ATOM      4  N   UNL     1       3.191   4.580  18.767  0.00  0.00    +0.000 N 
ATOM      5  C   UNL     1       2.715   5.896  18.964  0.00  0.00    +0.000 A 
ATOM      6  C   UNL     1       2.736   6.874  17.980  0.00  0.00    +0.000 A 
ATOM      7  C   UNL     1       2.206   8.125  18.295  0.00  0.00    +0.000 A 
ATOM      8  C   UNL     1       1.699   8.350  19.567  0.00  0.00    +0.000 A 
ATOM      9 CL   UNL     1       1.040   9.874  19.995  0.00  0.00    +0.000 Cl
ATOM     10  C   UNL     1       1.734   7.305  20.480  0.00  0.00    +0.000 A 
ATOM     11  N   UNL     1       2.231   6.073  20.203  0.00  0.00    +0.000 NA
ATOM     12  H   UNL     1       2.643   3.945  19.343  0.00  0.00    +0.000 HD
ENDBRANCH   1   4
BRANCH   1  17
ATOM     13  C   UNL     1       7.179   4.647  13.418  0.00  0.00    +0.000 C 
ATOM     14  C   UNL     1       6.612   4.572  14.805  0.00  0.00    +0.000 A 
ATOM     15  C   UNL     1       5.262   4.253  15.008  0.00  0.00    +0.000 A 
ATOM     16  C   UNL     1       4.743   4.190  16.299  0.00  0.00    +0.000 A 
ATOM     17  C   UNL     1       5.572   4.423  17.398  0.00  0.00    +0.000 A 
ATOM     18  C   UNL     1       6.918   4.764  17.216  0.00  0.00    +0.000 A 
ATOM     19  C   UNL     1       7.430   4.825  15.913  0.00  0.00    +0.000 A 
ENDBRANCH   1  17
TORSDOF 2
ENDMDL
MODEL 5
REMARK VINA RESULT:      -6.9      3.392      4.180
REMARK  Name = 
REMARK  3 active torsions:
REMARK  status: ('A' for Active; 'I' for Inactive)
REMARK    1  A    between atoms: C_1  and  C_2
REMARK    2  A    between atoms: C_5  and  S_6
REMARK    3  A    between atoms: S_6  and  N_9
REMARK                            x       y       z     vdW  Elec       q    Type
REMARK                         _______ _______ _______ _____ _____    ______ ____
ROOT
ATOM      1  S   UNL     1       2.930   5.547  19.166  0.00  0.00    +0.000 S 
ATOM      2  O   UNL     1       2.797   4.991  20.487  0.00  0.00    +0.000 OA
ATOM      3  O   UNL     1       2.324   4.876  18.021  0.00  0.00    +0.000 OA
ENDROOT
BRANCH   1   4
ATOM      4  N   UNL     1       4.570   5.751  18.823  0.00  0.00    +0.000 N 
ATOM      5  C   UNL     1       4.969   5.426  17.507  0.00  0.00    +0.000 A 
ATOM      6  C   UNL     1       4.905   6.317  16.445  0.00  0.00    +0.000 A 
ATOM      7  C   UNL     1       5.360   5.879  15.202  0.00  0.00    +0.000 A 
ATOM      8  C   UNL     1       5.837   4.583  15.068  0.00  0.00    +0.000 A 
ATOM      9 CL   UNL     1       6.404   4.006  13.555  0.00  0.00    +0.000 Cl
ATOM     10  C   UNL     1       5.849   3.770  16.193  0.00  0.00    +0.000 A 
ATOM     11  N   UNL     1       5.427   4.168  17.419  0.00  0.00    +0.000 NA
ATOM     12  H   UNL     1       5.146   5.227  19.478  0.00  0.00    +0.000 HD
ENDBRANCH   1   4
BRANCH   1  17
ATOM     13  C   UNL     1       0.596  11.159  19.099  0.00  0.00    +0.000 C 
ATOM     14  C   UNL     1       1.174   9.775  19.125  0.00  0.00    +0.000 A 
ATOM     15  C   UNL     1       1.712   9.204  17.963  0.00  0.00    +0.000 A 
ATOM     16  C   UNL     1       2.242   7.917  17.997  0.00  0.00    +0.000 A 
ATOM     17  C   UNL     1       2.259   7.198  19.193  0.00  0.00    +0.000 A 
ATOM     18  C   UNL     1       1.708   7.742  20.359  0.00  0.00    +0.000 A 
ATOM     19  C   UNL     1       1.177   9.038  20.315  0.00  0.00    +0.000 A 
ENDBRANCH   1  17
TORSDOF 2
ENDMDL
MODEL 6
REMARK VINA RESULT:      -6.8      3.619      6.110
REMARK  Name = 
REMARK  3 active torsions:
REMARK  status: ('A' for Active; 'I' for Inactive)
REMARK    1  A    between atoms: C_1  and  C_2
REMARK    2  A    between atoms: C_5  and  S_6
REMARK    3  A    between atoms: S_6  and  N_9
REMARK                            x       y       z     vdW  Elec       q    Type
REMARK                         _______ _______ _______ _____ _____    ______ ____
ROOT
ATOM      1  S   UNL     1       4.813   4.408  18.994  0.00  0.00    +0.000 S 
ATOM      2  O   UNL     1       5.040   3.072  19.479  0.00  0.00    +0.000 OA
ATOM      3  O   UNL     1       5.324   5.556  19.735  0.00  0.00    +0.000 OA
ENDROOT
BRANCH   1   4
ATOM      4  N   UNL     1       3.154   4.638  18.788  0.00  0.00    +0.000 N 
ATOM      5  C   UNL     1       2.699   5.972  18.893  0.00  0.00    +0.000 A 
ATOM      6  C   UNL     1       2.689   6.863  17.829  0.00  0.00    +0.000 A 
ATOM      7  C   UNL     1       2.186   8.144  18.059  0.00  0.00    +0.000 A 
ATOM      8  C   UNL     1       1.735   8.482  19.327  0.00  0.00    +0.000 A 
ATOM      9 CL   UNL     1       1.111  10.046  19.651  0.00  0.00    +0.000 Cl
ATOM     10  C   UNL     1       1.798   7.517  20.323  0.00  0.00    +0.000 A 
ATOM     11  N   UNL     1       2.269   6.259  20.131  0.00  0.00    +0.000 NA
ATOM     12  H   UNL     1       2.623   4.061  19.437  0.00  0.00    +0.000 HD
ENDBRANCH   1   4
BRANCH   1  17
ATOM     13  C   UNL     1       7.302   4.759  13.460  0.00  0.00    +0.000 C 
ATOM     14  C   UNL     1       6.678   4.674  14.822  0.00  0.00    +0.000 A 
ATOM     15  C   UNL     1       7.422   4.986  15.969  0.00  0.00    +0.000 A 
ATOM     16  C   UNL     1       6.836   4.900  17.228  0.00  0.00    +0.000 A 
ATOM     17  C   UNL     1       5.498   4.522  17.353  0.00  0.00    +0.000 A 
ATOM     18  C   UNL     1       4.744   4.186  16.223  0.00  0.00    +0.000 A 
ATOM     19  C   UNL     1       5.343   4.275  14.960  0.00  0.00    +0.000 A 
ENDBRANCH   1  17
TORSDOF 2
ENDMDL
MODEL 7
REMARK VINA RESULT:      -6.8      1.299      1.936
REMARK  Name = 
REMARK  3 active torsions:
REMARK  status: ('A' for Active; 'I' for Inactive)
REMARK    1  A    between atoms: C_1  and  C_2
REMARK    2  A    between atoms: C_5  and  S_6
REMARK    3  A    between atoms: S_6  and  N_9
REMARK                            x       y       z     vdW  Elec       q    Type
REMARK                         _______ _______ _______ _____ _____    ______ ____
ROOT
ATOM      1  S   UNL     1       6.314   5.415  18.661  0.00  0.00    +0.000 S 
ATOM      2  O   UNL     1       6.135   6.600  17.864  0.00  0.00    +0.000 OA
ATOM      3  O   UNL     1       6.974   5.495  19.959  0.00  0.00    +0.000 OA
ENDROOT
BRANCH   1   4
ATOM      4  N   UNL     1       7.139   4.263  17.744  0.00  0.00    +0.000 N 
ATOM      5  C   UNL     1       6.829   4.236  16.365  0.00  0.00    +0.000 A 
ATOM      6  C   UNL     1       7.450   5.046  15.425  0.00  0.00    +0.000 A 
ATOM      7  C   UNL     1       7.073   4.898  14.091  0.00  0.00    +0.000 A 
ATOM      8  C   UNL     1       6.093   3.974  13.757  0.00  0.00    +0.000 A 
ATOM      9 CL   UNL     1       5.601   3.764  12.127  0.00  0.00    +0.000 Cl
ATOM     10  C   UNL     1       5.530   3.220  14.777  0.00  0.00    +0.000 A 
ATOM     11  N   UNL     1       5.882   3.329  16.083  0.00  0.00    +0.000 NA
ATOM     12  H   UNL     1       7.005   3.329  18.127  0.00  0.00    +0.000 HD
ENDBRANCH   1   4
BRANCH   1  17
ATOM     13  C   UNL     1       0.778   3.060  19.527  0.00  0.00    +0.000 C 
ATOM     14  C   UNL     1       2.148   3.636  19.321  0.00  0.00    +0.000 A 
ATOM     15  C   UNL     1       2.313   4.883  18.702  0.00  0.00    +0.000 A 
ATOM     16  C   UNL     1       3.588   5.407  18.511  0.00  0.00    +0.000 A 
ATOM     17  C   UNL     1       4.708   4.702  18.956  0.00  0.00    +0.000 A 
ATOM     18  C   UNL     1       4.566   3.446  19.557  0.00  0.00    +0.000 A 
ATOM     19  C   UNL     1       3.279   2.927  19.744  0.00  0.00    +0.000 A 
ENDBRANCH   1  17
TORSDOF 2
ENDMDL
MODEL 8
REMARK VINA RESULT:      -6.8      3.479      4.289
REMARK  Name = 
REMARK  3 active torsions:
REMARK  status: ('A' for Active; 'I' for Inactive)
REMARK    1  A    between atoms: C_1  and  C_2
REMARK    2  A    between atoms: C_5  and  S_6
REMARK    3  A    between atoms: S_6  and  N_9
REMARK                            x       y       z     vdW  Elec       q    Type
REMARK                         _______ _______ _______ _____ _____    ______ ____
ROOT
ATOM      1  S   UNL     1       2.808   5.628  19.157  0.00  0.00    +0.000 S 
ATOM      2  O   UNL     1       2.623   5.118  20.490  0.00  0.00    +0.000 OA
ATOM      3  O   UNL     1       2.229   4.930  18.015  0.00  0.00    +0.000 OA
ENDROOT
BRANCH   1   4
ATOM      4  N   UNL     1       4.462   5.794  18.862  0.00  0.00    +0.000 N 
ATOM      5  C   UNL     1       4.889   5.474  17.553  0.00  0.00    +0.000 A 
ATOM      6  C   UNL     1       4.878   6.379  16.502  0.00  0.00    +0.000 A 
ATOM      7  C   UNL     1       5.356   5.944  15.266  0.00  0.00    +0.000 A 
ATOM      8  C   UNL     1       5.803   4.638  15.129  0.00  0.00    +0.000 A 
ATOM      9 CL   UNL     1       6.397   4.065  13.625  0.00  0.00    +0.000 Cl
ATOM     10  C   UNL     1       5.763   3.812  16.243  0.00  0.00    +0.000 A 
ATOM     11  N   UNL     1       5.317   4.206  17.462  0.00  0.00    +0.000 NA
ATOM     12  H   UNL     1       5.006   5.247  19.526  0.00  0.00    +0.000 HD
ENDBRANCH   1   4
BRANCH   1  17
ATOM     13  C   UNL     1       0.665  11.316  19.154  0.00  0.00    +0.000 C 
ATOM     14  C   UNL     1       1.192   9.912  19.145  0.00  0.00    +0.000 A 
ATOM     15  C   UNL     1       1.186   9.139  20.315  0.00  0.00    +0.000 A 
ATOM     16  C   UNL     1       1.681   7.838  20.298  0.00  0.00    +0.000 A 
ATOM     17  C   UNL     1       2.166   7.290  19.109  0.00  0.00    +0.000 A 
ATOM     18  C   UNL     1       2.200   8.052  17.935  0.00  0.00    +0.000 A 
ATOM     19  C   UNL     1       1.700   9.360  17.963  0.00  0.00    +0.000 A 
ENDBRANCH   1  17
TORSDOF 2
ENDMDL
MODEL 9
REMARK VINA RESULT:      -6.8      3.272      4.210
REMARK  Name = 
REMARK  3 active torsions:
REMARK  status: ('A' for Active; 'I' for Inactive)
REMARK    1  A    between atoms: C_1  and  C_2
REMARK    2  A    between atoms: C_5  and  S_6
REMARK    3  A    between atoms: S_6  and  N_9
REMARK                            x       y       z     vdW  Elec       q    Type
REMARK                         _______ _______ _______ _____ _____    ______ ____
ROOT
ATOM      1  S   UNL     1       2.622   2.886  18.079  0.00  0.00    +0.000 S 
ATOM      2  O   UNL     1       1.995   1.878  18.893  0.00  0.00    +0.000 OA
ATOM      3  O   UNL     1       2.234   3.049  16.683  0.00  0.00    +0.000 OA
ENDROOT
BRANCH   1   4
ATOM      4  N   UNL     1       4.293   2.653  18.117  0.00  0.00    +0.000 N 
ATOM      5  C   UNL     1       5.079   3.827  18.083  0.00  0.00    +0.000 A 
ATOM      6  C   UNL     1       5.419   4.554  19.214  0.00  0.00    +0.000 A 
ATOM      7  C   UNL     1       6.227   5.678  19.046  0.00  0.00    +0.000 A 
ATOM      8  C   UNL     1       6.643   6.035  17.771  0.00  0.00    +0.000 A 
ATOM      9 CL   UNL     1       7.636   7.411  17.521  0.00  0.00    +0.000 Cl
ATOM     10  C   UNL     1       6.239   5.242  16.705  0.00  0.00    +0.000 A 
ATOM     11  N   UNL     1       5.464   4.136  16.835  0.00  0.00    +0.000 NA
ATOM     12  H   UNL     1       4.592   2.038  17.363  0.00  0.00    +0.000 HD
ENDBRANCH   1   4
BRANCH   1  17
ATOM     13  C   UNL     1       1.674   8.334  20.603  0.00  0.00    +0.000 C 
ATOM     14  C   UNL     1       1.911   6.986  19.989  0.00  0.00    +0.000 A 
ATOM     15  C   UNL     1       2.196   6.864  18.622  0.00  0.00    +0.000 A 
ATOM     16  C   UNL     1       2.410   5.608  18.060  0.00  0.00    +0.000 A 
ATOM     17  C   UNL     1       2.363   4.466  18.862  0.00  0.00    +0.000 A 
ATOM     18  C   UNL     1       2.059   4.564  20.225  0.00  0.00    +0.000 A 
ATOM     19  C   UNL     1       1.845   5.832  20.780  0.00  0.00    +0.000 A 
ENDBRANCH   1  17
TORSDOF 2
ENDMDL
