MODEL 1
REMARK VINA RESULT:      -7.9      0.000      0.000
REMARK  Name = 
REMARK  4 active torsions:
REMARK  status: ('A' for Active; 'I' for Inactive)
REMARK    1  A    between atoms: C_1  and  C_2
REMARK    2  A    between atoms: N_6  and  C_7
REMARK    3  A    between atoms: N_15  and  C_16
REMARK    4  A    between atoms: C_19  and  N_20
REMARK                            x       y       z     vdW  Elec       q    Type
REMARK                         _______ _______ _______ _____ _____    ______ ____
ROOT
ATOM      1  C   UNL     1      -3.563  13.374  23.103  0.00  0.00    +0.000 C 
ATOM      2  C   UNL     1      -3.246  12.703  21.801  0.00  0.00    +0.000 A 
ATOM      3  C   UNL     1      -4.069  12.784  20.750  0.00  0.00    +0.000 A 
ATOM      4  C   UNL     1      -3.789  12.128  19.452  0.00  0.00    +0.000 A 
ATOM      5  O   UNL     1      -4.618  12.282  18.557  0.00  0.00    +0.000 OA
ATOM      6  N   UNL     1      -2.620  11.391  19.347  0.00  0.00    +0.000 N 
ATOM      7  C   UNL     1      -1.713  11.291  20.445  0.00  0.00    +0.000 A 
ATOM      8  N   UNL     1      -0.587  10.573  20.283  0.00  0.00    +0.000 NA
ATOM      9  C   UNL     1       0.286  10.497  21.297  0.00  0.00    +0.000 A 
ATOM     10  N   UNL     1       1.483   9.807  21.132  0.00  0.00    +0.000 N 
ATOM     11  N   UNL     1       0.093  11.092  22.479  0.00  0.00    +0.000 NA
ATOM     12  C   UNL     1      -1.054  11.782  22.625  0.00  0.00    +0.000 A 
ATOM     13  C   UNL     1      -2.010  11.932  21.639  0.00  0.00    +0.000 A 
ATOM     14  H   UNL     1       1.994   9.826  22.004  0.00  0.00    +0.000 HD
ENDROOT
BRANCH  10  15
ATOM     15  C   UNL     1       1.701   8.645  20.376  0.00  0.00    +0.000 A 
ATOM     16  C   UNL     1       1.531   7.401  20.981  0.00  0.00    +0.000 A 
ATOM     17  C   UNL     1       1.736   6.217  20.260  0.00  0.00    +0.000 A 
ATOM     18  C   UNL     1       2.098   6.223  18.907  0.00  0.00    +0.000 A 
ATOM     19  C   UNL     1       2.244   7.483  18.309  0.00  0.00    +0.000 A 
ATOM     20  C   UNL     1       2.052   8.672  19.026  0.00  0.00    +0.000 A 
BRANCH  18  21
ATOM     21  N   UNL     1       2.303   5.063  18.183  0.00  0.00    +0.000 N 
ATOM     22  C   UNL     1       3.554   4.768  17.488  0.00  0.00    +0.000 C 
ATOM     23  C   UNL     1       4.411   3.803  18.299  0.00  0.00    +0.000 C 
ATOM     24  C   UNL     1       3.742   2.504  18.757  0.00  0.00    +0.000 C 
ATOM     25  N   UNL     1       2.580   2.046  17.987  0.00  0.00    +0.000 NA
ATOM     26  C   UNL     1       1.355   2.760  18.414  0.00  0.00    +0.000 C 
ATOM     27  C   UNL     1       1.175   4.183  17.849  0.00  0.00    +0.000 C 
ATOM     28  H   UNL     1       2.442   1.058  18.198  0.00  0.00    +0.000 HD
ENDBRANCH  18  21
ENDBRANCH  10  15
BRANCH   6  29
ATOM     29  C   UNL     1      -2.277  10.705  18.089  0.00  0.00    +0.000 C 
ATOM     30  C   UNL     1      -3.242   9.583  17.700  0.00  0.00    +0.000 C 
ATOM     31  C   UNL     1      -2.970   9.356  16.221  0.00  0.00    +0.000 C 
ATOM     32  C   UNL     1      -2.486  10.692  15.663  0.00  0.00    +0.000 C 
ATOM     33  C   UNL     1      -2.255  11.617  16.856  0.00  0.00    +0.000 C 
ENDBRANCH   6  29
TORSDOF 3
ENDMDL
MODEL 2
REMARK VINA RESULT:      -7.9      0.737      1.143
REMARK  Name = 
REMARK  4 active torsions:
REMARK  status: ('A' for Active; 'I' for Inactive)
REMARK    1  A    between atoms: C_1  and  C_2
REMARK    2  A    between atoms: N_6  and  C_7
REMARK    3  A    between atoms: N_15  and  C_16
REMARK    4  A    between atoms: C_19  and  N_20
REMARK                            x       y       z     vdW  Elec       q    Type
REMARK                         _______ _______ _______ _____ _____    ______ ____
ROOT
ATOM      1  C   UNL     1      -4.206  13.746  22.469  0.00  0.00    +0.000 C 
ATOM      2  C   UNL     1      -3.796  13.008  21.231  0.00  0.00    +0.000 A 
ATOM      3  C   UNL     1      -4.592  12.936  20.158  0.00  0.00    +0.000 A 
ATOM      4  C   UNL     1      -4.219  12.210  18.922  0.00  0.00    +0.000 A 
ATOM      5  O   UNL     1      -5.033  12.222  18.000  0.00  0.00    +0.000 OA
ATOM      6  N   UNL     1      -2.989  11.573  18.900  0.00  0.00    +0.000 N 
ATOM      7  C   UNL     1      -2.108  11.638  20.023  0.00  0.00    +0.000 A 
ATOM      8  N   UNL     1      -0.920  11.012  19.942  0.00  0.00    +0.000 NA
ATOM      9  C   UNL     1      -0.073  11.091  20.978  0.00  0.00    +0.000 A 
ATOM     10  N   UNL     1       1.184  10.499  20.893  0.00  0.00    +0.000 N 
ATOM     11  N   UNL     1      -0.350  11.755  22.105  0.00  0.00    +0.000 NA
ATOM     12  C   UNL     1      -1.556  12.350  22.172  0.00  0.00    +0.000 A 
ATOM     13  C   UNL     1      -2.493  12.339  21.156  0.00  0.00    +0.000 A 
ATOM     14  H   UNL     1       1.666  10.629  21.772  0.00  0.00    +0.000 HD
ENDROOT
BRANCH  10  15
ATOM     15  C   UNL     1       1.522   9.306  20.235  0.00  0.00    +0.000 A 
ATOM     16  C   UNL     1       1.840   9.346  18.878  0.00  0.00    +0.000 A 
ATOM     17  C   UNL     1       2.185   8.177  18.186  0.00  0.00    +0.000 A 
ATOM     18  C   UNL     1       2.247   6.929  18.819  0.00  0.00    +0.000 A 
ATOM     19  C   UNL     1       1.945   6.911  20.188  0.00  0.00    +0.000 A 
ATOM     20  C   UNL     1       1.588   8.073  20.885  0.00  0.00    +0.000 A 
BRANCH  18  21
ATOM     21  N   UNL     1       2.587   5.769  18.149  0.00  0.00    +0.000 N 
ATOM     22  C   UNL     1       3.855   5.596  17.446  0.00  0.00    +0.000 C 
ATOM     23  C   UNL     1       4.837   4.786  18.287  0.00  0.00    +0.000 C 
ATOM     24  C   UNL     1       4.340   3.440  18.820  0.00  0.00    +0.000 C 
ATOM     25  N   UNL     1       3.235   2.803  18.096  0.00  0.00    +0.000 NA
ATOM     26  C   UNL     1       1.936   3.380  18.510  0.00  0.00    +0.000 C 
ATOM     27  C   UNL     1       1.573   4.739  17.879  0.00  0.00    +0.000 C 
ATOM     28  H   UNL     1       3.223   1.817  18.357  0.00  0.00    +0.000 HD
ENDBRANCH  18  21
ENDBRANCH  10  15
BRANCH   6  29
ATOM     29  C   UNL     1      -2.552  10.827  17.708  0.00  0.00    +0.000 C 
ATOM     30  C   UNL     1      -3.376   9.572  17.415  0.00  0.00    +0.000 C 
ATOM     31  C   UNL     1      -3.059   9.251  15.962  0.00  0.00    +0.000 C 
ATOM     32  C   UNL     1      -2.726  10.582  15.292  0.00  0.00    +0.000 C 
ATOM     33  C   UNL     1      -2.619  11.626  16.401  0.00  0.00    +0.000 C 
ENDBRANCH   6  29
TORSDOF 3
ENDMDL
MODEL 3
REMARK VINA RESULT:      -7.5      1.287      1.616
REMARK  Name = 
REMARK  4 active torsions:
REMARK  status: ('A' for Active; 'I' for Inactive)
REMARK    1  A    between atoms: C_1  and  C_2
REMARK    2  A    between atoms: N_6  and  C_7
REMARK    3  A    between atoms: N_15  and  C_16
REMARK    4  A    between atoms: C_19  and  N_20
REMARK                            x       y       z     vdW  Elec       q    Type
REMARK                         _______ _______ _______ _____ _____    ______ ____
ROOT
ATOM      1  C   UNL     1      -4.750  14.388  22.079  0.00  0.00    +0.000 C 
ATOM      2  C   UNL     1      -4.268  13.489  20.982  0.00  0.00    +0.000 A 
ATOM      3  C   UNL     1      -5.009  13.247  19.894  0.00  0.00    +0.000 A 
ATOM      4  C   UNL     1      -4.565  12.359  18.795  0.00  0.00    +0.000 A 
ATOM      5  O   UNL     1      -5.331  12.223  17.843  0.00  0.00    +0.000 OA
ATOM      6  N   UNL     1      -3.326  11.751  18.924  0.00  0.00    +0.000 N 
ATOM      7  C   UNL     1      -2.504  11.994  20.067  0.00  0.00    +0.000 A 
ATOM      8  N   UNL     1      -1.305  11.387  20.135  0.00  0.00    +0.000 NA
ATOM      9  C   UNL     1      -0.513  11.630  21.187  0.00  0.00    +0.000 A 
ATOM     10  N   UNL     1       0.754  11.058  21.249  0.00  0.00    +0.000 N 
ATOM     11  N   UNL     1      -0.855  12.443  22.192  0.00  0.00    +0.000 NA
ATOM     12  C   UNL     1      -2.071  13.017  22.115  0.00  0.00    +0.000 A 
ATOM     13  C   UNL     1      -2.955  12.842  21.067  0.00  0.00    +0.000 A 
ATOM     14  H   UNL     1       1.189  11.323  22.123  0.00  0.00    +0.000 HD
ENDROOT
BRANCH  10  15
ATOM     15  C   UNL     1       1.141   9.790  20.788  0.00  0.00    +0.000 A 
ATOM     16  C   UNL     1       1.146   8.717  21.677  0.00  0.00    +0.000 A 
ATOM     17  C   UNL     1       1.524   7.435  21.255  0.00  0.00    +0.000 A 
ATOM     18  C   UNL     1       1.891   7.166  19.930  0.00  0.00    +0.000 A 
ATOM     19  C   UNL     1       1.859   8.253  19.044  0.00  0.00    +0.000 A 
ATOM     20  C   UNL     1       1.494   9.540  19.461  0.00  0.00    +0.000 A 
BRANCH  18  21
ATOM     21  N   UNL     1       2.265   5.907  19.499  0.00  0.00    +0.000 N 
ATOM     22  C   UNL     1       2.765   4.873  20.400  0.00  0.00    +0.000 C 
ATOM     23  C   UNL     1       1.668   3.868  20.737  0.00  0.00    +0.000 C 
ATOM     24  C   UNL     1       0.932   3.230  19.556  0.00  0.00    +0.000 C 
ATOM     25  N   UNL     1       1.634   3.204  18.269  0.00  0.00    +0.000 NA
ATOM     26  C   UNL     1       1.500   4.505  17.573  0.00  0.00    +0.000 C 
ATOM     27  C   UNL     1       2.434   5.629  18.066  0.00  0.00    +0.000 C 
ATOM     28  H   UNL     1       1.180   2.503  17.684  0.00  0.00    +0.000 HD
ENDBRANCH  18  21
ENDBRANCH  10  15
BRANCH   6  29
ATOM     29  C   UNL     1      -2.820  10.850  17.875  0.00  0.00    +0.000 C 
ATOM     30  C   UNL     1      -3.755   9.686  17.540  0.00  0.00    +0.000 C 
ATOM     31  C   UNL     1      -3.268   9.197  16.184  0.00  0.00    +0.000 C 
ATOM     32  C   UNL     1      -2.656  10.409  15.485  0.00  0.00    +0.000 C 
ATOM     33  C   UNL     1      -2.576  11.529  16.521  0.00  0.00    +0.000 C 
ENDBRANCH   6  29
TORSDOF 3
ENDMDL
MODEL 4
REMARK VINA RESULT:      -7.3      1.715      2.088
REMARK  Name = 
REMARK  4 active torsions:
REMARK  status: ('A' for Active; 'I' for Inactive)
REMARK    1  A    between atoms: C_1  and  C_2
REMARK    2  A    between atoms: N_6  and  C_7
REMARK    3  A    between atoms: N_15  and  C_16
REMARK    4  A    between atoms: C_19  and  N_20
REMARK                            x       y       z     vdW  Elec       q    Type
REMARK                         _______ _______ _______ _____ _____    ______ ____
ROOT
ATOM      1  C   UNL     1      -4.901  14.802  21.823  0.00  0.00    +0.000 C 
ATOM      2  C   UNL     1      -4.576  13.759  20.798  0.00  0.00    +0.000 A 
ATOM      3  C   UNL     1      -5.513  13.252  19.989  0.00  0.00    +0.000 A 
ATOM      4  C   UNL     1      -5.226  12.215  18.970  0.00  0.00    +0.000 A 
ATOM      5  O   UNL     1      -6.170  11.834  18.280  0.00  0.00    +0.000 OA
ATOM      6  N   UNL     1      -3.922  11.756  18.874  0.00  0.00    +0.000 N 
ATOM      7  C   UNL     1      -2.894  12.282  19.715  0.00  0.00    +0.000 A 
ATOM      8  N   UNL     1      -1.643  11.808  19.570  0.00  0.00    +0.000 NA
ATOM      9  C   UNL     1      -0.665  12.315  20.332  0.00  0.00    +0.000 A 
ATOM     10  N   UNL     1       0.646  11.880  20.159  0.00  0.00    +0.000 N 
ATOM     11  N   UNL     1      -0.866  13.269  21.247  0.00  0.00    +0.000 NA
ATOM     12  C   UNL     1      -2.131  13.707  21.392  0.00  0.00    +0.000 A 
ATOM     13  C   UNL     1      -3.205  13.260  20.647  0.00  0.00    +0.000 A 
ATOM     14  H   UNL     1       1.236  12.342  20.838  0.00  0.00    +0.000 HD
ENDROOT
BRANCH  10  15
ATOM     15  C   UNL     1       1.078  10.587  19.824  0.00  0.00    +0.000 A 
ATOM     16  C   UNL     1       1.103   9.603  20.810  0.00  0.00    +0.000 A 
ATOM     17  C   UNL     1       1.527   8.300  20.515  0.00  0.00    +0.000 A 
ATOM     18  C   UNL     1       1.921   7.921  19.225  0.00  0.00    +0.000 A 
ATOM     19  C   UNL     1       1.870   8.918  18.241  0.00  0.00    +0.000 A 
ATOM     20  C   UNL     1       1.459  10.226  18.531  0.00  0.00    +0.000 A 
BRANCH  18  21
ATOM     21  N   UNL     1       2.341   6.639  18.919  0.00  0.00    +0.000 N 
ATOM     22  C   UNL     1       3.064   6.309  17.695  0.00  0.00    +0.000 C 
ATOM     23  C   UNL     1       4.560   6.180  17.964  0.00  0.00    +0.000 C 
ATOM     24  C   UNL     1       4.977   5.237  19.096  0.00  0.00    +0.000 C 
ATOM     25  N   UNL     1       4.032   4.177  19.463  0.00  0.00    +0.000 NA
ATOM     26  C   UNL     1       2.982   4.701  20.366  0.00  0.00    +0.000 C 
ATOM     27  C   UNL     1       1.843   5.488  19.687  0.00  0.00    +0.000 C 
ATOM     28  H   UNL     1       4.549   3.469  19.983  0.00  0.00    +0.000 HD
ENDBRANCH  18  21
ENDBRANCH  10  15
BRANCH   6  29
ATOM     29  C   UNL     1      -3.562  10.722  17.888  0.00  0.00    +0.000 C 
ATOM     30  C   UNL     1      -3.555  11.212  16.439  0.00  0.00    +0.000 C 
ATOM     31  C   UNL     1      -2.743  10.161  15.697  0.00  0.00    +0.000 C 
ATOM     32  C   UNL     1      -1.762   9.580  16.712  0.00  0.00    +0.000 C 
ATOM     33  C   UNL     1      -2.164  10.121  18.082  0.00  0.00    +0.000 C 
ENDBRANCH   6  29
TORSDOF 3
ENDMDL
MODEL 5
REMARK VINA RESULT:      -7.2      1.351      2.181
REMARK  Name = 
REMARK  4 active torsions:
REMARK  status: ('A' for Active; 'I' for Inactive)
REMARK    1  A    between atoms: C_1  and  C_2
REMARK    2  A    between atoms: N_6  and  C_7
REMARK    3  A    between atoms: N_15  and  C_16
REMARK    4  A    between atoms: C_19  and  N_20
REMARK                            x       y       z     vdW  Elec       q    Type
REMARK                         _______ _______ _______ _____ _____    ______ ____
ROOT
ATOM      1  C   UNL     1      -5.543  14.355  21.553  0.00  0.00    +0.000 C 
ATOM      2  C   UNL     1      -4.887  13.480  20.529  0.00  0.00    +0.000 A 
ATOM      3  C   UNL     1      -5.484  13.187  19.368  0.00  0.00    +0.000 A 
ATOM      4  C   UNL     1      -4.867  12.321  18.338  0.00  0.00    +0.000 A 
ATOM      5  O   UNL     1      -5.511  12.132  17.307  0.00  0.00    +0.000 OA
ATOM      6  N   UNL     1      -3.617  11.790  18.614  0.00  0.00    +0.000 N 
ATOM      7  C   UNL     1      -2.946  12.089  19.838  0.00  0.00    +0.000 A 
ATOM      8  N   UNL     1      -1.728  11.556  20.048  0.00  0.00    +0.000 NA
ATOM      9  C   UNL     1      -1.076  11.854  21.180  0.00  0.00    +0.000 A 
ATOM     10  N   UNL     1       0.208  11.360  21.392  0.00  0.00    +0.000 N 
ATOM     11  N   UNL     1      -1.577  12.651  22.129  0.00  0.00    +0.000 NA
ATOM     12  C   UNL     1      -2.808  13.150  21.908  0.00  0.00    +0.000 A 
ATOM     13  C   UNL     1      -3.556  12.915  20.770  0.00  0.00    +0.000 A 
ATOM     14  H   UNL     1       0.526  11.656  22.305  0.00  0.00    +0.000 HD
ENDROOT
BRANCH  10  15
ATOM     15  C   UNL     1       0.719  10.115  20.993  0.00  0.00    +0.000 A 
ATOM     16  C   UNL     1       1.095   9.930  19.664  0.00  0.00    +0.000 A 
ATOM     17  C   UNL     1       1.611   8.702  19.226  0.00  0.00    +0.000 A 
ATOM     18  C   UNL     1       1.793   7.620  20.097  0.00  0.00    +0.000 A 
ATOM     19  C   UNL     1       1.430   7.830  21.435  0.00  0.00    +0.000 A 
ATOM     20  C   UNL     1       0.902   9.051  21.877  0.00  0.00    +0.000 A 
BRANCH  18  21
ATOM     21  N   UNL     1       2.302   6.404  19.680  0.00  0.00    +0.000 N 
ATOM     22  C   UNL     1       2.781   5.381  20.605  0.00  0.00    +0.000 C 
ATOM     23  C   UNL     1       1.732   4.291  20.802  0.00  0.00    +0.000 C 
ATOM     24  C   UNL     1       1.172   3.638  19.536  0.00  0.00    +0.000 C 
ATOM     25  N   UNL     1       2.004   3.701  18.329  0.00  0.00    +0.000 NA
ATOM     26  C   UNL     1       1.847   5.009  17.653  0.00  0.00    +0.000 C 
ATOM     27  C   UNL     1       2.639   6.181  18.266  0.00  0.00    +0.000 C 
ATOM     28  H   UNL     1       1.666   2.987  17.684  0.00  0.00    +0.000 HD
ENDBRANCH  18  21
ENDBRANCH  10  15
BRANCH   6  29
ATOM     29  C   UNL     1      -2.942  10.915  17.639  0.00  0.00    +0.000 C 
ATOM     30  C   UNL     1      -3.617   9.555  17.442  0.00  0.00    +0.000 C 
ATOM     31  C   UNL     1      -3.050   9.047  16.125  0.00  0.00    +0.000 C 
ATOM     32  C   UNL     1      -2.710  10.285  15.299  0.00  0.00    +0.000 C 
ATOM     33  C   UNL     1      -2.856  11.493  16.221  0.00  0.00    +0.000 C 
ENDBRANCH   6  29
TORSDOF 3
ENDMDL
MODEL 6
REMARK VINA RESULT:      -7.2      2.927      4.447
REMARK  Name = 
REMARK  4 active torsions:
REMARK  status: ('A' for Active; 'I' for Inactive)
REMARK    1  A    between atoms: C_1  and  C_2
REMARK    2  A    between atoms: N_6  and  C_7
REMARK    3  A    between atoms: N_15  and  C_16
REMARK    4  A    between atoms: C_19  and  N_20
REMARK                            x       y       z     vdW  Elec       q    Type
REMARK                         _______ _______ _______ _____ _____    ______ ____
ROOT
ATOM      1  C   UNL     1       2.129  16.348  19.639  0.00  0.00    +0.000 C 
ATOM      2  C   UNL     1       1.501  15.091  20.159  0.00  0.00    +0.000 A 
ATOM      3  C   UNL     1       0.728  15.090  21.250  0.00  0.00    +0.000 A 
ATOM      4  C   UNL     1       0.098  13.865  21.794  0.00  0.00    +0.000 A 
ATOM      5  O   UNL     1      -0.599  13.993  22.798  0.00  0.00    +0.000 OA
ATOM      6  N   UNL     1       0.343  12.672  21.132  0.00  0.00    +0.000 N 
ATOM      7  C   UNL     1       1.156  12.637  19.958  0.00  0.00    +0.000 A 
ATOM      8  N   UNL     1       1.350  11.453  19.348  0.00  0.00    +0.000 NA
ATOM      9  C   UNL     1       2.085  11.412  18.229  0.00  0.00    +0.000 A 
ATOM     10  N   UNL     1       2.252  10.208  17.552  0.00  0.00    +0.000 N 
ATOM     11  N   UNL     1       2.653  12.492  17.683  0.00  0.00    +0.000 NA
ATOM     12  C   UNL     1       2.467  13.661  18.327  0.00  0.00    +0.000 A 
ATOM     13  C   UNL     1       1.716  13.811  19.477  0.00  0.00    +0.000 A 
ATOM     14  H   UNL     1       2.859  10.361  16.758  0.00  0.00    +0.000 HD
ENDROOT
BRANCH  10  15
ATOM     15  C   UNL     1       2.364   8.924  18.108  0.00  0.00    +0.000 A 
ATOM     16  C   UNL     1       3.134   7.966  17.453  0.00  0.00    +0.000 A 
ATOM     17  C   UNL     1       3.272   6.673  17.977  0.00  0.00    +0.000 A 
ATOM     18  C   UNL     1       2.668   6.291  19.181  0.00  0.00    +0.000 A 
ATOM     19  C   UNL     1       1.914   7.274  19.838  0.00  0.00    +0.000 A 
ATOM     20  C   UNL     1       1.761   8.565  19.314  0.00  0.00    +0.000 A 
BRANCH  18  21
ATOM     21  N   UNL     1       2.796   5.020  19.710  0.00  0.00    +0.000 N 
ATOM     22  C   UNL     1       1.930   4.506  20.768  0.00  0.00    +0.000 C 
ATOM     23  C   UNL     1       0.848   3.599  20.193  0.00  0.00    +0.000 C 
ATOM     24  C   UNL     1       1.316   2.454  19.290  0.00  0.00    +0.000 C 
ATOM     25  N   UNL     1       2.699   1.996  19.459  0.00  0.00    +0.000 NA
ATOM     26  C   UNL     1       3.637   2.878  18.728  0.00  0.00    +0.000 C 
ATOM     27  C   UNL     1       3.988   4.209  19.423  0.00  0.00    +0.000 C 
ATOM     28  H   UNL     1       2.770   1.069  19.040  0.00  0.00    +0.000 HD
ENDBRANCH  18  21
ENDBRANCH  10  15
BRANCH   6  29
ATOM     29  C   UNL     1      -0.245  11.411  21.617  0.00  0.00    +0.000 C 
ATOM     30  C   UNL     1       0.766  10.444  22.238  0.00  0.00    +0.000 C 
ATOM     31  C   UNL     1      -0.091   9.480  23.044  0.00  0.00    +0.000 C 
ATOM     32  C   UNL     1      -1.334  10.259  23.465  0.00  0.00    +0.000 C 
ATOM     33  C   UNL     1      -1.307  11.586  22.709  0.00  0.00    +0.000 C 
ENDBRANCH   6  29
TORSDOF 3
ENDMDL
MODEL 7
REMARK VINA RESULT:      -7.0      1.516      2.369
REMARK  Name = 
REMARK  4 active torsions:
REMARK  status: ('A' for Active; 'I' for Inactive)
REMARK    1  A    between atoms: C_1  and  C_2
REMARK    2  A    between atoms: N_6  and  C_7
REMARK    3  A    between atoms: N_15  and  C_16
REMARK    4  A    between atoms: C_19  and  N_20
REMARK                            x       y       z     vdW  Elec       q    Type
REMARK                         _______ _______ _______ _____ _____    ______ ____
ROOT
ATOM      1  C   UNL     1      -5.598  14.593  21.341  0.00  0.00    +0.000 C 
ATOM      2  C   UNL     1      -5.100  13.534  20.405  0.00  0.00    +0.000 A 
ATOM      3  C   UNL     1      -5.903  12.963  19.499  0.00  0.00    +0.000 A 
ATOM      4  C   UNL     1      -5.444  11.910  18.563  0.00  0.00    +0.000 A 
ATOM      5  O   UNL     1      -6.274  11.468  17.770  0.00  0.00    +0.000 OA
ATOM      6  N   UNL     1      -4.123  11.504  18.654  0.00  0.00    +0.000 N 
ATOM      7  C   UNL     1      -3.235  12.099  19.602  0.00  0.00    +0.000 A 
ATOM      8  N   UNL     1      -1.959  11.675  19.639  0.00  0.00    +0.000 NA
ATOM      9  C   UNL     1      -1.109  12.246  20.503  0.00  0.00    +0.000 A 
ATOM     10  N   UNL     1       0.228  11.862  20.518  0.00  0.00    +0.000 N 
ATOM     11  N   UNL     1      -1.465  13.218  21.350  0.00  0.00    +0.000 NA
ATOM     12  C   UNL     1      -2.755  13.605  21.313  0.00  0.00    +0.000 A 
ATOM     13  C   UNL     1      -3.704  13.090  20.451  0.00  0.00    +0.000 A 
ATOM     14  H   UNL     1       0.706  12.370  21.251  0.00  0.00    +0.000 HD
ENDROOT
BRANCH  10  15
ATOM     15  C   UNL     1       0.751  10.580  20.287  0.00  0.00    +0.000 A 
ATOM     16  C   UNL     1       0.800   9.668  21.340  0.00  0.00    +0.000 A 
ATOM     17  C   UNL     1       1.312   8.378  21.150  0.00  0.00    +0.000 A 
ATOM     18  C   UNL     1       1.776   7.938  19.904  0.00  0.00    +0.000 A 
ATOM     19  C   UNL     1       1.700   8.861  18.851  0.00  0.00    +0.000 A 
ATOM     20  C   UNL     1       1.200  10.157  19.036  0.00  0.00    +0.000 A 
BRANCH  18  21
ATOM     21  N   UNL     1       2.284   6.668  19.702  0.00  0.00    +0.000 N 
ATOM     22  C   UNL     1       2.307   5.644  20.742  0.00  0.00    +0.000 C 
ATOM     23  C   UNL     1       1.160   4.656  20.559  0.00  0.00    +0.000 C 
ATOM     24  C   UNL     1       1.024   4.005  19.180  0.00  0.00    +0.000 C 
ATOM     25  N   UNL     1       2.231   3.951  18.348  0.00  0.00    +0.000 NA
ATOM     26  C   UNL     1       2.446   5.241  17.653  0.00  0.00    +0.000 C 
ATOM     27  C   UNL     1       3.076   6.363  18.501  0.00  0.00    +0.000 C 
ATOM     28  H   UNL     1       2.078   3.244  17.629  0.00  0.00    +0.000 HD
ENDBRANCH  18  21
ENDBRANCH  10  15
BRANCH   6  29
ATOM     29  C   UNL     1      -3.596  10.458  17.761  0.00  0.00    +0.000 C 
ATOM     30  C   UNL     1      -3.678  10.803  16.272  0.00  0.00    +0.000 C 
ATOM     31  C   UNL     1      -2.703   9.838  15.614  0.00  0.00    +0.000 C 
ATOM     32  C   UNL     1      -1.633   9.530  16.659  0.00  0.00    +0.000 C 
ATOM     33  C   UNL     1      -2.116  10.122  17.981  0.00  0.00    +0.000 C 
ENDBRANCH   6  29
TORSDOF 3
ENDMDL
MODEL 8
REMARK VINA RESULT:      -6.9      2.843      3.422
REMARK  Name = 
REMARK  4 active torsions:
REMARK  status: ('A' for Active; 'I' for Inactive)
REMARK    1  A    between atoms: C_1  and  C_2
REMARK    2  A    between atoms: N_6  and  C_7
REMARK    3  A    between atoms: N_15  and  C_16
REMARK    4  A    between atoms: C_19  and  N_20
REMARK                            x       y       z     vdW  Elec       q    Type
REMARK                         _______ _______ _______ _____ _____    ______ ____
ROOT
ATOM      1  C   UNL     1      -3.010  13.610  23.333  0.00  0.00    +0.000 C 
ATOM      2  C   UNL     1      -1.801  13.426  22.468  0.00  0.00    +0.000 A 
ATOM      3  C   UNL     1      -1.293  14.432  21.746  0.00  0.00    +0.000 A 
ATOM      4  C   UNL     1      -0.104  14.282  20.876  0.00  0.00    +0.000 A 
ATOM      5  O   UNL     1       0.273  15.283  20.269  0.00  0.00    +0.000 OA
ATOM      6  N   UNL     1       0.488  13.031  20.811  0.00  0.00    +0.000 N 
ATOM      7  C   UNL     1      -0.021  11.937  21.576  0.00  0.00    +0.000 A 
ATOM      8  N   UNL     1       0.602  10.748  21.485  0.00  0.00    +0.000 NA
ATOM      9  C   UNL     1       0.151   9.722  22.219  0.00  0.00    +0.000 A 
ATOM     10  N   UNL     1       0.815   8.499  22.184  0.00  0.00    +0.000 N 
ATOM     11  N   UNL     1      -0.901   9.811  23.040  0.00  0.00    +0.000 NA
ATOM     12  C   UNL     1      -1.523  11.005  23.093  0.00  0.00    +0.000 A 
ATOM     13  C   UNL     1      -1.130  12.125  22.387  0.00  0.00    +0.000 A 
ATOM     14  H   UNL     1       0.317   7.840  22.768  0.00  0.00    +0.000 HD
ENDROOT
BRANCH  10  15
ATOM     15  C   UNL     1       1.452   7.906  21.083  0.00  0.00    +0.000 A 
ATOM     16  C   UNL     1       1.813   6.561  21.151  0.00  0.00    +0.000 A 
ATOM     17  C   UNL     1       2.449   5.932  20.072  0.00  0.00    +0.000 A 
ATOM     18  C   UNL     1       2.733   6.609  18.879  0.00  0.00    +0.000 A 
ATOM     19  C   UNL     1       2.345   7.955  18.820  0.00  0.00    +0.000 A 
ATOM     20  C   UNL     1       1.719   8.594  19.899  0.00  0.00    +0.000 A 
BRANCH  18  21
ATOM     21  N   UNL     1       3.360   6.001  17.807  0.00  0.00    +0.000 N 
ATOM     22  C   UNL     1       4.228   6.720  16.879  0.00  0.00    +0.000 C 
ATOM     23  C   UNL     1       5.697   6.481  17.212  0.00  0.00    +0.000 C 
ATOM     24  C   UNL     1       6.147   5.023  17.334  0.00  0.00    +0.000 C 
ATOM     25  N   UNL     1       5.338   4.016  16.640  0.00  0.00    +0.000 NA
ATOM     26  C   UNL     1       4.148   3.655  17.444  0.00  0.00    +0.000 C 
ATOM     27  C   UNL     1       2.971   4.648  17.384  0.00  0.00    +0.000 C 
ATOM     28  H   UNL     1       5.906   3.173  16.549  0.00  0.00    +0.000 HD
ENDBRANCH  18  21
ENDBRANCH  10  15
BRANCH   6  29
ATOM     29  C   UNL     1       1.671  12.804  19.963  0.00  0.00    +0.000 C 
ATOM     30  C   UNL     1       1.362  12.700  18.468  0.00  0.00    +0.000 C 
ATOM     31  C   UNL     1       2.707  12.928  17.795  0.00  0.00    +0.000 C 
ATOM     32  C   UNL     1       3.513  13.821  18.736  0.00  0.00    +0.000 C 
ATOM     33  C   UNL     1       2.731  13.910  20.045  0.00  0.00    +0.000 C 
ENDBRANCH   6  29
TORSDOF 3
ENDMDL
MODEL 9
REMARK VINA RESULT:      -6.8      8.122     10.722
REMARK  Name = 
REMARK  4 active torsions:
REMARK  status: ('A' for Active; 'I' for Inactive)
REMARK    1  A    between atoms: C_1  and  C_2
REMARK    2  A    between atoms: N_6  and  C_7
REMARK    3  A    between atoms: N_15  and  C_16
REMARK    4  A    between atoms: C_19  and  N_20
REMARK                            x       y       z     vdW  Elec       q    Type
REMARK                         _______ _______ _______ _____ _____    ______ ____
ROOT
ATOM      1  C   UNL     1      11.104  18.106  17.316  0.00  0.00    +0.000 C 
ATOM      2  C   UNL     1      10.549  16.777  17.728  0.00  0.00    +0.000 A 
ATOM      3  C   UNL     1      11.265  15.652  17.621  0.00  0.00    +0.000 A 
ATOM      4  C   UNL     1      10.744  14.322  18.012  0.00  0.00    +0.000 A 
ATOM      5  O   UNL     1      11.501  13.363  17.875  0.00  0.00    +0.000 OA
ATOM      6  N   UNL     1       9.447  14.260  18.498  0.00  0.00    +0.000 N 
ATOM      7  C   UNL     1       8.657  15.442  18.635  0.00  0.00    +0.000 A 
ATOM      8  N   UNL     1       7.409  15.326  19.125  0.00  0.00    +0.000 NA
ATOM      9  C   UNL     1       6.670  16.431  19.286  0.00  0.00    +0.000 A 
ATOM     10  N   UNL     1       5.398  16.339  19.844  0.00  0.00    +0.000 N 
ATOM     11  N   UNL     1       7.102  17.657  18.974  0.00  0.00    +0.000 NA
ATOM     12  C   UNL     1       8.344  17.744  18.460  0.00  0.00    +0.000 A 
ATOM     13  C   UNL     1       9.190  16.669  18.268  0.00  0.00    +0.000 A 
ATOM     14  H   UNL     1       4.979  17.260  19.855  0.00  0.00    +0.000 HD
ENDROOT
BRANCH  10  15
ATOM     15  C   UNL     1       4.469  15.299  19.684  0.00  0.00    +0.000 A 
ATOM     16  C   UNL     1       3.957  14.667  20.816  0.00  0.00    +0.000 A 
ATOM     17  C   UNL     1       3.027  13.625  20.698  0.00  0.00    +0.000 A 
ATOM     18  C   UNL     1       2.554  13.187  19.455  0.00  0.00    +0.000 A 
ATOM     19  C   UNL     1       3.064  13.848  18.328  0.00  0.00    +0.000 A 
ATOM     20  C   UNL     1       4.003  14.882  18.436  0.00  0.00    +0.000 A 
BRANCH  18  21
ATOM     21  N   UNL     1       1.636  12.162  19.324  0.00  0.00    +0.000 N 
ATOM     22  C   UNL     1       1.426  11.434  18.075  0.00  0.00    +0.000 C 
ATOM     23  C   UNL     1       2.149  10.092  18.099  0.00  0.00    +0.000 C 
ATOM     24  C   UNL     1       1.868   9.180  19.296  0.00  0.00    +0.000 C 
ATOM     25  N   UNL     1       0.606   9.390  20.013  0.00  0.00    +0.000 NA
ATOM     26  C   UNL     1       0.729  10.512  20.971  0.00  0.00    +0.000 C 
ATOM     27  C   UNL     1       0.627  11.926  20.367  0.00  0.00    +0.000 C 
ATOM     28  H   UNL     1       0.417   8.548  20.557  0.00  0.00    +0.000 HD
ENDBRANCH  18  21
ENDBRANCH  10  15
BRANCH   6  29
ATOM     29  C   UNL     1       8.858  12.972  18.902  0.00  0.00    +0.000 C 
ATOM     30  C   UNL     1       8.877  11.901  17.809  0.00  0.00    +0.000 C 
ATOM     31  C   UNL     1       8.664  10.597  18.562  0.00  0.00    +0.000 C 
ATOM     32  C   UNL     1       9.235  10.812  19.962  0.00  0.00    +0.000 C 
ATOM     33  C   UNL     1       9.559  12.299  20.089  0.00  0.00    +0.000 C 
ENDBRANCH   6  29
TORSDOF 3
ENDMDL
