MODEL 1
REMARK VINA RESULT:      -7.1      0.000      0.000
REMARK  Name = 
REMARK  4 active torsions:
REMARK  status: ('A' for Active; 'I' for Inactive)
REMARK    1  A    between atoms: C_1  and  C_2
REMARK    2  A    between atoms: C_4  and  C_5
REMARK    3  A    between atoms: C_10  and  C_11
REMARK    4  A    between atoms: C_11  and  N_12
REMARK                            x       y       z     vdW  Elec       q    Type
REMARK                         _______ _______ _______ _____ _____    ______ ____
ROOT
ATOM      1  C   UNL     1       8.194   8.006  17.999  0.00  0.00    +0.000 C 
ATOM      2  C   UNL     1       7.182   7.107  17.359  0.00  0.00    +0.000 A 
ATOM      3  C   UNL     1       5.928   6.940  17.911  0.00  0.00    +0.000 A 
ATOM      4  C   UNL     1       5.067   6.000  17.346  0.00  0.00    +0.000 A 
ATOM      5  C   UNL     1       5.420   5.344  16.135  0.00  0.00    +0.000 A 
ATOM      6  C   UNL     1       4.594   4.459  15.390  0.00  0.00    +0.000 A 
ATOM      7  C   UNL     1       5.037   3.877  14.200  0.00  0.00    +0.000 A 
ATOM      8  C   UNL     1       6.323   4.149  13.752  0.00  0.00    +0.000 A 
ATOM      9 BR   UNL     1       6.949   3.365  12.150  0.00  0.00    +0.000 Br
ATOM     10  C   UNL     1       7.148   5.003  14.473  0.00  0.00    +0.000 A 
ATOM     11  C   UNL     1       6.714   5.614  15.640  0.00  0.00    +0.000 A 
ATOM     12  N   UNL     1       7.573   6.443  16.251  0.00  0.00    +0.000 NA
ENDROOT
BRANCH   4  13
ATOM     13  C   UNL     1       3.786   5.706  18.058  0.00  0.00    +0.000 C 
ATOM     14  O   UNL     1       2.822   6.445  17.874  0.00  0.00    +0.000 OA
ATOM     15  N   UNL     1       3.705   4.581  18.874  0.00  0.00    +0.000 N 
ATOM     16  C   UNL     1       4.738   3.621  19.217  0.00  0.00    +0.000 C 
ATOM     17  C   UNL     1       3.978   2.327  19.418  0.00  0.00    +0.000 C 
ATOM     18  C   UNL     1       2.651   2.780  20.036  0.00  0.00    +0.000 C 
ATOM     19  C   UNL     1       2.433   4.194  19.471  0.00  0.00    +0.000 C 
BRANCH  18  20
ATOM     20  C   UNL     1       1.496   1.834  19.704  0.00  0.00    +0.000 C 
BRANCH  20  21
ATOM     21  N   UNL     1       1.006   2.007  18.340  0.00  0.00    +0.000 NA
ATOM     22  H   UNL     1       0.830   2.993  18.152  0.00  0.00    +0.000 HD
ATOM     23  H   UNL     1       0.112   1.530  18.222  0.00  0.00    +0.000 HD
ENDBRANCH  20  21
ENDBRANCH  18  20
ENDBRANCH   4  13
TORSDOF 3
ENDMDL
MODEL 2
REMARK VINA RESULT:      -7.1      3.388      6.466
REMARK  Name = 
REMARK  4 active torsions:
REMARK  status: ('A' for Active; 'I' for Inactive)
REMARK    1  A    between atoms: C_1  and  C_2
REMARK    2  A    between atoms: C_4  and  C_5
REMARK    3  A    between atoms: C_10  and  C_11
REMARK    4  A    between atoms: C_11  and  N_12
REMARK                            x       y       z     vdW  Elec       q    Type
REMARK                         _______ _______ _______ _____ _____    ______ ____
ROOT
ATOM      1  C   UNL     1       1.641   2.592  21.949  0.00  0.00    +0.000 C 
ATOM      2  C   UNL     1       1.866   3.603  20.866  0.00  0.00    +0.000 A 
ATOM      3  C   UNL     1       2.323   3.222  19.621  0.00  0.00    +0.000 A 
ATOM      4  C   UNL     1       2.633   4.212  18.689  0.00  0.00    +0.000 A 
ATOM      5  C   UNL     1       2.335   5.575  18.969  0.00  0.00    +0.000 A 
ATOM      6  C   UNL     1       2.486   6.666  18.070  0.00  0.00    +0.000 A 
ATOM      7  C   UNL     1       2.149   7.969  18.444  0.00  0.00    +0.000 A 
ATOM      8  C   UNL     1       1.684   8.204  19.731  0.00  0.00    +0.000 A 
ATOM      9 BR   UNL     1       1.231   9.960  20.264  0.00  0.00    +0.000 Br
ATOM     10  C   UNL     1       1.540   7.151  20.625  0.00  0.00    +0.000 A 
ATOM     11  C   UNL     1       1.840   5.846  20.262  0.00  0.00    +0.000 A 
ATOM     12  N   UNL     1       1.644   4.894  21.186  0.00  0.00    +0.000 NA
ENDROOT
BRANCH   4  13
ATOM     13  C   UNL     1       3.289   3.794  17.413  0.00  0.00    +0.000 C 
ATOM     14  O   UNL     1       2.591   3.347  16.506  0.00  0.00    +0.000 OA
ATOM     15  N   UNL     1       4.664   3.961  17.270  0.00  0.00    +0.000 N 
ATOM     16  C   UNL     1       5.633   4.448  18.233  0.00  0.00    +0.000 C 
ATOM     17  C   UNL     1       6.685   5.124  17.379  0.00  0.00    +0.000 C 
ATOM     18  C   UNL     1       6.732   4.260  16.115  0.00  0.00    +0.000 C 
ATOM     19  C   UNL     1       5.309   3.689  15.991  0.00  0.00    +0.000 C 
BRANCH  18  20
ATOM     20  C   UNL     1       7.152   5.055  14.877  0.00  0.00    +0.000 C 
BRANCH  20  21
ATOM     21  N   UNL     1       6.735   4.416  13.633  0.00  0.00    +0.000 NA
ATOM     22  H   UNL     1       5.783   4.061  13.722  0.00  0.00    +0.000 HD
ATOM     23  H   UNL     1       7.324   3.607  13.436  0.00  0.00    +0.000 HD
ENDBRANCH  20  21
ENDBRANCH  18  20
ENDBRANCH   4  13
TORSDOF 3
ENDMDL
MODEL 3
REMARK VINA RESULT:      -7.0      1.603      1.886
REMARK  Name = 
REMARK  4 active torsions:
REMARK  status: ('A' for Active; 'I' for Inactive)
REMARK    1  A    between atoms: C_1  and  C_2
REMARK    2  A    between atoms: C_4  and  C_5
REMARK    3  A    between atoms: C_10  and  C_11
REMARK    4  A    between atoms: C_11  and  N_12
REMARK                            x       y       z     vdW  Elec       q    Type
REMARK                         _______ _______ _______ _____ _____    ______ ____
ROOT
ATOM      1  C   UNL     1       7.966   8.000  18.033  0.00  0.00    +0.000 C 
ATOM      2  C   UNL     1       7.263   6.802  17.473  0.00  0.00    +0.000 A 
ATOM      3  C   UNL     1       6.425   6.036  18.258  0.00  0.00    +0.000 A 
ATOM      4  C   UNL     1       5.893   4.863  17.724  0.00  0.00    +0.000 A 
ATOM      5  C   UNL     1       6.088   4.550  16.350  0.00  0.00    +0.000 A 
ATOM      6  C   UNL     1       5.508   3.458  15.649  0.00  0.00    +0.000 A 
ATOM      7  C   UNL     1       5.756   3.251  14.290  0.00  0.00    +0.000 A 
ATOM      8  C   UNL     1       6.611   4.114  13.619  0.00  0.00    +0.000 A 
ATOM      9 BR   UNL     1       6.971   3.848  11.783  0.00  0.00    +0.000 Br
ATOM     10  C   UNL     1       7.195   5.181  14.291  0.00  0.00    +0.000 A 
ATOM     11  C   UNL     1       6.936   5.421  15.632  0.00  0.00    +0.000 A 
ATOM     12  N   UNL     1       7.526   6.491  16.186  0.00  0.00    +0.000 NA
ENDROOT
BRANCH   4  13
ATOM     13  C   UNL     1       5.134   3.958  18.639  0.00  0.00    +0.000 C 
ATOM     14  O   UNL     1       5.737   3.388  19.545  0.00  0.00    +0.000 OA
ATOM     15  N   UNL     1       3.759   3.818  18.470  0.00  0.00    +0.000 N 
ATOM     16  C   UNL     1       2.898   4.394  17.453  0.00  0.00    +0.000 C 
ATOM     17  C   UNL     1       1.570   4.569  18.159  0.00  0.00    +0.000 C 
ATOM     18  C   UNL     1       1.502   3.363  19.102  0.00  0.00    +0.000 C 
ATOM     19  C   UNL     1       2.973   3.052  19.428  0.00  0.00    +0.000 C 
BRANCH  18  20
ATOM     20  C   UNL     1       0.673   3.646  20.356  0.00  0.00    +0.000 C 
BRANCH  20  21
ATOM     21  N   UNL     1       1.339   3.205  21.578  0.00  0.00    +0.000 NA
ATOM     22  H   UNL     1       0.663   2.786  22.216  0.00  0.00    +0.000 HD
ATOM     23  H   UNL     1       1.740   4.003  22.071  0.00  0.00    +0.000 HD
ENDBRANCH  20  21
ENDBRANCH  18  20
ENDBRANCH   4  13
TORSDOF 3
ENDMDL
MODEL 4
REMARK VINA RESULT:      -6.8      1.900      2.144
REMARK  Name = 
REMARK  4 active torsions:
REMARK  status: ('A' for Active; 'I' for Inactive)
REMARK    1  A    between atoms: C_1  and  C_2
REMARK    2  A    between atoms: C_4  and  C_5
REMARK    3  A    between atoms: C_10  and  C_11
REMARK    4  A    between atoms: C_11  and  N_12
REMARK                            x       y       z     vdW  Elec       q    Type
REMARK                         _______ _______ _______ _____ _____    ______ ____
ROOT
ATOM      1  C   UNL     1       8.013   5.982  19.304  0.00  0.00    +0.000 C 
ATOM      2  C   UNL     1       7.161   5.379  18.230  0.00  0.00    +0.000 A 
ATOM      3  C   UNL     1       5.980   4.735  18.537  0.00  0.00    +0.000 A 
ATOM      4  C   UNL     1       5.287   4.085  17.515  0.00  0.00    +0.000 A 
ATOM      5  C   UNL     1       5.712   4.219  16.165  0.00  0.00    +0.000 A 
ATOM      6  C   UNL     1       5.038   3.715  15.020  0.00  0.00    +0.000 A 
ATOM      7  C   UNL     1       5.538   3.916  13.732  0.00  0.00    +0.000 A 
ATOM      8  C   UNL     1       6.735   4.600  13.571  0.00  0.00    +0.000 A 
ATOM      9 BR   UNL     1       7.439   4.877  11.838  0.00  0.00    +0.000 Br
ATOM     10  C   UNL     1       7.414   5.091  14.679  0.00  0.00    +0.000 A 
ATOM     11  C   UNL     1       6.916   4.928  15.964  0.00  0.00    +0.000 A 
ATOM     12  N   UNL     1       7.629   5.461  16.967  0.00  0.00    +0.000 NA
ENDROOT
BRANCH   4  13
ATOM     13  C   UNL     1       4.108   3.247  17.891  0.00  0.00    +0.000 C 
ATOM     14  O   UNL     1       4.049   2.090  17.484  0.00  0.00    +0.000 OA
ATOM     15  N   UNL     1       3.133   3.783  18.728  0.00  0.00    +0.000 N 
ATOM     16  C   UNL     1       3.034   5.121  19.280  0.00  0.00    +0.000 C 
ATOM     17  C   UNL     1       2.334   4.915  20.607  0.00  0.00    +0.000 C 
ATOM     18  C   UNL     1       1.358   3.769  20.325  0.00  0.00    +0.000 C 
ATOM     19  C   UNL     1       2.045   2.948  19.220  0.00  0.00    +0.000 C 
BRANCH  18  20
ATOM     20  C   UNL     1       1.058   2.935  21.572  0.00  0.00    +0.000 C 
BRANCH  20  21
ATOM     21  N   UNL     1       2.271   2.447  22.223  0.00  0.00    +0.000 NA
ATOM     22  H   UNL     1       2.821   3.230  22.574  0.00  0.00    +0.000 HD
ATOM     23  H   UNL     1       2.863   1.961  21.549  0.00  0.00    +0.000 HD
ENDBRANCH  20  21
ENDBRANCH  18  20
ENDBRANCH   4  13
TORSDOF 3
ENDMDL
MODEL 5
REMARK VINA RESULT:      -6.6      6.657      8.301
REMARK  Name = 
REMARK  4 active torsions:
REMARK  status: ('A' for Active; 'I' for Inactive)
REMARK    1  A    between atoms: C_1  and  C_2
REMARK    2  A    between atoms: C_4  and  C_5
REMARK    3  A    between atoms: C_10  and  C_11
REMARK    4  A    between atoms: C_11  and  N_12
REMARK                            x       y       z     vdW  Elec       q    Type
REMARK                         _______ _______ _______ _____ _____    ______ ____
ROOT
ATOM      1  C   UNL     1       0.107   9.509  23.399  0.00  0.00    +0.000 C 
ATOM      2  C   UNL     1       0.461   9.460  21.944  0.00  0.00    +0.000 A 
ATOM      3  C   UNL     1       0.013  10.429  21.070  0.00  0.00    +0.000 A 
ATOM      4  C   UNL     1       0.267  10.272  19.707  0.00  0.00    +0.000 A 
ATOM      5  C   UNL     1       1.105   9.215  19.254  0.00  0.00    +0.000 A 
ATOM      6  C   UNL     1       1.542   9.008  17.918  0.00  0.00    +0.000 A 
ATOM      7  C   UNL     1       2.379   7.941  17.582  0.00  0.00    +0.000 A 
ATOM      8  C   UNL     1       2.767   7.049  18.573  0.00  0.00    +0.000 A 
ATOM      9 BR   UNL     1       3.890   5.591  18.142  0.00  0.00    +0.000 Br
ATOM     10  C   UNL     1       2.340   7.230  19.882  0.00  0.00    +0.000 A 
ATOM     11  C   UNL     1       1.535   8.301  20.240  0.00  0.00    +0.000 A 
ATOM     12  N   UNL     1       1.196   8.406  21.534  0.00  0.00    +0.000 NA
ENDROOT
BRANCH   4  13
ATOM     13  C   UNL     1      -0.373  11.233  18.759  0.00  0.00    +0.000 C 
ATOM     14  O   UNL     1       0.237  12.253  18.446  0.00  0.00    +0.000 OA
ATOM     15  N   UNL     1      -1.621  10.929  18.222  0.00  0.00    +0.000 N 
ATOM     16  C   UNL     1      -2.483   9.793  18.493  0.00  0.00    +0.000 C 
ATOM     17  C   UNL     1      -3.214   9.573  17.186  0.00  0.00    +0.000 C 
ATOM     18  C   UNL     1      -3.406  10.991  16.637  0.00  0.00    +0.000 C 
ATOM     19  C   UNL     1      -2.208  11.779  17.194  0.00  0.00    +0.000 C 
BRANCH  18  20
ATOM     20  C   UNL     1      -3.468  11.025  15.109  0.00  0.00    +0.000 C 
BRANCH  20  21
ATOM     21  N   UNL     1      -2.613  10.015  14.492  0.00  0.00    +0.000 NA
ATOM     22  H   UNL     1      -3.143   9.475  13.808  0.00  0.00    +0.000 HD
ATOM     23  H   UNL     1      -2.291   9.348  15.194  0.00  0.00    +0.000 HD
ENDBRANCH  20  21
ENDBRANCH  18  20
ENDBRANCH   4  13
TORSDOF 3
ENDMDL
MODEL 6
REMARK VINA RESULT:      -6.4      3.337      6.421
REMARK  Name = 
REMARK  4 active torsions:
REMARK  status: ('A' for Active; 'I' for Inactive)
REMARK    1  A    between atoms: C_1  and  C_2
REMARK    2  A    between atoms: C_4  and  C_5
REMARK    3  A    between atoms: C_10  and  C_11
REMARK    4  A    between atoms: C_11  and  N_12
REMARK                            x       y       z     vdW  Elec       q    Type
REMARK                         _______ _______ _______ _____ _____    ______ ____
ROOT
ATOM      1  C   UNL     1       3.264   1.553  18.537  0.00  0.00    +0.000 C 
ATOM      2  C   UNL     1       3.651   2.883  17.965  0.00  0.00    +0.000 A 
ATOM      3  C   UNL     1       4.653   2.987  17.022  0.00  0.00    +0.000 A 
ATOM      4  C   UNL     1       5.058   4.258  16.613  0.00  0.00    +0.000 A 
ATOM      5  C   UNL     1       4.343   5.409  17.044  0.00  0.00    +0.000 A 
ATOM      6  C   UNL     1       4.568   6.745  16.614  0.00  0.00    +0.000 A 
ATOM      7  C   UNL     1       3.795   7.805  17.093  0.00  0.00    +0.000 A 
ATOM      8  C   UNL     1       2.804   7.549  18.030  0.00  0.00    +0.000 A 
ATOM      9 BR   UNL     1       1.751   8.968  18.702  0.00  0.00    +0.000 Br
ATOM     10  C   UNL     1       2.577   6.251  18.470  0.00  0.00    +0.000 A 
ATOM     11  C   UNL     1       3.313   5.182  17.983  0.00  0.00    +0.000 A 
ATOM     12  N   UNL     1       3.003   3.963  18.448  0.00  0.00    +0.000 NA
ENDROOT
BRANCH   4  13
ATOM     13  C   UNL     1       6.258   4.360  15.728  0.00  0.00    +0.000 C 
ATOM     14  O   UNL     1       7.364   4.501  16.244  0.00  0.00    +0.000 OA
ATOM     15  N   UNL     1       6.098   4.248  14.350  0.00  0.00    +0.000 N 
ATOM     16  C   UNL     1       4.878   4.101  13.578  0.00  0.00    +0.000 C 
ATOM     17  C   UNL     1       5.306   3.289  12.374  0.00  0.00    +0.000 C 
ATOM     18  C   UNL     1       6.729   3.783  12.094  0.00  0.00    +0.000 C 
ATOM     19  C   UNL     1       7.262   4.207  13.474  0.00  0.00    +0.000 C 
BRANCH  18  20
ATOM     20  C   UNL     1       7.602   2.713  11.435  0.00  0.00    +0.000 C 
BRANCH  20  21
ATOM     21  N   UNL     1       6.917   1.429  11.315  0.00  0.00    +0.000 NA
ATOM     22  H   UNL     1       7.552   0.725  10.940  0.00  0.00    +0.000 HD
ATOM     23  H   UNL     1       6.147   1.500  10.650  0.00  0.00    +0.000 HD
ENDBRANCH  20  21
ENDBRANCH  18  20
ENDBRANCH   4  13
TORSDOF 3
ENDMDL
MODEL 7
REMARK VINA RESULT:      -6.2      7.320      9.282
REMARK  Name = 
REMARK  4 active torsions:
REMARK  status: ('A' for Active; 'I' for Inactive)
REMARK    1  A    between atoms: C_1  and  C_2
REMARK    2  A    between atoms: C_4  and  C_5
REMARK    3  A    between atoms: C_10  and  C_11
REMARK    4  A    between atoms: C_11  and  N_12
REMARK                            x       y       z     vdW  Elec       q    Type
REMARK                         _______ _______ _______ _____ _____    ______ ____
ROOT
ATOM      1  C   UNL     1      -0.053   9.300  23.460  0.00  0.00    +0.000 C 
ATOM      2  C   UNL     1       0.353   9.407  22.022  0.00  0.00    +0.000 A 
ATOM      3  C   UNL     1      -0.029  10.486  21.253  0.00  0.00    +0.000 A 
ATOM      4  C   UNL     1       0.270  10.478  19.890  0.00  0.00    +0.000 A 
ATOM      5  C   UNL     1       1.087   9.449  19.345  0.00  0.00    +0.000 A 
ATOM      6  C   UNL     1       1.567   9.381  18.008  0.00  0.00    +0.000 A 
ATOM      7  C   UNL     1       2.378   8.329  17.579  0.00  0.00    +0.000 A 
ATOM      8  C   UNL     1       2.699   7.314  18.470  0.00  0.00    +0.000 A 
ATOM      9 BR   UNL     1       3.787   5.874  17.909  0.00  0.00    +0.000 Br
ATOM     10  C   UNL     1       2.230   7.359  19.777  0.00  0.00    +0.000 A 
ATOM     11  C   UNL     1       1.449   8.412  20.231  0.00  0.00    +0.000 A 
ATOM     12  N   UNL     1       1.066   8.379  21.516  0.00  0.00    +0.000 NA
ENDROOT
BRANCH   4  13
ATOM     13  C   UNL     1      -0.301  11.566  19.040  0.00  0.00    +0.000 C 
ATOM     14  O   UNL     1      -1.319  11.338  18.391  0.00  0.00    +0.000 OA
ATOM     15  N   UNL     1       0.306  12.818  19.040  0.00  0.00    +0.000 N 
ATOM     16  C   UNL     1       1.511  13.252  19.724  0.00  0.00    +0.000 C 
ATOM     17  C   UNL     1       1.258  14.718  20.009  0.00  0.00    +0.000 C 
ATOM     18  C   UNL     1       0.456  15.189  18.791  0.00  0.00    +0.000 C 
ATOM     19  C   UNL     1      -0.306  13.934  18.330  0.00  0.00    +0.000 C 
BRANCH  18  20
ATOM     20  C   UNL     1      -0.481  16.352  19.122  0.00  0.00    +0.000 C 
BRANCH  20  21
ATOM     21  N   UNL     1      -1.691  15.916  19.814  0.00  0.00    +0.000 NA
ATOM     22  H   UNL     1      -2.111  15.127  19.325  0.00  0.00    +0.000 HD
ATOM     23  H   UNL     1      -2.389  16.660  19.808  0.00  0.00    +0.000 HD
ENDBRANCH  20  21
ENDBRANCH  18  20
ENDBRANCH   4  13
TORSDOF 3
ENDMDL
MODEL 8
REMARK VINA RESULT:      -6.1      2.623      3.953
REMARK  Name = 
REMARK  4 active torsions:
REMARK  status: ('A' for Active; 'I' for Inactive)
REMARK    1  A    between atoms: C_1  and  C_2
REMARK    2  A    between atoms: C_4  and  C_5
REMARK    3  A    between atoms: C_10  and  C_11
REMARK    4  A    between atoms: C_11  and  N_12
REMARK                            x       y       z     vdW  Elec       q    Type
REMARK                         _______ _______ _______ _____ _____    ______ ____
ROOT
ATOM      1  C   UNL     1       5.686   4.024  13.003  0.00  0.00    +0.000 C 
ATOM      2  C   UNL     1       5.729   4.182  14.491  0.00  0.00    +0.000 A 
ATOM      3  C   UNL     1       5.050   3.311  15.319  0.00  0.00    +0.000 A 
ATOM      4  C   UNL     1       5.021   3.574  16.689  0.00  0.00    +0.000 A 
ATOM      5  C   UNL     1       5.805   4.629  17.231  0.00  0.00    +0.000 A 
ATOM      6  C   UNL     1       5.964   4.931  18.611  0.00  0.00    +0.000 A 
ATOM      7  C   UNL     1       6.773   5.987  19.037  0.00  0.00    +0.000 A 
ATOM      8  C   UNL     1       7.412   6.774  18.089  0.00  0.00    +0.000 A 
ATOM      9 BR   UNL     1       8.504   8.216  18.641  0.00  0.00    +0.000 Br
ATOM     10  C   UNL     1       7.260   6.500  16.736  0.00  0.00    +0.000 A 
ATOM     11  C   UNL     1       6.486   5.437  16.295  0.00  0.00    +0.000 A 
ATOM     12  N   UNL     1       6.422   5.236  14.970  0.00  0.00    +0.000 NA
ENDROOT
BRANCH   4  13
ATOM     13  C   UNL     1       4.140   2.724  17.547  0.00  0.00    +0.000 C 
ATOM     14  O   UNL     1       4.434   1.543  17.711  0.00  0.00    +0.000 OA
ATOM     15  N   UNL     1       3.038   3.302  18.171  0.00  0.00    +0.000 N 
ATOM     16  C   UNL     1       2.538   4.661  18.074  0.00  0.00    +0.000 C 
ATOM     17  C   UNL     1       1.914   4.915  19.429  0.00  0.00    +0.000 C 
ATOM     18  C   UNL     1       1.327   3.554  19.817  0.00  0.00    +0.000 C 
ATOM     19  C   UNL     1       2.242   2.533  19.119  0.00  0.00    +0.000 C 
BRANCH  18  20
ATOM     20  C   UNL     1       1.273   3.350  21.332  0.00  0.00    +0.000 C 
BRANCH  20  21
ATOM     21  N   UNL     1       2.539   2.870  21.877  0.00  0.00    +0.000 NA
ATOM     22  H   UNL     1       2.898   2.102  21.311  0.00  0.00    +0.000 HD
ATOM     23  H   UNL     1       2.401   2.493  22.815  0.00  0.00    +0.000 HD
ENDBRANCH  20  21
ENDBRANCH  18  20
ENDBRANCH   4  13
TORSDOF 3
ENDMDL
MODEL 9
REMARK VINA RESULT:      -6.1      3.981      5.671
REMARK  Name = 
REMARK  4 active torsions:
REMARK  status: ('A' for Active; 'I' for Inactive)
REMARK    1  A    between atoms: C_1  and  C_2
REMARK    2  A    between atoms: C_4  and  C_5
REMARK    3  A    between atoms: C_10  and  C_11
REMARK    4  A    between atoms: C_11  and  N_12
REMARK                            x       y       z     vdW  Elec       q    Type
REMARK                         _______ _______ _______ _____ _____    ______ ____
ROOT
ATOM      1  C   UNL     1       1.556   3.881  20.702  0.00  0.00    +0.000 C 
ATOM      2  C   UNL     1       2.234   4.783  19.718  0.00  0.00    +0.000 A 
ATOM      3  C   UNL     1       1.967   6.137  19.692  0.00  0.00    +0.000 A 
ATOM      4  C   UNL     1       2.530   6.912  18.679  0.00  0.00    +0.000 A 
ATOM      5  C   UNL     1       3.482   6.342  17.788  0.00  0.00    +0.000 A 
ATOM      6  C   UNL     1       4.219   7.039  16.792  0.00  0.00    +0.000 A 
ATOM      7  C   UNL     1       5.143   6.381  15.977  0.00  0.00    +0.000 A 
ATOM      8  C   UNL     1       5.322   5.013  16.125  0.00  0.00    +0.000 A 
ATOM      9 BR   UNL     1       6.559   4.098  15.026  0.00  0.00    +0.000 Br
ATOM     10  C   UNL     1       4.602   4.314  17.086  0.00  0.00    +0.000 A 
ATOM     11  C   UNL     1       3.704   4.955  17.926  0.00  0.00    +0.000 A 
ATOM     12  N   UNL     1       3.076   4.200  18.840  0.00  0.00    +0.000 NA
ENDROOT
BRANCH   4  13
ATOM     13  C   UNL     1       2.094   8.336  18.561  0.00  0.00    +0.000 C 
ATOM     14  O   UNL     1       2.197   8.900  17.474  0.00  0.00    +0.000 OA
ATOM     15  N   UNL     1       1.541   8.972  19.669  0.00  0.00    +0.000 N 
ATOM     16  C   UNL     1       1.363   8.470  21.019  0.00  0.00    +0.000 C 
ATOM     17  C   UNL     1       0.119   9.180  21.509  0.00  0.00    +0.000 C 
ATOM     18  C   UNL     1       0.211  10.562  20.855  0.00  0.00    +0.000 C 
ATOM     19  C   UNL     1       0.983  10.313  19.547  0.00  0.00    +0.000 C 
BRANCH  18  20
ATOM     20  C   UNL     1      -1.163  11.188  20.612  0.00  0.00    +0.000 C 
BRANCH  20  21
ATOM     21  N   UNL     1      -1.499  11.267  19.193  0.00  0.00    +0.000 NA
ATOM     22  H   UNL     1      -2.364  10.760  19.007  0.00  0.00    +0.000 HD
ATOM     23  H   UNL     1      -0.777  10.813  18.633  0.00  0.00    +0.000 HD
ENDBRANCH  20  21
ENDBRANCH  18  20
ENDBRANCH   4  13
TORSDOF 3
ENDMDL
