MODEL 1
REMARK VINA RESULT:      -9.0      0.000      0.000
REMARK  Name = 
REMARK  11 active torsions:
REMARK  status: ('A' for Active; 'I' for Inactive)
REMARK    1  A    between atoms: C_1  and  C_2
REMARK    2  A    between atoms: C_6  and  C_7
REMARK    3  A    between atoms: C_8  and  N_9
REMARK    4  A    between atoms: C_10  and  C_12
REMARK    5  A    between atoms: C_12  and  C_13
REMARK    6  A    between atoms: C_12  and  N_23
REMARK    7  A    between atoms: C_13  and  C_14
REMARK    8  A    between atoms: N_23  and  C_24
REMARK    9  A    between atoms: C_24  and  C_25
REMARK   10  A    between atoms: C_25  and  C_26
REMARK   11  A    between atoms: C_26  and  C_27
REMARK                            x       y       z     vdW  Elec       q    Type
REMARK                         _______ _______ _______ _____ _____    ______ ____
ROOT
ATOM      1  C   UNL     1       6.395   6.179  18.013  0.00  0.00    +0.000 C 
ENDROOT
BRANCH   1   3
ATOM      2  N   UNL     1       4.584   5.104  19.380  0.00  0.00    +0.000 N 
ATOM      3  C   UNL     1       4.895   5.782  18.217  0.00  0.00    +0.000 C 
ATOM      4  O   UNL     1       4.082   5.994  17.314  0.00  0.00    +0.000 OA
ATOM      5  H   UNL     1       5.362   4.732  19.902  0.00  0.00    +0.000 HD
BRANCH   2  13
ATOM      6  C   UNL     1       2.216   6.880  20.108  0.00  0.00    +0.000 C 
ATOM      7  C   UNL     1       2.198   5.375  20.055  0.00  0.00    +0.000 A 
ATOM      8  C   UNL     1       1.002   4.745  20.456  0.00  0.00    +0.000 A 
ATOM      9  C   UNL     1       0.903   3.361  20.540  0.00  0.00    +0.000 A 
ATOM     10  C   UNL     1       2.004   2.575  20.227  0.00  0.00    +0.000 A 
ATOM     11  C   UNL     1       3.220   3.163  19.839  0.00  0.00    +0.000 A 
ATOM     12  C   UNL     1       4.329   2.236  19.411  0.00  0.00    +0.000 C 
ATOM     13  C   UNL     1       3.317   4.574  19.729  0.00  0.00    +0.000 A 
ENDBRANCH   2  13
ENDBRANCH   1   3
BRANCH   1  14
ATOM     14  N   UNL     1       6.538   7.437  17.218  0.00  0.00    +0.000 NA
ATOM     15  H   UNL     1       5.976   8.177  17.634  0.00  0.00    +0.000 HD
BRANCH  14  16
ATOM     16  C   UNL     1       7.913   7.904  17.047  0.00  0.00    +0.000 C 
BRANCH  16  17
ATOM     17  C   UNL     1       8.348   8.648  18.317  0.00  0.00    +0.000 C 
BRANCH  17  18
ATOM     18  C   UNL     1       8.312  10.165  18.110  0.00  0.00    +0.000 C 
BRANCH  18  19
ATOM     19  C   UNL     1       9.531  10.851  18.678  0.00  0.00    +0.000 A 
ATOM     20  C   UNL     1      10.597  11.226  17.848  0.00  0.00    +0.000 A 
ATOM     21  C   UNL     1      11.717  11.870  18.380  0.00  0.00    +0.000 A 
ATOM     22  C   UNL     1      11.785  12.139  19.745  0.00  0.00    +0.000 A 
ATOM     23  C   UNL     1      10.736  11.759  20.581  0.00  0.00    +0.000 A 
ATOM     24  C   UNL     1       9.617  11.115  20.051  0.00  0.00    +0.000 A 
ENDBRANCH  18  19
ENDBRANCH  17  18
ENDBRANCH  16  17
ENDBRANCH  14  16
ENDBRANCH   1  14
BRANCH   1  25
ATOM     25  C   UNL     1       7.296   5.141  17.315  0.00  0.00    +0.000 C 
BRANCH  25  26
ATOM     26  C   UNL     1       6.711   4.433  16.135  0.00  0.00    +0.000 A 
ATOM     27  C   UNL     1       5.762   3.438  16.148  0.00  0.00    +0.000 A 
ATOM     28  N   UNL     1       5.520   3.050  14.856  0.00  0.00    +0.000 N 
ATOM     29  C   UNL     1       6.298   3.778  13.992  0.00  0.00    +0.000 A 
ATOM     30  C   UNL     1       6.394   3.711  12.592  0.00  0.00    +0.000 A 
ATOM     31  C   UNL     1       7.263   4.605  11.961  0.00  0.00    +0.000 A 
ATOM     32  C   UNL     1       8.011   5.520  12.697  0.00  0.00    +0.000 A 
ATOM     33  C   UNL     1       7.918   5.558  14.093  0.00  0.00    +0.000 A 
ATOM     34  C   UNL     1       7.045   4.670  14.758  0.00  0.00    +0.000 A 
ATOM     35  H   UNL     1       4.864   2.336  14.573  0.00  0.00    +0.000 HD
ENDBRANCH  25  26
ENDBRANCH   1  25
TORSDOF 9
ENDMDL
MODEL 2
REMARK VINA RESULT:      -8.7      1.357      1.798
REMARK  Name = 
REMARK  11 active torsions:
REMARK  status: ('A' for Active; 'I' for Inactive)
REMARK    1  A    between atoms: C_1  and  C_2
REMARK    2  A    between atoms: C_6  and  C_7
REMARK    3  A    between atoms: C_8  and  N_9
REMARK    4  A    between atoms: C_10  and  C_12
REMARK    5  A    between atoms: C_12  and  C_13
REMARK    6  A    between atoms: C_12  and  N_23
REMARK    7  A    between atoms: C_13  and  C_14
REMARK    8  A    between atoms: N_23  and  C_24
REMARK    9  A    between atoms: C_24  and  C_25
REMARK   10  A    between atoms: C_25  and  C_26
REMARK   11  A    between atoms: C_26  and  C_27
REMARK                            x       y       z     vdW  Elec       q    Type
REMARK                         _______ _______ _______ _____ _____    ______ ____
ROOT
ATOM      1  C   UNL     1       6.564   4.934  17.473  0.00  0.00    +0.000 C 
ENDROOT
BRANCH   1   3
ATOM      2  N   UNL     1       4.202   4.356  18.101  0.00  0.00    +0.000 N 
ATOM      3  C   UNL     1       5.510   4.470  18.533  0.00  0.00    +0.000 C 
ATOM      4  O   UNL     1       5.854   4.322  19.708  0.00  0.00    +0.000 OA
ATOM      5  H   UNL     1       3.988   4.778  17.210  0.00  0.00    +0.000 HD
BRANCH   2  13
ATOM      6  C   UNL     1       2.630   6.485  19.613  0.00  0.00    +0.000 C 
ATOM      7  C   UNL     1       2.321   5.011  19.602  0.00  0.00    +0.000 A 
ATOM      8  C   UNL     1       1.262   4.583  20.429  0.00  0.00    +0.000 A 
ATOM      9  C   UNL     1       0.951   3.236  20.573  0.00  0.00    +0.000 A 
ATOM     10  C   UNL     1       1.699   2.284  19.892  0.00  0.00    +0.000 A 
ATOM     11  C   UNL     1       2.773   2.666  19.072  0.00  0.00    +0.000 A 
ATOM     12  C   UNL     1       3.461   1.579  18.284  0.00  0.00    +0.000 C 
ATOM     13  C   UNL     1       3.077   4.041  18.903  0.00  0.00    +0.000 A 
ENDBRANCH   2  13
ENDBRANCH   1   3
BRANCH   1  14
ATOM     14  N   UNL     1       7.546   5.902  18.048  0.00  0.00    +0.000 NA
ATOM     15  H   UNL     1       8.484   5.685  17.719  0.00  0.00    +0.000 HD
BRANCH  14  16
ATOM     16  C   UNL     1       7.249   7.310  17.784  0.00  0.00    +0.000 C 
BRANCH  16  17
ATOM     17  C   UNL     1       8.316   8.180  18.464  0.00  0.00    +0.000 C 
BRANCH  17  18
ATOM     18  C   UNL     1       8.418   9.554  17.796  0.00  0.00    +0.000 C 
BRANCH  18  19
ATOM     19  C   UNL     1       9.323  10.495  18.554  0.00  0.00    +0.000 A 
ATOM     20  C   UNL     1      10.199  11.353  17.874  0.00  0.00    +0.000 A 
ATOM     21  C   UNL     1      11.026  12.227  18.583  0.00  0.00    +0.000 A 
ATOM     22  C   UNL     1      10.991  12.249  19.976  0.00  0.00    +0.000 A 
ATOM     23  C   UNL     1      10.133  11.392  20.662  0.00  0.00    +0.000 A 
ATOM     24  C   UNL     1       9.305  10.516  19.955  0.00  0.00    +0.000 A 
ENDBRANCH  18  19
ENDBRANCH  17  18
ENDBRANCH  16  17
ENDBRANCH  14  16
ENDBRANCH   1  14
BRANCH   1  25
ATOM     25  C   UNL     1       6.015   5.604  16.198  0.00  0.00    +0.000 C 
BRANCH  25  26
ATOM     26  C   UNL     1       6.737   5.310  14.923  0.00  0.00    +0.000 A 
ATOM     27  C   UNL     1       7.975   5.772  14.542  0.00  0.00    +0.000 A 
ATOM     28  N   UNL     1       8.258   5.283  13.294  0.00  0.00    +0.000 N 
ATOM     29  C   UNL     1       7.221   4.502  12.848  0.00  0.00    +0.000 A 
ATOM     30  C   UNL     1       7.069   3.816  11.631  0.00  0.00    +0.000 A 
ATOM     31  C   UNL     1       5.903   3.066  11.455  0.00  0.00    +0.000 A 
ATOM     32  C   UNL     1       4.927   3.011  12.447  0.00  0.00    +0.000 A 
ATOM     33  C   UNL     1       5.087   3.717  13.645  0.00  0.00    +0.000 A 
ATOM     34  C   UNL     1       6.257   4.481  13.853  0.00  0.00    +0.000 A 
ATOM     35  H   UNL     1       9.104   5.462  12.773  0.00  0.00    +0.000 HD
ENDBRANCH  25  26
ENDBRANCH   1  25
TORSDOF 9
ENDMDL
MODEL 3
REMARK VINA RESULT:      -8.6      1.461      5.474
REMARK  Name = 
REMARK  11 active torsions:
REMARK  status: ('A' for Active; 'I' for Inactive)
REMARK    1  A    between atoms: C_1  and  C_2
REMARK    2  A    between atoms: C_6  and  C_7
REMARK    3  A    between atoms: C_8  and  N_9
REMARK    4  A    between atoms: C_10  and  C_12
REMARK    5  A    between atoms: C_12  and  C_13
REMARK    6  A    between atoms: C_12  and  N_23
REMARK    7  A    between atoms: C_13  and  C_14
REMARK    8  A    between atoms: N_23  and  C_24
REMARK    9  A    between atoms: C_24  and  C_25
REMARK   10  A    between atoms: C_25  and  C_26
REMARK   11  A    between atoms: C_26  and  C_27
REMARK                            x       y       z     vdW  Elec       q    Type
REMARK                         _______ _______ _______ _____ _____    ______ ____
ROOT
ATOM      1  C   UNL     1       6.551   7.230  17.262  0.00  0.00    +0.000 C 
ENDROOT
BRANCH   1   3
ATOM      2  N   UNL     1       7.002   5.532  15.467  0.00  0.00    +0.000 N 
ATOM      3  C   UNL     1       6.146   6.512  15.931  0.00  0.00    +0.000 C 
ATOM      4  O   UNL     1       5.156   6.902  15.307  0.00  0.00    +0.000 OA
ATOM      5  H   UNL     1       7.915   5.499  15.894  0.00  0.00    +0.000 HD
BRANCH   2  13
ATOM      6  C   UNL     1       8.748   6.138  13.044  0.00  0.00    +0.000 C 
ATOM      7  C   UNL     1       7.689   5.070  13.114  0.00  0.00    +0.000 A 
ATOM      8  C   UNL     1       7.439   4.352  11.927  0.00  0.00    +0.000 A 
ATOM      9  C   UNL     1       6.419   3.411  11.849  0.00  0.00    +0.000 A 
ATOM     10  C   UNL     1       5.621   3.171  12.960  0.00  0.00    +0.000 A 
ATOM     11  C   UNL     1       5.825   3.877  14.157  0.00  0.00    +0.000 A 
ATOM     12  C   UNL     1       4.988   3.477  15.345  0.00  0.00    +0.000 C 
ATOM     13  C   UNL     1       6.881   4.820  14.248  0.00  0.00    +0.000 A 
ENDBRANCH   2  13
ENDBRANCH   1   3
BRANCH   1  14
ATOM     14  N   UNL     1       7.792   8.046  17.101  0.00  0.00    +0.000 NA
ATOM     15  H   UNL     1       7.602   8.859  16.520  0.00  0.00    +0.000 HD
BRANCH  14  16
ATOM     16  C   UNL     1       8.414   8.475  18.353  0.00  0.00    +0.000 C 
BRANCH  16  17
ATOM     17  C   UNL     1       8.740   9.972  18.259  0.00  0.00    +0.000 C 
BRANCH  17  18
ATOM     18  C   UNL     1       9.532  10.443  19.482  0.00  0.00    +0.000 C 
BRANCH  18  19
ATOM     19  C   UNL     1      10.503  11.549  19.146  0.00  0.00    +0.000 A 
ATOM     20  C   UNL     1      10.945  12.443  20.132  0.00  0.00    +0.000 A 
ATOM     21  C   UNL     1      11.851  13.457  19.815  0.00  0.00    +0.000 A 
ATOM     22  C   UNL     1      12.320  13.593  18.510  0.00  0.00    +0.000 A 
ATOM     23  C   UNL     1      11.878  12.717  17.519  0.00  0.00    +0.000 A 
ATOM     24  C   UNL     1      10.972  11.703  17.834  0.00  0.00    +0.000 A 
ENDBRANCH  18  19
ENDBRANCH  17  18
ENDBRANCH  16  17
ENDBRANCH  14  16
ENDBRANCH   1  14
BRANCH   1  25
ATOM     25  C   UNL     1       6.800   6.328  18.486  0.00  0.00    +0.000 C 
BRANCH  25  26
ATOM     26  C   UNL     1       5.849   5.191  18.684  0.00  0.00    +0.000 A 
ATOM     27  C   UNL     1       6.163   3.889  18.997  0.00  0.00    +0.000 A 
ATOM     28  N   UNL     1       5.000   3.166  19.067  0.00  0.00    +0.000 N 
ATOM     29  C   UNL     1       3.925   3.977  18.804  0.00  0.00    +0.000 A 
ATOM     30  C   UNL     1       2.556   3.667  18.751  0.00  0.00    +0.000 A 
ATOM     31  C   UNL     1       1.668   4.713  18.483  0.00  0.00    +0.000 A 
ATOM     32  C   UNL     1       2.128   6.009  18.269  0.00  0.00    +0.000 A 
ATOM     33  C   UNL     1       3.498   6.295  18.306  0.00  0.00    +0.000 A 
ATOM     34  C   UNL     1       4.419   5.260  18.578  0.00  0.00    +0.000 A 
ATOM     35  H   UNL     1       4.936   2.182  19.284  0.00  0.00    +0.000 HD
ENDBRANCH  25  26
ENDBRANCH   1  25
TORSDOF 9
ENDMDL
MODEL 4
REMARK VINA RESULT:      -8.4      1.644      5.568
REMARK  Name = 
REMARK  11 active torsions:
REMARK  status: ('A' for Active; 'I' for Inactive)
REMARK    1  A    between atoms: C_1  and  C_2
REMARK    2  A    between atoms: C_6  and  C_7
REMARK    3  A    between atoms: C_8  and  N_9
REMARK    4  A    between atoms: C_10  and  C_12
REMARK    5  A    between atoms: C_12  and  C_13
REMARK    6  A    between atoms: C_12  and  N_23
REMARK    7  A    between atoms: C_13  and  C_14
REMARK    8  A    between atoms: N_23  and  C_24
REMARK    9  A    between atoms: C_24  and  C_25
REMARK   10  A    between atoms: C_25  and  C_26
REMARK   11  A    between atoms: C_26  and  C_27
REMARK                            x       y       z     vdW  Elec       q    Type
REMARK                         _______ _______ _______ _____ _____    ______ ____
ROOT
ATOM      1  C   UNL     1       6.650   6.563  17.549  0.00  0.00    +0.000 C 
ENDROOT
BRANCH   1   3
ATOM      2  N   UNL     1       6.448   5.751  15.181  0.00  0.00    +0.000 N 
ATOM      3  C   UNL     1       7.012   5.536  16.423  0.00  0.00    +0.000 C 
ATOM      4  O   UNL     1       7.688   4.543  16.702  0.00  0.00    +0.000 OA
ATOM      5  H   UNL     1       5.690   6.415  15.143  0.00  0.00    +0.000 HD
BRANCH   2  13
ATOM      6  C   UNL     1       8.649   6.101  13.103  0.00  0.00    +0.000 C 
ATOM      7  C   UNL     1       7.584   5.037  13.079  0.00  0.00    +0.000 A 
ATOM      8  C   UNL     1       7.568   4.188  11.953  0.00  0.00    +0.000 A 
ATOM      9  C   UNL     1       6.572   3.234  11.778  0.00  0.00    +0.000 A 
ATOM     10  C   UNL     1       5.566   3.111  12.727  0.00  0.00    +0.000 A 
ATOM     11  C   UNL     1       5.536   3.948  13.854  0.00  0.00    +0.000 A 
ATOM     12  C   UNL     1       4.473   3.675  14.889  0.00  0.00    +0.000 C 
ATOM     13  C   UNL     1       6.564   4.906  14.049  0.00  0.00    +0.000 A 
ENDBRANCH   2  13
ENDBRANCH   1   3
BRANCH   1  14
ATOM     14  N   UNL     1       7.868   7.194  18.141  0.00  0.00    +0.000 NA
ATOM     15  H   UNL     1       8.595   6.494  18.272  0.00  0.00    +0.000 HD
BRANCH  14  16
ATOM     16  C   UNL     1       8.407   8.323  17.383  0.00  0.00    +0.000 C 
BRANCH  16  17
ATOM     17  C   UNL     1       8.150   9.617  18.168  0.00  0.00    +0.000 C 
BRANCH  17  18
ATOM     18  C   UNL     1       9.242   9.856  19.215  0.00  0.00    +0.000 C 
BRANCH  18  19
ATOM     19  C   UNL     1       9.992  11.144  18.979  0.00  0.00    +0.000 A 
ATOM     20  C   UNL     1       9.711  11.946  17.864  0.00  0.00    +0.000 A 
ATOM     21  C   UNL     1      10.404  13.142  17.659  0.00  0.00    +0.000 A 
ATOM     22  C   UNL     1      11.386  13.544  18.561  0.00  0.00    +0.000 A 
ATOM     23  C   UNL     1      11.682  12.749  19.666  0.00  0.00    +0.000 A 
ATOM     24  C   UNL     1      10.992  11.552  19.873  0.00  0.00    +0.000 A 
ENDBRANCH  18  19
ENDBRANCH  17  18
ENDBRANCH  16  17
ENDBRANCH  14  16
ENDBRANCH   1  14
BRANCH   1  25
ATOM     25  C   UNL     1       5.837   6.023  18.742  0.00  0.00    +0.000 C 
BRANCH  25  26
ATOM     26  C   UNL     1       4.392   5.732  18.490  0.00  0.00    +0.000 A 
ATOM     27  C   UNL     1       3.383   6.644  18.285  0.00  0.00    +0.000 A 
ATOM     28  N   UNL     1       2.208   5.960  18.114  0.00  0.00    +0.000 N 
ATOM     29  C   UNL     1       2.431   4.609  18.203  0.00  0.00    +0.000 A 
ATOM     30  C   UNL     1       1.525   3.539  18.109  0.00  0.00    +0.000 A 
ATOM     31  C   UNL     1       2.042   2.245  18.213  0.00  0.00    +0.000 A 
ATOM     32  C   UNL     1       3.404   2.030  18.414  0.00  0.00    +0.000 A 
ATOM     33  C   UNL     1       4.288   3.109  18.527  0.00  0.00    +0.000 A 
ATOM     34  C   UNL     1       3.795   4.428  18.420  0.00  0.00    +0.000 A 
ATOM     35  H   UNL     1       1.307   6.382  17.942  0.00  0.00    +0.000 HD
ENDBRANCH  25  26
ENDBRANCH   1  25
TORSDOF 9
ENDMDL
MODEL 5
REMARK VINA RESULT:      -8.4      1.398      2.416
REMARK  Name = 
REMARK  11 active torsions:
REMARK  status: ('A' for Active; 'I' for Inactive)
REMARK    1  A    between atoms: C_1  and  C_2
REMARK    2  A    between atoms: C_6  and  C_7
REMARK    3  A    between atoms: C_8  and  N_9
REMARK    4  A    between atoms: C_10  and  C_12
REMARK    5  A    between atoms: C_12  and  C_13
REMARK    6  A    between atoms: C_12  and  N_23
REMARK    7  A    between atoms: C_13  and  C_14
REMARK    8  A    between atoms: N_23  and  C_24
REMARK    9  A    between atoms: C_24  and  C_25
REMARK   10  A    between atoms: C_25  and  C_26
REMARK   11  A    between atoms: C_26  and  C_27
REMARK                            x       y       z     vdW  Elec       q    Type
REMARK                         _______ _______ _______ _____ _____    ______ ____
ROOT
ATOM      1  C   UNL     1       6.551   5.062  17.599  0.00  0.00    +0.000 C 
ENDROOT
BRANCH   1   3
ATOM      2  N   UNL     1       4.472   3.972  18.492  0.00  0.00    +0.000 N 
ATOM      3  C   UNL     1       5.555   4.781  18.775  0.00  0.00    +0.000 C 
ATOM      4  O   UNL     1       5.714   5.355  19.854  0.00  0.00    +0.000 OA
ATOM      5  H   UNL     1       4.285   3.800  17.516  0.00  0.00    +0.000 HD
BRANCH   2  13
ATOM      6  C   UNL     1       4.712   1.836  20.652  0.00  0.00    +0.000 C 
ATOM      7  C   UNL     1       3.496   2.685  20.393  0.00  0.00    +0.000 A 
ATOM      8  C   UNL     1       2.353   2.402  21.169  0.00  0.00    +0.000 A 
ATOM      9  C   UNL     1       1.146   3.056  20.949  0.00  0.00    +0.000 A 
ATOM     10  C   UNL     1       1.056   4.008  19.942  0.00  0.00    +0.000 A 
ATOM     11  C   UNL     1       2.166   4.308  19.135  0.00  0.00    +0.000 A 
ATOM     12  C   UNL     1       2.013   5.431  18.140  0.00  0.00    +0.000 C 
ATOM     13  C   UNL     1       3.406   3.660  19.372  0.00  0.00    +0.000 A 
ENDBRANCH   2  13
ENDBRANCH   1   3
BRANCH   1  14
ATOM     14  N   UNL     1       7.633   6.011  17.997  0.00  0.00    +0.000 NA
ATOM     15  H   UNL     1       8.509   5.748  17.552  0.00  0.00    +0.000 HD
BRANCH  14  16
ATOM     16  C   UNL     1       7.349   7.419  17.723  0.00  0.00    +0.000 C 
BRANCH  16  17
ATOM     17  C   UNL     1       8.387   8.287  18.448  0.00  0.00    +0.000 C 
BRANCH  17  18
ATOM     18  C   UNL     1       8.501   9.670  17.800  0.00  0.00    +0.000 C 
BRANCH  18  19
ATOM     19  C   UNL     1       9.403  10.597  18.580  0.00  0.00    +0.000 A 
ATOM     20  C   UNL     1       9.336  10.657  19.979  0.00  0.00    +0.000 A 
ATOM     21  C   UNL     1      10.181  11.510  20.692  0.00  0.00    +0.000 A 
ATOM     22  C   UNL     1      11.096  12.314  20.016  0.00  0.00    +0.000 A 
ATOM     23  C   UNL     1      11.163  12.271  18.625  0.00  0.00    +0.000 A 
ATOM     24  C   UNL     1      10.318  11.420  17.909  0.00  0.00    +0.000 A 
ENDBRANCH  18  19
ENDBRANCH  17  18
ENDBRANCH  16  17
ENDBRANCH  14  16
ENDBRANCH   1  14
BRANCH   1  25
ATOM     25  C   UNL     1       5.945   5.639  16.304  0.00  0.00    +0.000 C 
BRANCH  25  26
ATOM     26  C   UNL     1       6.667   5.327  15.031  0.00  0.00    +0.000 A 
ATOM     27  C   UNL     1       7.920   5.754  14.659  0.00  0.00    +0.000 A 
ATOM     28  N   UNL     1       8.195   5.260  13.411  0.00  0.00    +0.000 N 
ATOM     29  C   UNL     1       7.138   4.511  12.958  0.00  0.00    +0.000 A 
ATOM     30  C   UNL     1       6.973   3.833  11.738  0.00  0.00    +0.000 A 
ATOM     31  C   UNL     1       5.787   3.117  11.553  0.00  0.00    +0.000 A 
ATOM     32  C   UNL     1       4.805   3.088  12.539  0.00  0.00    +0.000 A 
ATOM     33  C   UNL     1       4.978   3.787  13.740  0.00  0.00    +0.000 A 
ATOM     34  C   UNL     1       6.168   4.515  13.957  0.00  0.00    +0.000 A 
ATOM     35  H   UNL     1       9.049   5.416  12.896  0.00  0.00    +0.000 HD
ENDBRANCH  25  26
ENDBRANCH   1  25
TORSDOF 9
ENDMDL
MODEL 6
REMARK VINA RESULT:      -8.3      1.678      5.689
REMARK  Name = 
REMARK  11 active torsions:
REMARK  status: ('A' for Active; 'I' for Inactive)
REMARK    1  A    between atoms: C_1  and  C_2
REMARK    2  A    between atoms: C_6  and  C_7
REMARK    3  A    between atoms: C_8  and  N_9
REMARK    4  A    between atoms: C_10  and  C_12
REMARK    5  A    between atoms: C_12  and  C_13
REMARK    6  A    between atoms: C_12  and  N_23
REMARK    7  A    between atoms: C_13  and  C_14
REMARK    8  A    between atoms: N_23  and  C_24
REMARK    9  A    between atoms: C_24  and  C_25
REMARK   10  A    between atoms: C_25  and  C_26
REMARK   11  A    between atoms: C_26  and  C_27
REMARK                            x       y       z     vdW  Elec       q    Type
REMARK                         _______ _______ _______ _____ _____    ______ ____
ROOT
ATOM      1  C   UNL     1       6.717   6.310  17.682  0.00  0.00    +0.000 C 
ENDROOT
BRANCH   1   3
ATOM      2  N   UNL     1       6.486   5.637  15.274  0.00  0.00    +0.000 N 
ATOM      3  C   UNL     1       7.084   5.365  16.489  0.00  0.00    +0.000 C 
ATOM      4  O   UNL     1       7.797   4.379  16.692  0.00  0.00    +0.000 OA
ATOM      5  H   UNL     1       5.708   6.278  15.292  0.00  0.00    +0.000 HD
BRANCH   2  13
ATOM      6  C   UNL     1       8.698   6.109  13.231  0.00  0.00    +0.000 C 
ATOM      7  C   UNL     1       7.628   5.054  13.134  0.00  0.00    +0.000 A 
ATOM      8  C   UNL     1       7.612   4.280  11.956  0.00  0.00    +0.000 A 
ATOM      9  C   UNL     1       6.612   3.344  11.716  0.00  0.00    +0.000 A 
ATOM     10  C   UNL     1       5.601   3.166  12.651  0.00  0.00    +0.000 A 
ATOM     11  C   UNL     1       5.571   3.929  13.830  0.00  0.00    +0.000 A 
ATOM     12  C   UNL     1       4.503   3.594  14.841  0.00  0.00    +0.000 C 
ATOM     13  C   UNL     1       6.603   4.866  14.090  0.00  0.00    +0.000 A 
ENDBRANCH   2  13
ENDBRANCH   1   3
BRANCH   1  14
ATOM     14  N   UNL     1       7.915   7.024  18.219  0.00  0.00    +0.000 NA
ATOM     15  H   UNL     1       8.754   6.474  18.048  0.00  0.00    +0.000 HD
BRANCH  14  16
ATOM     16  C   UNL     1       8.106   8.379  17.704  0.00  0.00    +0.000 C 
BRANCH  16  17
ATOM     17  C   UNL     1       8.791   9.230  18.783  0.00  0.00    +0.000 C 
BRANCH  17  18
ATOM     18  C   UNL     1       9.273  10.566  18.212  0.00  0.00    +0.000 C 
BRANCH  18  19
ATOM     19  C   UNL     1       9.437  11.621  19.278  0.00  0.00    +0.000 A 
ATOM     20  C   UNL     1       9.554  11.266  20.630  0.00  0.00    +0.000 A 
ATOM     21  C   UNL     1       9.715  12.249  21.609  0.00  0.00    +0.000 A 
ATOM     22  C   UNL     1       9.755  13.594  21.250  0.00  0.00    +0.000 A 
ATOM     23  C   UNL     1       9.627  13.959  19.911  0.00  0.00    +0.000 A 
ATOM     24  C   UNL     1       9.465  12.979  18.930  0.00  0.00    +0.000 A 
ENDBRANCH  18  19
ENDBRANCH  17  18
ENDBRANCH  16  17
ENDBRANCH  14  16
ENDBRANCH   1  14
BRANCH   1  25
ATOM     25  C   UNL     1       6.042   5.652  18.902  0.00  0.00    +0.000 C 
BRANCH  25  26
ATOM     26  C   UNL     1       4.559   5.474  18.831  0.00  0.00    +0.000 A 
ATOM     27  C   UNL     1       3.596   6.442  18.990  0.00  0.00    +0.000 A 
ATOM     28  N   UNL     1       2.364   5.855  18.870  0.00  0.00    +0.000 N 
ATOM     29  C   UNL     1       2.504   4.510  18.632  0.00  0.00    +0.000 A 
ATOM     30  C   UNL     1       1.524   3.520  18.459  0.00  0.00    +0.000 A 
ATOM     31  C   UNL     1       1.960   2.217  18.200  0.00  0.00    +0.000 A 
ATOM     32  C   UNL     1       3.318   1.916  18.128  0.00  0.00    +0.000 A 
ATOM     33  C   UNL     1       4.281   2.913  18.324  0.00  0.00    +0.000 A 
ATOM     34  C   UNL     1       3.869   4.239  18.582  0.00  0.00    +0.000 A 
ATOM     35  H   UNL     1       1.478   6.334  18.939  0.00  0.00    +0.000 HD
ENDBRANCH  25  26
ENDBRANCH   1  25
TORSDOF 9
ENDMDL
MODEL 7
REMARK VINA RESULT:      -8.3      1.409      2.396
REMARK  Name = 
REMARK  11 active torsions:
REMARK  status: ('A' for Active; 'I' for Inactive)
REMARK    1  A    between atoms: C_1  and  C_2
REMARK    2  A    between atoms: C_6  and  C_7
REMARK    3  A    between atoms: C_8  and  N_9
REMARK    4  A    between atoms: C_10  and  C_12
REMARK    5  A    between atoms: C_12  and  C_13
REMARK    6  A    between atoms: C_12  and  N_23
REMARK    7  A    between atoms: C_13  and  C_14
REMARK    8  A    between atoms: N_23  and  C_24
REMARK    9  A    between atoms: C_24  and  C_25
REMARK   10  A    between atoms: C_25  and  C_26
REMARK   11  A    between atoms: C_26  and  C_27
REMARK                            x       y       z     vdW  Elec       q    Type
REMARK                         _______ _______ _______ _____ _____    ______ ____
ROOT
ATOM      1  C   UNL     1       6.571   5.148  17.462  0.00  0.00    +0.000 C 
ENDROOT
BRANCH   1   3
ATOM      2  N   UNL     1       4.306   4.364  18.212  0.00  0.00    +0.000 N 
ATOM      3  C   UNL     1       5.608   4.637  18.586  0.00  0.00    +0.000 C 
ATOM      4  O   UNL     1       6.005   4.593  19.752  0.00  0.00    +0.000 OA
ATOM      5  H   UNL     1       4.019   4.710  17.309  0.00  0.00    +0.000 HD
BRANCH   2  13
ATOM      6  C   UNL     1       3.553   1.446  18.669  0.00  0.00    +0.000 C 
ATOM      7  C   UNL     1       2.889   2.633  19.315  0.00  0.00    +0.000 A 
ATOM      8  C   UNL     1       1.775   2.362  20.136  0.00  0.00    +0.000 A 
ATOM      9  C   UNL     1       1.026   3.385  20.705  0.00  0.00    +0.000 A 
ATOM     10  C   UNL     1       1.375   4.707  20.461  0.00  0.00    +0.000 A 
ATOM     11  C   UNL     1       2.468   5.021  19.636  0.00  0.00    +0.000 A 
ATOM     12  C   UNL     1       2.844   6.476  19.513  0.00  0.00    +0.000 C 
ATOM     13  C   UNL     1       3.249   3.979  19.073  0.00  0.00    +0.000 A 
ENDBRANCH   2  13
ENDBRANCH   1   3
BRANCH   1  14
ATOM     14  N   UNL     1       7.395   6.308  17.917  0.00  0.00    +0.000 NA
ATOM     15  H   UNL     1       8.323   6.261  17.503  0.00  0.00    +0.000 HD
BRANCH  14  16
ATOM     16  C   UNL     1       6.809   7.621  17.653  0.00  0.00    +0.000 C 
BRANCH  16  17
ATOM     17  C   UNL     1       7.937   8.655  17.528  0.00  0.00    +0.000 C 
BRANCH  17  18
ATOM     18  C   UNL     1       8.701   8.803  18.847  0.00  0.00    +0.000 C 
BRANCH  18  19
ATOM     19  C   UNL     1       9.219  10.205  19.056  0.00  0.00    +0.000 A 
ATOM     20  C   UNL     1       9.453  11.056  17.966  0.00  0.00    +0.000 A 
ATOM     21  C   UNL     1       9.923  12.355  18.170  0.00  0.00    +0.000 A 
ATOM     22  C   UNL     1      10.169  12.816  19.461  0.00  0.00    +0.000 A 
ATOM     23  C   UNL     1       9.951  11.975  20.551  0.00  0.00    +0.000 A 
ATOM     24  C   UNL     1       9.482  10.675  20.350  0.00  0.00    +0.000 A 
ENDBRANCH  18  19
ENDBRANCH  17  18
ENDBRANCH  16  17
ENDBRANCH  14  16
ENDBRANCH   1  14
BRANCH   1  25
ATOM     25  C   UNL     1       5.917   5.594  16.140  0.00  0.00    +0.000 C 
BRANCH  25  26
ATOM     26  C   UNL     1       6.678   5.307  14.886  0.00  0.00    +0.000 A 
ATOM     27  C   UNL     1       7.926   5.774  14.545  0.00  0.00    +0.000 A 
ATOM     28  N   UNL     1       8.248   5.291  13.304  0.00  0.00    +0.000 N 
ATOM     29  C   UNL     1       7.227   4.510  12.823  0.00  0.00    +0.000 A 
ATOM     30  C   UNL     1       7.113   3.830  11.599  0.00  0.00    +0.000 A 
ATOM     31  C   UNL     1       5.955   3.078  11.384  0.00  0.00    +0.000 A 
ATOM     32  C   UNL     1       4.950   3.016  12.346  0.00  0.00    +0.000 A 
ATOM     33  C   UNL     1       5.071   3.718  13.551  0.00  0.00    +0.000 A 
ATOM     34  C   UNL     1       6.232   4.482  13.798  0.00  0.00    +0.000 A 
ATOM     35  H   UNL     1       9.109   5.474  12.810  0.00  0.00    +0.000 HD
ENDBRANCH  25  26
ENDBRANCH   1  25
TORSDOF 9
ENDMDL
MODEL 8
REMARK VINA RESULT:      -8.3      0.869      1.762
REMARK  Name = 
REMARK  11 active torsions:
REMARK  status: ('A' for Active; 'I' for Inactive)
REMARK    1  A    between atoms: C_1  and  C_2
REMARK    2  A    between atoms: C_6  and  C_7
REMARK    3  A    between atoms: C_8  and  N_9
REMARK    4  A    between atoms: C_10  and  C_12
REMARK    5  A    between atoms: C_12  and  C_13
REMARK    6  A    between atoms: C_12  and  N_23
REMARK    7  A    between atoms: C_13  and  C_14
REMARK    8  A    between atoms: N_23  and  C_24
REMARK    9  A    between atoms: C_24  and  C_25
REMARK   10  A    between atoms: C_25  and  C_26
REMARK   11  A    between atoms: C_26  and  C_27
REMARK                            x       y       z     vdW  Elec       q    Type
REMARK                         _______ _______ _______ _____ _____    ______ ____
ROOT
ATOM      1  C   UNL     1       6.772   5.676  18.383  0.00  0.00    +0.000 C 
ENDROOT
BRANCH   1   3
ATOM      2  N   UNL     1       4.373   4.971  18.620  0.00  0.00    +0.000 N 
ATOM      3  C   UNL     1       5.648   4.897  19.146  0.00  0.00    +0.000 C 
ATOM      4  O   UNL     1       5.913   4.342  20.215  0.00  0.00    +0.000 OA
ATOM      5  H   UNL     1       4.219   5.681  17.920  0.00  0.00    +0.000 HD
BRANCH   2  13
ATOM      6  C   UNL     1       3.789   1.980  18.593  0.00  0.00    +0.000 C 
ATOM      7  C   UNL     1       2.909   3.038  19.204  0.00  0.00    +0.000 A 
ATOM      8  C   UNL     1       1.677   2.603  19.735  0.00  0.00    +0.000 A 
ATOM      9  C   UNL     1       0.745   3.504  20.236  0.00  0.00    +0.000 A 
ATOM     10  C   UNL     1       1.025   4.864  20.214  0.00  0.00    +0.000 A 
ATOM     11  C   UNL     1       2.233   5.340  19.679  0.00  0.00    +0.000 A 
ATOM     12  C   UNL     1       2.503   6.819  19.795  0.00  0.00    +0.000 C 
ATOM     13  C   UNL     1       3.197   4.422  19.189  0.00  0.00    +0.000 A 
ENDBRANCH   2  13
ENDBRANCH   1   3
BRANCH   1  14
ATOM     14  N   UNL     1       6.229   6.850  17.635  0.00  0.00    +0.000 NA
ATOM     15  H   UNL     1       5.673   7.433  18.258  0.00  0.00    +0.000 HD
BRANCH  14  16
ATOM     16  C   UNL     1       7.235   7.672  16.965  0.00  0.00    +0.000 C 
BRANCH  16  17
ATOM     17  C   UNL     1       8.075   8.396  18.027  0.00  0.00    +0.000 C 
BRANCH  17  18
ATOM     18  C   UNL     1       8.093   9.907  17.783  0.00  0.00    +0.000 C 
BRANCH  18  19
ATOM     19  C   UNL     1       9.227  10.592  18.505  0.00  0.00    +0.000 A 
ATOM     20  C   UNL     1      10.302  11.147  17.795  0.00  0.00    +0.000 A 
ATOM     21  C   UNL     1      11.342  11.788  18.472  0.00  0.00    +0.000 A 
ATOM     22  C   UNL     1      11.323  11.876  19.862  0.00  0.00    +0.000 A 
ATOM     23  C   UNL     1      10.267  11.317  20.578  0.00  0.00    +0.000 A 
ATOM     24  C   UNL     1       9.226  10.675  19.905  0.00  0.00    +0.000 A 
ENDBRANCH  18  19
ENDBRANCH  17  18
ENDBRANCH  16  17
ENDBRANCH  14  16
ENDBRANCH   1  14
BRANCH   1  25
ATOM     25  C   UNL     1       7.596   4.872  17.357  0.00  0.00    +0.000 C 
BRANCH  25  26
ATOM     26  C   UNL     1       6.850   4.322  16.184  0.00  0.00    +0.000 A 
ATOM     27  C   UNL     1       5.779   3.459  16.209  0.00  0.00    +0.000 A 
ATOM     28  N   UNL     1       5.408   3.188  14.918  0.00  0.00    +0.000 N 
ATOM     29  C   UNL     1       6.222   3.862  14.043  0.00  0.00    +0.000 A 
ATOM     30  C   UNL     1       6.221   3.870  12.638  0.00  0.00    +0.000 A 
ATOM     31  C   UNL     1       7.162   4.682  11.997  0.00  0.00    +0.000 A 
ATOM     32  C   UNL     1       8.069   5.444  12.728  0.00  0.00    +0.000 A 
ATOM     33  C   UNL     1       8.068   5.407  14.128  0.00  0.00    +0.000 A 
ATOM     34  C   UNL     1       7.127   4.599  14.802  0.00  0.00    +0.000 A 
ATOM     35  H   UNL     1       4.646   2.585  14.644  0.00  0.00    +0.000 HD
ENDBRANCH  25  26
ENDBRANCH   1  25
TORSDOF 9
ENDMDL
MODEL 9
REMARK VINA RESULT:      -8.2      4.223      7.775
REMARK  Name = 
REMARK  11 active torsions:
REMARK  status: ('A' for Active; 'I' for Inactive)
REMARK    1  A    between atoms: C_1  and  C_2
REMARK    2  A    between atoms: C_6  and  C_7
REMARK    3  A    between atoms: C_8  and  N_9
REMARK    4  A    between atoms: C_10  and  C_12
REMARK    5  A    between atoms: C_12  and  C_13
REMARK    6  A    between atoms: C_12  and  N_23
REMARK    7  A    between atoms: C_13  and  C_14
REMARK    8  A    between atoms: N_23  and  C_24
REMARK    9  A    between atoms: C_24  and  C_25
REMARK   10  A    between atoms: C_25  and  C_26
REMARK   11  A    between atoms: C_26  and  C_27
REMARK                            x       y       z     vdW  Elec       q    Type
REMARK                         _______ _______ _______ _____ _____    ______ ____
ROOT
ATOM      1  C   UNL     1       2.219   7.742  18.539  0.00  0.00    +0.000 C 
ENDROOT
BRANCH   1   3
ATOM      2  N   UNL     1       1.640   9.941  19.605  0.00  0.00    +0.000 N 
ATOM      3  C   UNL     1       1.410   9.082  18.548  0.00  0.00    +0.000 C 
ATOM      4  O   UNL     1       0.546   9.275  17.689  0.00  0.00    +0.000 OA
ATOM      5  H   UNL     1       2.142   9.557  20.391  0.00  0.00    +0.000 HD
BRANCH   2  13
ATOM      6  C   UNL     1       2.353  12.539  18.181  0.00  0.00    +0.000 C 
ATOM      7  C   UNL     1       1.261  12.373  19.204  0.00  0.00    +0.000 A 
ATOM      8  C   UNL     1       0.570  13.542  19.584  0.00  0.00    +0.000 A 
ATOM      9  C   UNL     1      -0.390  13.524  20.588  0.00  0.00    +0.000 A 
ATOM     10  C   UNL     1      -0.679  12.332  21.239  0.00  0.00    +0.000 A 
ATOM     11  C   UNL     1      -0.002  11.148  20.903  0.00  0.00    +0.000 A 
ATOM     12  C   UNL     1      -0.454   9.879  21.581  0.00  0.00    +0.000 C 
ATOM     13  C   UNL     1       0.960  11.157  19.861  0.00  0.00    +0.000 A 
ENDBRANCH   2  13
ENDBRANCH   1   3
BRANCH   1  14
ATOM     14  N   UNL     1       2.542   7.275  19.921  0.00  0.00    +0.000 NA
ATOM     15  H   UNL     1       2.942   8.038  20.462  0.00  0.00    +0.000 HD
BRANCH  14  16
ATOM     16  C   UNL     1       1.417   6.693  20.652  0.00  0.00    +0.000 C 
BRANCH  16  17
ATOM     17  C   UNL     1       1.793   5.272  21.095  0.00  0.00    +0.000 C 
BRANCH  17  18
ATOM     18  C   UNL     1       0.968   4.223  20.345  0.00  0.00    +0.000 C 
BRANCH  18  19
ATOM     19  C   UNL     1       1.781   3.486  19.308  0.00  0.00    +0.000 A 
ATOM     20  C   UNL     1       2.609   2.415  19.672  0.00  0.00    +0.000 A 
ATOM     21  C   UNL     1       3.350   1.733  18.704  0.00  0.00    +0.000 A 
ATOM     22  C   UNL     1       3.277   2.117  17.368  0.00  0.00    +0.000 A 
ATOM     23  C   UNL     1       2.467   3.189  16.997  0.00  0.00    +0.000 A 
ATOM     24  C   UNL     1       1.725   3.873  17.962  0.00  0.00    +0.000 A 
ENDBRANCH  18  19
ENDBRANCH  17  18
ENDBRANCH  16  17
ENDBRANCH  14  16
ENDBRANCH   1  14
BRANCH   1  25
ATOM     25  C   UNL     1       3.560   7.749  17.777  0.00  0.00    +0.000 C 
BRANCH  25  26
ATOM     26  C   UNL     1       4.386   6.506  17.866  0.00  0.00    +0.000 A 
ATOM     27  C   UNL     1       4.675   5.778  18.997  0.00  0.00    +0.000 A 
ATOM     28  N   UNL     1       5.479   4.726  18.643  0.00  0.00    +0.000 N 
ATOM     29  C   UNL     1       5.723   4.752  17.293  0.00  0.00    +0.000 A 
ATOM     30  C   UNL     1       6.499   3.889  16.502  0.00  0.00    +0.000 A 
ATOM     31  C   UNL     1       6.549   4.143  15.128  0.00  0.00    +0.000 A 
ATOM     32  C   UNL     1       5.861   5.218  14.571  0.00  0.00    +0.000 A 
ATOM     33  C   UNL     1       5.110   6.080  15.379  0.00  0.00    +0.000 A 
ATOM     34  C   UNL     1       5.037   5.845  16.769  0.00  0.00    +0.000 A 
ATOM     35  H   UNL     1       5.840   4.028  19.277  0.00  0.00    +0.000 HD
ENDBRANCH  25  26
ENDBRANCH   1  25
TORSDOF 9
ENDMDL
