MODEL 1
REMARK VINA RESULT:      -8.1      0.000      0.000
REMARK  Name = 
REMARK  10 active torsions:
REMARK  status: ('A' for Active; 'I' for Inactive)
REMARK    1  A    between atoms: C_1  and  O_2
REMARK    2  A    between atoms: O_2  and  C_3
REMARK    3  A    between atoms: C_3  and  C_5
REMARK    4  A    between atoms: C_7  and  C_8
REMARK    5  A    between atoms: C_8  and  C_9
REMARK    6  A    between atoms: C_8  and  C_10
REMARK    7  A    between atoms: C_8  and  C_11
REMARK    8  A    between atoms: C_13  and  N_14
REMARK    9  A    between atoms: N_17  and  C_18
REMARK   10  A    between atoms: C_21  and  C_22
REMARK                            x       y       z     vdW  Elec       q    Type
REMARK                         _______ _______ _______ _____ _____    ______ ____
ROOT
ATOM      1  C   UNL     1       4.553   5.851  17.999  0.00  0.00    +0.000 A 
ATOM      2  N   UNL     1       4.285   4.602  18.524  0.00  0.00    +0.000 N 
ATOM      3  C   UNL     1       2.950   4.536  18.842  0.00  0.00    +0.000 A 
ATOM      4  N   UNL     1       2.369   5.679  18.560  0.00  0.00    +0.000 NA
ATOM      5  C   UNL     1       3.331   6.482  18.011  0.00  0.00    +0.000 A 
ATOM      6  H   UNL     1       4.968   3.865  18.643  0.00  0.00    +0.000 HD
ENDROOT
BRANCH   5   7
ATOM      7  N   UNL     1       3.022   7.734  17.544  0.00  0.00    +0.000 N 
ATOM      8  C   UNL     1       2.243   8.681  18.166  0.00  0.00    +0.000 C 
ATOM      9  O   UNL     1       2.021   9.732  17.562  0.00  0.00    +0.000 OA
ATOM     10  N   UNL     1       1.801   8.364  19.425  0.00  0.00    +0.000 N 
ATOM     11  H   UNL     1       3.358   7.996  16.627  0.00  0.00    +0.000 HD
ATOM     12  H   UNL     1       2.211   7.513  19.806  0.00  0.00    +0.000 HD
BRANCH  10  13
ATOM     13  C   UNL     1       0.972   9.115  20.272  0.00  0.00    +0.000 A 
ATOM     14  C   UNL     1       0.151  10.139  19.809  0.00  0.00    +0.000 A 
ATOM     15  C   UNL     1      -0.606  10.898  20.701  0.00  0.00    +0.000 A 
ATOM     16  C   UNL     1      -0.552  10.645  22.075  0.00  0.00    +0.000 A 
ATOM     17  C   UNL     1      -1.296  11.522  23.036  0.00  0.00    +0.000 C 
ATOM     18  C   UNL     1       0.232   9.584  22.539  0.00  0.00    +0.000 A 
ATOM     19  C   UNL     1       0.980   8.813  21.639  0.00  0.00    +0.000 A 
ENDBRANCH  10  13
ENDBRANCH   5   7
BRANCH   3  20
ATOM     20  C   UNL     1       2.268   3.324  19.428  0.00  0.00    +0.000 C 
ATOM     21  C   UNL     1       0.948   3.740  20.092  0.00  0.00    +0.000 C 
ATOM     22  C   UNL     1       1.955   2.312  18.304  0.00  0.00    +0.000 C 
ATOM     23  C   UNL     1       3.188   2.639  20.451  0.00  0.00    +0.000 C 
ENDBRANCH   3  20
BRANCH   1  24
ATOM     24  C   UNL     1       5.868   6.238  17.572  0.00  0.00    +0.000 C 
ATOM     25  O   UNL     1       6.088   6.999  16.639  0.00  0.00    +0.000 OA
BRANCH  24  27
ATOM     26  C   UNL     1       7.592   4.652  17.627  0.00  0.00    +0.000 C 
ATOM     27  O   UNL     1       6.823   5.632  18.330  0.00  0.00    +0.000 OA
ENDBRANCH  24  27
ENDBRANCH   1  24
TORSDOF 5
ENDMDL
MODEL 2
REMARK VINA RESULT:      -8.0      0.968      1.247
REMARK  Name = 
REMARK  10 active torsions:
REMARK  status: ('A' for Active; 'I' for Inactive)
REMARK    1  A    between atoms: C_1  and  O_2
REMARK    2  A    between atoms: O_2  and  C_3
REMARK    3  A    between atoms: C_3  and  C_5
REMARK    4  A    between atoms: C_7  and  C_8
REMARK    5  A    between atoms: C_8  and  C_9
REMARK    6  A    between atoms: C_8  and  C_10
REMARK    7  A    between atoms: C_8  and  C_11
REMARK    8  A    between atoms: C_13  and  N_14
REMARK    9  A    between atoms: N_17  and  C_18
REMARK   10  A    between atoms: C_21  and  C_22
REMARK                            x       y       z     vdW  Elec       q    Type
REMARK                         _______ _______ _______ _____ _____    ______ ____
ROOT
ATOM      1  C   UNL     1       4.670   5.213  18.775  0.00  0.00    +0.000 A 
ATOM      2  N   UNL     1       4.281   3.965  19.222  0.00  0.00    +0.000 N 
ATOM      3  C   UNL     1       2.915   3.869  19.120  0.00  0.00    +0.000 A 
ATOM      4  N   UNL     1       2.423   4.992  18.648  0.00  0.00    +0.000 NA
ATOM      5  C   UNL     1       3.490   5.811  18.400  0.00  0.00    +0.000 A 
ATOM      6  H   UNL     1       4.911   3.249  19.559  0.00  0.00    +0.000 HD
ENDROOT
BRANCH   5   7
ATOM      7  N   UNL     1       3.312   7.048  17.833  0.00  0.00    +0.000 N 
ATOM      8  C   UNL     1       2.565   8.088  18.333  0.00  0.00    +0.000 C 
ATOM      9  O   UNL     1       2.468   9.108  17.649  0.00  0.00    +0.000 OA
ATOM     10  N   UNL     1       2.011   7.890  19.572  0.00  0.00    +0.000 N 
ATOM     11  H   UNL     1       3.732   7.221  16.930  0.00  0.00    +0.000 HD
ATOM     12  H   UNL     1       2.326   7.040  20.036  0.00  0.00    +0.000 HD
BRANCH  10  13
ATOM     13  C   UNL     1       1.183   8.755  20.304  0.00  0.00    +0.000 A 
ATOM     14  C   UNL     1       0.391   9.729  19.703  0.00  0.00    +0.000 A 
ATOM     15  C   UNL     1      -0.364  10.606  20.480  0.00  0.00    +0.000 A 
ATOM     16  C   UNL     1      -0.340  10.523  21.876  0.00  0.00    +0.000 A 
ATOM     17  C   UNL     1      -1.081  11.524  22.708  0.00  0.00    +0.000 C 
ATOM     18  C   UNL     1       0.414   9.512  22.481  0.00  0.00    +0.000 A 
ATOM     19  C   UNL     1       1.161   8.623  21.697  0.00  0.00    +0.000 A 
ENDBRANCH  10  13
ENDBRANCH   5   7
BRANCH   3  20
ATOM     20  C   UNL     1       2.111   2.648  19.498  0.00  0.00    +0.000 C 
ATOM     21  C   UNL     1       1.895   2.618  21.018  0.00  0.00    +0.000 C 
ATOM     22  C   UNL     1       0.731   2.702  18.807  0.00  0.00    +0.000 C 
ATOM     23  C   UNL     1       2.833   1.373  19.036  0.00  0.00    +0.000 C 
ENDBRANCH   3  20
BRANCH   1  24
ATOM     24  C   UNL     1       6.044   5.628  18.759  0.00  0.00    +0.000 C 
ATOM     25  O   UNL     1       6.817   5.469  19.695  0.00  0.00    +0.000 OA
BRANCH  24  27
ATOM     26  C   UNL     1       7.405   7.197  17.677  0.00  0.00    +0.000 C 
ATOM     27  O   UNL     1       6.357   6.229  17.578  0.00  0.00    +0.000 OA
ENDBRANCH  24  27
ENDBRANCH   1  24
TORSDOF 5
ENDMDL
MODEL 3
REMARK VINA RESULT:      -7.9      0.502      1.275
REMARK  Name = 
REMARK  10 active torsions:
REMARK  status: ('A' for Active; 'I' for Inactive)
REMARK    1  A    between atoms: C_1  and  O_2
REMARK    2  A    between atoms: O_2  and  C_3
REMARK    3  A    between atoms: C_3  and  C_5
REMARK    4  A    between atoms: C_7  and  C_8
REMARK    5  A    between atoms: C_8  and  C_9
REMARK    6  A    between atoms: C_8  and  C_10
REMARK    7  A    between atoms: C_8  and  C_11
REMARK    8  A    between atoms: C_13  and  N_14
REMARK    9  A    between atoms: N_17  and  C_18
REMARK   10  A    between atoms: C_21  and  C_22
REMARK                            x       y       z     vdW  Elec       q    Type
REMARK                         _______ _______ _______ _____ _____    ______ ____
ROOT
ATOM      1  C   UNL     1       4.559   5.729  18.097  0.00  0.00    +0.000 A 
ATOM      2  N   UNL     1       4.273   4.497  18.653  0.00  0.00    +0.000 N 
ATOM      3  C   UNL     1       2.936   4.455  18.964  0.00  0.00    +0.000 A 
ATOM      4  N   UNL     1       2.369   5.597  18.648  0.00  0.00    +0.000 NA
ATOM      5  C   UNL     1       3.344   6.373  18.085  0.00  0.00    +0.000 A 
ATOM      6  H   UNL     1       4.947   3.756  18.795  0.00  0.00    +0.000 HD
ENDROOT
BRANCH   5   7
ATOM      7  N   UNL     1       3.052   7.617  17.583  0.00  0.00    +0.000 N 
ATOM      8  C   UNL     1       2.279   8.588  18.175  0.00  0.00    +0.000 C 
ATOM      9  O   UNL     1       2.074   9.625  17.542  0.00  0.00    +0.000 OA
ATOM     10  N   UNL     1       1.826   8.309  19.439  0.00  0.00    +0.000 N 
ATOM     11  H   UNL     1       3.397   7.851  16.662  0.00  0.00    +0.000 HD
ATOM     12  H   UNL     1       2.223   7.464  19.845  0.00  0.00    +0.000 HD
BRANCH  10  13
ATOM     13  C   UNL     1       1.000   9.091  20.261  0.00  0.00    +0.000 A 
ATOM     14  C   UNL     1       0.360  10.242  19.809  0.00  0.00    +0.000 A 
ATOM     15  C   UNL     1      -0.398  11.019  20.683  0.00  0.00    +0.000 A 
ATOM     16  C   UNL     1      -0.529  10.658  22.028  0.00  0.00    +0.000 A 
ATOM     17  C   UNL     1      -1.269  11.544  22.982  0.00  0.00    +0.000 C 
ATOM     18  C   UNL     1       0.069   9.474  22.472  0.00  0.00    +0.000 A 
ATOM     19  C   UNL     1       0.819   8.687  21.588  0.00  0.00    +0.000 A 
ENDBRANCH  10  13
ENDBRANCH   5   7
BRANCH   3  20
ATOM     20  C   UNL     1       2.236   3.266  19.577  0.00  0.00    +0.000 C 
ATOM     21  C   UNL     1       1.863   2.259  18.480  0.00  0.00    +0.000 C 
ATOM     22  C   UNL     1       3.182   2.570  20.580  0.00  0.00    +0.000 C 
ATOM     23  C   UNL     1       0.980   3.721  20.334  0.00  0.00    +0.000 C 
ENDBRANCH   3  20
BRANCH   1  24
ATOM     24  C   UNL     1       5.880   6.090  17.669  0.00  0.00    +0.000 C 
ATOM     25  O   UNL     1       6.886   5.932  18.349  0.00  0.00    +0.000 OA
BRANCH  24  27
ATOM     26  C   UNL     1       5.661   5.690  15.371  0.00  0.00    +0.000 C 
ATOM     27  O   UNL     1       5.855   6.639  16.423  0.00  0.00    +0.000 OA
ENDBRANCH  24  27
ENDBRANCH   1  24
TORSDOF 5
ENDMDL
MODEL 4
REMARK VINA RESULT:      -7.9      1.010      1.682
REMARK  Name = 
REMARK  10 active torsions:
REMARK  status: ('A' for Active; 'I' for Inactive)
REMARK    1  A    between atoms: C_1  and  O_2
REMARK    2  A    between atoms: O_2  and  C_3
REMARK    3  A    between atoms: C_3  and  C_5
REMARK    4  A    between atoms: C_7  and  C_8
REMARK    5  A    between atoms: C_8  and  C_9
REMARK    6  A    between atoms: C_8  and  C_10
REMARK    7  A    between atoms: C_8  and  C_11
REMARK    8  A    between atoms: C_13  and  N_14
REMARK    9  A    between atoms: N_17  and  C_18
REMARK   10  A    between atoms: C_21  and  C_22
REMARK                            x       y       z     vdW  Elec       q    Type
REMARK                         _______ _______ _______ _____ _____    ______ ____
ROOT
ATOM      1  C   UNL     1       4.164   5.352  17.368  0.00  0.00    +0.000 A 
ATOM      2  N   UNL     1       3.874   4.162  18.006  0.00  0.00    +0.000 N 
ATOM      3  C   UNL     1       2.784   4.353  18.819  0.00  0.00    +0.000 A 
ATOM      4  N   UNL     1       2.381   5.601  18.738  0.00  0.00    +0.000 NA
ATOM      5  C   UNL     1       3.196   6.215  17.827  0.00  0.00    +0.000 A 
ATOM      6  H   UNL     1       4.386   3.299  17.881  0.00  0.00    +0.000 HD
ENDROOT
BRANCH   5   7
ATOM      7  N   UNL     1       2.989   7.522  17.466  0.00  0.00    +0.000 N 
ATOM      8  C   UNL     1       2.325   8.485  18.188  0.00  0.00    +0.000 C 
ATOM      9  O   UNL     1       2.181   9.595  17.672  0.00  0.00    +0.000 OA
ATOM     10  N   UNL     1       1.900   8.114  19.438  0.00  0.00    +0.000 N 
ATOM     11  H   UNL     1       3.316   7.822  16.557  0.00  0.00    +0.000 HD
ATOM     12  H   UNL     1       2.241   7.204  19.738  0.00  0.00    +0.000 HD
BRANCH  10  13
ATOM     13  C   UNL     1       1.175   8.871  20.372  0.00  0.00    +0.000 A 
ATOM     14  C   UNL     1       1.287   8.680  21.746  0.00  0.00    +0.000 A 
ATOM     15  C   UNL     1       0.497   9.415  22.629  0.00  0.00    +0.000 A 
ATOM     16  C   UNL     1      -0.421  10.355  22.151  0.00  0.00    +0.000 A 
ATOM     17  C   UNL     1      -1.331  11.076  23.098  0.00  0.00    +0.000 C 
ATOM     18  C   UNL     1      -0.498  10.586  20.773  0.00  0.00    +0.000 A 
ATOM     19  C   UNL     1       0.307   9.857  19.889  0.00  0.00    +0.000 A 
ENDBRANCH  10  13
ENDBRANCH   5   7
BRANCH   3  20
ATOM     20  C   UNL     1       2.153   3.280  19.672  0.00  0.00    +0.000 C 
ATOM     21  C   UNL     1       3.223   2.617  20.551  0.00  0.00    +0.000 C 
ATOM     22  C   UNL     1       1.085   3.911  20.592  0.00  0.00    +0.000 C 
ATOM     23  C   UNL     1       1.466   2.230  18.785  0.00  0.00    +0.000 C 
ENDBRANCH   3  20
BRANCH   1  24
ATOM     24  C   UNL     1       5.259   5.484  16.450  0.00  0.00    +0.000 C 
ATOM     25  O   UNL     1       5.646   6.552  15.995  0.00  0.00    +0.000 OA
BRANCH  24  27
ATOM     26  C   UNL     1       6.224   4.140  14.791  0.00  0.00    +0.000 C 
ATOM     27  O   UNL     1       5.788   4.266  16.147  0.00  0.00    +0.000 OA
ENDBRANCH  24  27
ENDBRANCH   1  24
TORSDOF 5
ENDMDL
MODEL 5
REMARK VINA RESULT:      -7.8      0.988      1.796
REMARK  Name = 
REMARK  10 active torsions:
REMARK  status: ('A' for Active; 'I' for Inactive)
REMARK    1  A    between atoms: C_1  and  O_2
REMARK    2  A    between atoms: O_2  and  C_3
REMARK    3  A    between atoms: C_3  and  C_5
REMARK    4  A    between atoms: C_7  and  C_8
REMARK    5  A    between atoms: C_8  and  C_9
REMARK    6  A    between atoms: C_8  and  C_10
REMARK    7  A    between atoms: C_8  and  C_11
REMARK    8  A    between atoms: C_13  and  N_14
REMARK    9  A    between atoms: N_17  and  C_18
REMARK   10  A    between atoms: C_21  and  C_22
REMARK                            x       y       z     vdW  Elec       q    Type
REMARK                         _______ _______ _______ _____ _____    ______ ____
ROOT
ATOM      1  C   UNL     1       4.535   5.271  18.793  0.00  0.00    +0.000 A 
ATOM      2  N   UNL     1       4.183   4.003  19.213  0.00  0.00    +0.000 N 
ATOM      3  C   UNL     1       2.824   3.856  19.074  0.00  0.00    +0.000 A 
ATOM      4  N   UNL     1       2.302   4.966  18.605  0.00  0.00    +0.000 NA
ATOM      5  C   UNL     1       3.343   5.828  18.396  0.00  0.00    +0.000 A 
ATOM      6  H   UNL     1       4.830   3.306  19.558  0.00  0.00    +0.000 HD
ENDROOT
BRANCH   5   7
ATOM      7  N   UNL     1       3.132   7.065  17.840  0.00  0.00    +0.000 N 
ATOM      8  C   UNL     1       2.438   8.114  18.395  0.00  0.00    +0.000 C 
ATOM      9  O   UNL     1       2.297   9.134  17.717  0.00  0.00    +0.000 OA
ATOM     10  N   UNL     1       1.982   7.925  19.675  0.00  0.00    +0.000 N 
ATOM     11  H   UNL     1       3.480   7.232  16.906  0.00  0.00    +0.000 HD
ATOM     12  H   UNL     1       2.325   7.074  20.115  0.00  0.00    +0.000 HD
BRANCH  10  13
ATOM     13  C   UNL     1       1.224   8.801  20.468  0.00  0.00    +0.000 A 
ATOM     14  C   UNL     1       1.241   8.762  21.859  0.00  0.00    +0.000 A 
ATOM     15  C   UNL     1       0.420   9.612  22.599  0.00  0.00    +0.000 A 
ATOM     16  C   UNL     1      -0.434  10.516  21.959  0.00  0.00    +0.000 A 
ATOM     17  C   UNL     1      -1.379  11.361  22.756  0.00  0.00    +0.000 C 
ATOM     18  C   UNL     1      -0.414  10.592  20.562  0.00  0.00    +0.000 A 
ATOM     19  C   UNL     1       0.422   9.747  19.820  0.00  0.00    +0.000 A 
ENDBRANCH  10  13
ENDBRANCH   5   7
BRANCH   3  20
ATOM     20  C   UNL     1       2.059   2.600  19.415  0.00  0.00    +0.000 C 
ATOM     21  C   UNL     1       2.865   1.366  18.984  0.00  0.00    +0.000 C 
ATOM     22  C   UNL     1       1.833   2.530  20.941  0.00  0.00    +0.000 C 
ATOM     23  C   UNL     1       0.687   2.609  18.724  0.00  0.00    +0.000 C 
ENDBRANCH   3  20
BRANCH   1  24
ATOM     24  C   UNL     1       5.892   5.737  18.820  0.00  0.00    +0.000 C 
ATOM     25  O   UNL     1       6.709   5.418  19.673  0.00  0.00    +0.000 OA
BRANCH  24  27
ATOM     26  C   UNL     1       7.497   7.005  17.678  0.00  0.00    +0.000 C 
ATOM     27  O   UNL     1       6.134   6.588  17.784  0.00  0.00    +0.000 OA
ENDBRANCH  24  27
ENDBRANCH   1  24
TORSDOF 5
ENDMDL
MODEL 6
REMARK VINA RESULT:      -7.8      2.575      4.447
REMARK  Name = 
REMARK  10 active torsions:
REMARK  status: ('A' for Active; 'I' for Inactive)
REMARK    1  A    between atoms: C_1  and  O_2
REMARK    2  A    between atoms: O_2  and  C_3
REMARK    3  A    between atoms: C_3  and  C_5
REMARK    4  A    between atoms: C_7  and  C_8
REMARK    5  A    between atoms: C_8  and  C_9
REMARK    6  A    between atoms: C_8  and  C_10
REMARK    7  A    between atoms: C_8  and  C_11
REMARK    8  A    between atoms: C_13  and  N_14
REMARK    9  A    between atoms: N_17  and  C_18
REMARK   10  A    between atoms: C_21  and  C_22
REMARK                            x       y       z     vdW  Elec       q    Type
REMARK                         _______ _______ _______ _____ _____    ______ ____
ROOT
ATOM      1  C   UNL     1       4.004   3.455  18.535  0.00  0.00    +0.000 A 
ATOM      2  N   UNL     1       5.246   3.691  17.977  0.00  0.00    +0.000 N 
ATOM      3  C   UNL     1       5.716   4.894  18.443  0.00  0.00    +0.000 A 
ATOM      4  N   UNL     1       4.832   5.435  19.250  0.00  0.00    +0.000 NA
ATOM      5  C   UNL     1       3.795   4.548  19.343  0.00  0.00    +0.000 A 
ATOM      6  H   UNL     1       5.721   3.066  17.338  0.00  0.00    +0.000 HD
ENDROOT
BRANCH   5   7
ATOM      7  N   UNL     1       2.730   4.794  20.173  0.00  0.00    +0.000 N 
ATOM      8  C   UNL     1       2.020   5.966  20.284  0.00  0.00    +0.000 C 
ATOM      9  O   UNL     1       1.131   6.022  21.135  0.00  0.00    +0.000 OA
ATOM     10  N   UNL     1       2.364   6.964  19.408  0.00  0.00    +0.000 N 
ATOM     11  H   UNL     1       2.446   4.063  20.810  0.00  0.00    +0.000 HD
ATOM     12  H   UNL     1       3.023   6.674  18.687  0.00  0.00    +0.000 HD
BRANCH  10  13
ATOM     13  C   UNL     1       1.839   8.262  19.316  0.00  0.00    +0.000 A 
ATOM     14  C   UNL     1       1.198   8.892  20.379  0.00  0.00    +0.000 A 
ATOM     15  C   UNL     1       0.636  10.158  20.215  0.00  0.00    +0.000 A 
ATOM     16  C   UNL     1       0.706  10.816  18.983  0.00  0.00    +0.000 A 
ATOM     17  C   UNL     1       0.023  12.134  18.788  0.00  0.00    +0.000 C 
ATOM     18  C   UNL     1       1.395  10.207  17.929  0.00  0.00    +0.000 A 
ATOM     19  C   UNL     1       1.971   8.941  18.099  0.00  0.00    +0.000 A 
ENDBRANCH  10  13
ENDBRANCH   5   7
BRANCH   3  20
ATOM     20  C   UNL     1       7.051   5.494  18.072  0.00  0.00    +0.000 C 
ATOM     21  C   UNL     1       7.909   5.672  19.333  0.00  0.00    +0.000 C 
ATOM     22  C   UNL     1       7.793   4.546  17.104  0.00  0.00    +0.000 C 
ATOM     23  C   UNL     1       6.850   6.844  17.368  0.00  0.00    +0.000 C 
ENDBRANCH   3  20
BRANCH   1  24
ATOM     24  C   UNL     1       3.243   2.275  18.242  0.00  0.00    +0.000 C 
ATOM     25  O   UNL     1       3.662   1.135  18.394  0.00  0.00    +0.000 OA
BRANCH  24  27
ATOM     26  C   UNL     1       0.938   2.301  18.657  0.00  0.00    +0.000 C 
ATOM     27  O   UNL     1       2.011   2.598  17.760  0.00  0.00    +0.000 OA
ENDBRANCH  24  27
ENDBRANCH   1  24
TORSDOF 5
ENDMDL
MODEL 7
REMARK VINA RESULT:      -7.8      0.567      1.134
REMARK  Name = 
REMARK  10 active torsions:
REMARK  status: ('A' for Active; 'I' for Inactive)
REMARK    1  A    between atoms: C_1  and  O_2
REMARK    2  A    between atoms: O_2  and  C_3
REMARK    3  A    between atoms: C_3  and  C_5
REMARK    4  A    between atoms: C_7  and  C_8
REMARK    5  A    between atoms: C_8  and  C_9
REMARK    6  A    between atoms: C_8  and  C_10
REMARK    7  A    between atoms: C_8  and  C_11
REMARK    8  A    between atoms: C_13  and  N_14
REMARK    9  A    between atoms: N_17  and  C_18
REMARK   10  A    between atoms: C_21  and  C_22
REMARK                            x       y       z     vdW  Elec       q    Type
REMARK                         _______ _______ _______ _____ _____    ______ ____
ROOT
ATOM      1  C   UNL     1       4.443   5.640  18.134  0.00  0.00    +0.000 A 
ATOM      2  N   UNL     1       4.182   4.379  18.634  0.00  0.00    +0.000 N 
ATOM      3  C   UNL     1       2.834   4.272  18.874  0.00  0.00    +0.000 A 
ATOM      4  N   UNL     1       2.236   5.401  18.567  0.00  0.00    +0.000 NA
ATOM      5  C   UNL     1       3.205   6.235  18.080  0.00  0.00    +0.000 A 
ATOM      6  H   UNL     1       4.878   3.661  18.786  0.00  0.00    +0.000 HD
ENDROOT
BRANCH   5   7
ATOM      7  N   UNL     1       2.887   7.483  17.606  0.00  0.00    +0.000 N 
ATOM      8  C   UNL     1       2.182   8.463  18.263  0.00  0.00    +0.000 C 
ATOM      9  O   UNL     1       1.936   9.504  17.650  0.00  0.00    +0.000 OA
ATOM     10  N   UNL     1       1.837   8.189  19.562  0.00  0.00    +0.000 N 
ATOM     11  H   UNL     1       3.153   7.712  16.658  0.00  0.00    +0.000 HD
ATOM     12  H   UNL     1       2.257   7.339  19.931  0.00  0.00    +0.000 HD
BRANCH  10  13
ATOM     13  C   UNL     1       1.097   8.982  20.452  0.00  0.00    +0.000 A 
ATOM     14  C   UNL     1       1.145   8.810  21.832  0.00  0.00    +0.000 A 
ATOM     15  C   UNL     1       0.340   9.583  22.670  0.00  0.00    +0.000 A 
ATOM     16  C   UNL     1      -0.528  10.541  22.138  0.00  0.00    +0.000 A 
ATOM     17  C   UNL     1      -1.456  11.304  23.034  0.00  0.00    +0.000 C 
ATOM     18  C   UNL     1      -0.540  10.752  20.755  0.00  0.00    +0.000 A 
ATOM     19  C   UNL     1       0.280   9.985  19.917  0.00  0.00    +0.000 A 
ENDBRANCH  10  13
ENDBRANCH   5   7
BRANCH   3  20
ATOM     20  C   UNL     1       2.154   3.036  19.411  0.00  0.00    +0.000 C 
ATOM     21  C   UNL     1       1.775   3.248  20.883  0.00  0.00    +0.000 C 
ATOM     22  C   UNL     1       0.864   2.763  18.607  0.00  0.00    +0.000 C 
ATOM     23  C   UNL     1       3.078   1.817  19.268  0.00  0.00    +0.000 C 
ENDBRANCH   3  20
BRANCH   1  24
ATOM     24  C   UNL     1       5.769   6.067  17.786  0.00  0.00    +0.000 C 
ATOM     25  O   UNL     1       6.028   7.156  17.292  0.00  0.00    +0.000 OA
BRANCH  24  27
ATOM     26  C   UNL     1       7.336   4.563  16.911  0.00  0.00    +0.000 C 
ATOM     27  O   UNL     1       6.681   5.096  18.065  0.00  0.00    +0.000 OA
ENDBRANCH  24  27
ENDBRANCH   1  24
TORSDOF 5
ENDMDL
MODEL 8
REMARK VINA RESULT:      -7.8      3.835      7.323
REMARK  Name = 
REMARK  10 active torsions:
REMARK  status: ('A' for Active; 'I' for Inactive)
REMARK    1  A    between atoms: C_1  and  O_2
REMARK    2  A    between atoms: O_2  and  C_3
REMARK    3  A    between atoms: C_3  and  C_5
REMARK    4  A    between atoms: C_7  and  C_8
REMARK    5  A    between atoms: C_8  and  C_9
REMARK    6  A    between atoms: C_8  and  C_10
REMARK    7  A    between atoms: C_8  and  C_11
REMARK    8  A    between atoms: C_13  and  N_14
REMARK    9  A    between atoms: N_17  and  C_18
REMARK   10  A    between atoms: C_21  and  C_22
REMARK                            x       y       z     vdW  Elec       q    Type
REMARK                         _______ _______ _______ _____ _____    ______ ____
ROOT
ATOM      1  C   UNL     1       5.327   5.184  18.989  0.00  0.00    +0.000 A 
ATOM      2  N   UNL     1       4.655   4.259  19.764  0.00  0.00    +0.000 N 
ATOM      3  C   UNL     1       3.339   4.231  19.373  0.00  0.00    +0.000 A 
ATOM      4  N   UNL     1       3.143   5.097  18.406  0.00  0.00    +0.000 NA
ATOM      5  C   UNL     1       4.359   5.663  18.137  0.00  0.00    +0.000 A 
ATOM      6  H   UNL     1       5.078   3.697  20.491  0.00  0.00    +0.000 HD
ENDROOT
BRANCH   5   7
ATOM      7  N   UNL     1       4.504   6.571  17.119  0.00  0.00    +0.000 N 
ATOM      8  C   UNL     1       4.953   6.321  15.843  0.00  0.00    +0.000 C 
ATOM      9  O   UNL     1       5.078   7.279  15.079  0.00  0.00    +0.000 OA
ATOM     10  N   UNL     1       5.201   5.006  15.540  0.00  0.00    +0.000 N 
ATOM     11  H   UNL     1       4.305   7.542  17.316  0.00  0.00    +0.000 HD
ATOM     12  H   UNL     1       4.898   4.351  16.258  0.00  0.00    +0.000 HD
BRANCH  10  13
ATOM     13  C   UNL     1       5.693   4.467  14.341  0.00  0.00    +0.000 A 
ATOM     14  C   UNL     1       4.920   3.671  13.500  0.00  0.00    +0.000 A 
ATOM     15  C   UNL     1       5.477   3.107  12.353  0.00  0.00    +0.000 A 
ATOM     16  C   UNL     1       6.818   3.330  12.027  0.00  0.00    +0.000 A 
ATOM     17  C   UNL     1       7.435   2.649  10.844  0.00  0.00    +0.000 C 
ATOM     18  C   UNL     1       7.582   4.172  12.842  0.00  0.00    +0.000 A 
ATOM     19  C   UNL     1       7.017   4.749  13.987  0.00  0.00    +0.000 A 
ENDBRANCH  10  13
ENDBRANCH   5   7
BRANCH   3  20
ATOM     20  C   UNL     1       2.286   3.332  19.975  0.00  0.00    +0.000 C 
ATOM     21  C   UNL     1       2.803   2.732  21.290  0.00  0.00    +0.000 C 
ATOM     22  C   UNL     1       1.015   4.156  20.279  0.00  0.00    +0.000 C 
ATOM     23  C   UNL     1       1.912   2.216  18.988  0.00  0.00    +0.000 C 
ENDBRANCH   3  20
BRANCH   1  24
ATOM     24  C   UNL     1       6.727   5.454  19.156  0.00  0.00    +0.000 C 
ATOM     25  O   UNL     1       7.323   5.337  20.219  0.00  0.00    +0.000 OA
BRANCH  24  27
ATOM     26  C   UNL     1       7.837   7.186  18.037  0.00  0.00    +0.000 C 
ATOM     27  O   UNL     1       7.285   5.868  17.986  0.00  0.00    +0.000 OA
ENDBRANCH  24  27
ENDBRANCH   1  24
TORSDOF 5
ENDMDL
MODEL 9
REMARK VINA RESULT:      -7.7      0.791      1.517
REMARK  Name = 
REMARK  10 active torsions:
REMARK  status: ('A' for Active; 'I' for Inactive)
REMARK    1  A    between atoms: C_1  and  O_2
REMARK    2  A    between atoms: O_2  and  C_3
REMARK    3  A    between atoms: C_3  and  C_5
REMARK    4  A    between atoms: C_7  and  C_8
REMARK    5  A    between atoms: C_8  and  C_9
REMARK    6  A    between atoms: C_8  and  C_10
REMARK    7  A    between atoms: C_8  and  C_11
REMARK    8  A    between atoms: C_13  and  N_14
REMARK    9  A    between atoms: N_17  and  C_18
REMARK   10  A    between atoms: C_21  and  C_22
REMARK                            x       y       z     vdW  Elec       q    Type
REMARK                         _______ _______ _______ _____ _____    ______ ____
ROOT
ATOM      1  C   UNL     1       4.726   5.506  17.818  0.00  0.00    +0.000 A 
ATOM      2  N   UNL     1       4.470   4.238  18.304  0.00  0.00    +0.000 N 
ATOM      3  C   UNL     1       3.136   4.149  18.618  0.00  0.00    +0.000 A 
ATOM      4  N   UNL     1       2.543   5.295  18.371  0.00  0.00    +0.000 NA
ATOM      5  C   UNL     1       3.498   6.123  17.848  0.00  0.00    +0.000 A 
ATOM      6  H   UNL     1       5.160   3.505  18.400  0.00  0.00    +0.000 HD
ENDROOT
BRANCH   5   7
ATOM      7  N   UNL     1       3.176   7.387  17.420  0.00  0.00    +0.000 N 
ATOM      8  C   UNL     1       2.456   8.336  18.107  0.00  0.00    +0.000 C 
ATOM      9  O   UNL     1       2.210   9.398  17.533  0.00  0.00    +0.000 OA
ATOM     10  N   UNL     1       2.097   8.007  19.389  0.00  0.00    +0.000 N 
ATOM     11  H   UNL     1       3.452   7.656  16.485  0.00  0.00    +0.000 HD
ATOM     12  H   UNL     1       2.519   7.146  19.730  0.00  0.00    +0.000 HD
BRANCH  10  13
ATOM     13  C   UNL     1       1.340   8.759  20.301  0.00  0.00    +0.000 A 
ATOM     14  C   UNL     1       1.423   8.577  21.679  0.00  0.00    +0.000 A 
ATOM     15  C   UNL     1       0.601   9.305  22.539  0.00  0.00    +0.000 A 
ATOM     16  C   UNL     1      -0.319  10.229  22.033  0.00  0.00    +0.000 A 
ATOM     17  C   UNL     1      -1.261  10.941  22.955  0.00  0.00    +0.000 C 
ATOM     18  C   UNL     1      -0.367  10.451  20.653  0.00  0.00    +0.000 A 
ATOM     19  C   UNL     1       0.469   9.728  19.792  0.00  0.00    +0.000 A 
ENDBRANCH  10  13
ENDBRANCH   5   7
BRANCH   3  20
ATOM     20  C   UNL     1       2.465   2.913  19.166  0.00  0.00    +0.000 C 
ATOM     21  C   UNL     1       2.557   2.906  20.698  0.00  0.00    +0.000 C 
ATOM     22  C   UNL     1       0.974   2.912  18.763  0.00  0.00    +0.000 C 
ATOM     23  C   UNL     1       3.122   1.651  18.586  0.00  0.00    +0.000 C 
ENDBRANCH   3  20
BRANCH   1  24
ATOM     24  C   UNL     1       6.037   5.919  17.405  0.00  0.00    +0.000 C 
ATOM     25  O   UNL     1       6.953   5.144  17.164  0.00  0.00    +0.000 OA
BRANCH  24  27
ATOM     26  C   UNL     1       7.451   7.786  17.456  0.00  0.00    +0.000 C 
ATOM     27  O   UNL     1       6.120   7.276  17.336  0.00  0.00    +0.000 OA
ENDBRANCH  24  27
ENDBRANCH   1  24
TORSDOF 5
ENDMDL
