MODEL 1
REMARK VINA RESULT:      -8.6      0.000      0.000
REMARK  Name = 
REMARK  7 active torsions:
REMARK  status: ('A' for Active; 'I' for Inactive)
REMARK    1  A    between atoms: N_1  and  C_2
REMARK    2  A    between atoms: C_2  and  C_3
REMARK    3  A    between atoms: C_3  and  C_4
REMARK    4  A    between atoms: C_3  and  N_11
REMARK    5  A    between atoms: C_4  and  C_5
REMARK    6  A    between atoms: C_12  and  C_14
REMARK    7  A    between atoms: C_18  and  C_19
REMARK                            x       y       z     vdW  Elec       q    Type
REMARK                         _______ _______ _______ _____ _____    ______ ____
ROOT
ATOM      1  N   UNL     1       2.354   5.312  17.933  0.00  0.00    +0.000 N 
ATOM      2  C   UNL     1       2.696   5.834  19.174  0.00  0.00    +0.000 C 
ATOM      3  O   UNL     1       3.424   5.209  19.934  0.00  0.00    +0.000 OA
ATOM      4  H   UNL     1       1.738   5.863  17.348  0.00  0.00    +0.000 HD
ENDROOT
BRANCH   2   5
ATOM      5  C   UNL     1       2.141   7.131  19.534  0.00  0.00    +0.000 A 
ATOM      6  C   UNL     1       1.637   7.473  20.776  0.00  0.00    +0.000 A 
ATOM      7  C   UNL     1       1.048   8.761  20.790  0.00  0.00    +0.000 A 
ATOM      8 BR   UNL     1       0.200   9.337  22.388  0.00  0.00    +0.000 Br
ATOM      9  C   UNL     1       1.124   9.425  19.578  0.00  0.00    +0.000 A 
ATOM     10  S   UNL     1       2.046   8.462  18.469  0.00  0.00    +0.000 S 
BRANCH   9  11
ATOM     11  C   UNL     1       0.595  10.742  19.173  0.00  0.00    +0.000 A 
ATOM     12  C   UNL     1       1.144  11.943  19.657  0.00  0.00    +0.000 A 
ATOM     13  C   UNL     1       0.566  13.158  19.326  0.00  0.00    +0.000 A 
ATOM     14  N   UNL     1      -0.498  13.320  18.518  0.00  0.00    +0.000 NA
ATOM     15  C   UNL     1      -0.982  12.158  18.050  0.00  0.00    +0.000 A 
ATOM     16  N   UNL     1      -2.052  12.082  17.205  0.00  0.00    +0.000 N 
ATOM     17  C   UNL     1      -2.330  10.774  16.919  0.00  0.00    +0.000 A 
ATOM     18  C   UNL     1      -1.417   9.999  17.605  0.00  0.00    +0.000 A 
ATOM     19  C   UNL     1      -0.529  10.865  18.317  0.00  0.00    +0.000 A 
ATOM     20  H   UNL     1      -2.545  12.895  16.866  0.00  0.00    +0.000 HD
ENDBRANCH   9  11
ENDBRANCH   2   5
BRANCH   1  21
ATOM     21  C   UNL     1       2.858   4.013  17.448  0.00  0.00    +0.000 C 
BRANCH  21  22
ATOM     22  C   UNL     1       2.304   2.827  18.289  0.00  0.00    +0.000 C 
BRANCH  22  23
ATOM     23  N   UNL     1       3.286   2.150  19.143  0.00  0.00    +0.000 NA
ATOM     24  H   UNL     1       3.240   1.144  18.982  0.00  0.00    +0.000 HD
ATOM     25  H   UNL     1       4.230   2.387  18.813  0.00  0.00    +0.000 HD
ENDBRANCH  22  23
ENDBRANCH  21  22
BRANCH  21  26
ATOM     26  C   UNL     1       4.406   4.044  17.422  0.00  0.00    +0.000 C 
BRANCH  26  27
ATOM     27  C   UNL     1       5.118   4.675  16.190  0.00  0.00    +0.000 C 
ATOM     28  C   UNL     1       5.074   6.210  16.106  0.00  0.00    +0.000 C 
ATOM     29  C   UNL     1       5.810   6.863  17.272  0.00  0.00    +0.000 C 
ATOM     30  C   UNL     1       7.275   6.431  17.299  0.00  0.00    +0.000 C 
ATOM     31  C   UNL     1       7.446   4.913  17.248  0.00  0.00    +0.000 C 
ATOM     32  C   UNL     1       6.604   4.252  16.151  0.00  0.00    +0.000 C 
ENDBRANCH  26  27
ENDBRANCH  21  26
ENDBRANCH   1  21
TORSDOF 7
ENDMDL
MODEL 2
REMARK VINA RESULT:      -8.3      1.401      3.017
REMARK  Name = 
REMARK  7 active torsions:
REMARK  status: ('A' for Active; 'I' for Inactive)
REMARK    1  A    between atoms: N_1  and  C_2
REMARK    2  A    between atoms: C_2  and  C_3
REMARK    3  A    between atoms: C_3  and  C_4
REMARK    4  A    between atoms: C_3  and  N_11
REMARK    5  A    between atoms: C_4  and  C_5
REMARK    6  A    between atoms: C_12  and  C_14
REMARK    7  A    between atoms: C_18  and  C_19
REMARK                            x       y       z     vdW  Elec       q    Type
REMARK                         _______ _______ _______ _____ _____    ______ ____
ROOT
ATOM      1  N   UNL     1       2.837   5.644  17.991  0.00  0.00    +0.000 N 
ATOM      2  C   UNL     1       2.975   6.200  19.256  0.00  0.00    +0.000 C 
ATOM      3  O   UNL     1       3.650   5.643  20.111  0.00  0.00    +0.000 OA
ATOM      4  H   UNL     1       2.256   6.137  17.323  0.00  0.00    +0.000 HD
ENDROOT
BRANCH   2   5
ATOM      5  C   UNL     1       2.274   7.448  19.522  0.00  0.00    +0.000 A 
ATOM      6  C   UNL     1       1.638   7.777  20.706  0.00  0.00    +0.000 A 
ATOM      7  C   UNL     1       0.934   9.003  20.624  0.00  0.00    +0.000 A 
ATOM      8 BR   UNL     1      -0.095   9.542  22.127  0.00  0.00    +0.000 Br
ATOM      9  C   UNL     1       1.048   9.635  19.398  0.00  0.00    +0.000 A 
ATOM     10  S   UNL     1       2.144   8.732  18.404  0.00  0.00    +0.000 S 
BRANCH   9  11
ATOM     11  C   UNL     1       0.434  10.882  18.904  0.00  0.00    +0.000 A 
ATOM     12  C   UNL     1       1.103  12.117  18.974  0.00  0.00    +0.000 A 
ATOM     13  C   UNL     1       0.462  13.282  18.583  0.00  0.00    +0.000 A 
ATOM     14  N   UNL     1      -0.784  13.354  18.080  0.00  0.00    +0.000 NA
ATOM     15  C   UNL     1      -1.386  12.156  17.999  0.00  0.00    +0.000 A 
ATOM     16  N   UNL     1      -2.650  11.987  17.509  0.00  0.00    +0.000 N 
ATOM     17  C   UNL     1      -3.004  10.668  17.573  0.00  0.00    +0.000 A 
ATOM     18  C   UNL     1      -1.940   9.981  18.121  0.00  0.00    +0.000 A 
ATOM     19  C   UNL     1      -0.884  10.911  18.380  0.00  0.00    +0.000 A 
ATOM     20  H   UNL     1      -3.213  12.751  17.166  0.00  0.00    +0.000 HD
ENDBRANCH   9  11
ENDBRANCH   2   5
BRANCH   1  21
ATOM     21  C   UNL     1       3.503   4.388  17.595  0.00  0.00    +0.000 C 
BRANCH  21  22
ATOM     22  C   UNL     1       4.629   4.635  16.550  0.00  0.00    +0.000 C 
BRANCH  22  23
ATOM     23  N   UNL     1       5.603   3.546  16.407  0.00  0.00    +0.000 NA
ATOM     24  H   UNL     1       5.389   3.008  15.568  0.00  0.00    +0.000 HD
ATOM     25  H   UNL     1       6.521   3.951  16.187  0.00  0.00    +0.000 HD
ENDBRANCH  22  23
ENDBRANCH  21  22
BRANCH  21  26
ATOM     26  C   UNL     1       2.438   3.384  17.088  0.00  0.00    +0.000 C 
BRANCH  26  27
ATOM     27  C   UNL     1       2.289   2.021  17.824  0.00  0.00    +0.000 C 
ATOM     28  C   UNL     1       3.499   1.579  18.664  0.00  0.00    +0.000 C 
ATOM     29  C   UNL     1       3.769   2.541  19.818  0.00  0.00    +0.000 C 
ATOM     30  C   UNL     1       2.558   2.633  20.743  0.00  0.00    +0.000 C 
ATOM     31  C   UNL     1       1.261   2.935  19.993  0.00  0.00    +0.000 C 
ATOM     32  C   UNL     1       1.060   2.046  18.760  0.00  0.00    +0.000 C 
ENDBRANCH  26  27
ENDBRANCH  21  26
ENDBRANCH   1  21
TORSDOF 7
ENDMDL
MODEL 3
REMARK VINA RESULT:      -8.2      1.539      3.247
REMARK  Name = 
REMARK  7 active torsions:
REMARK  status: ('A' for Active; 'I' for Inactive)
REMARK    1  A    between atoms: N_1  and  C_2
REMARK    2  A    between atoms: C_2  and  C_3
REMARK    3  A    between atoms: C_3  and  C_4
REMARK    4  A    between atoms: C_3  and  N_11
REMARK    5  A    between atoms: C_4  and  C_5
REMARK    6  A    between atoms: C_12  and  C_14
REMARK    7  A    between atoms: C_18  and  C_19
REMARK                            x       y       z     vdW  Elec       q    Type
REMARK                         _______ _______ _______ _____ _____    ______ ____
ROOT
ATOM      1  N   UNL     1       4.152   5.717  19.227  0.00  0.00    +0.000 N 
ATOM      2  C   UNL     1       2.995   6.123  18.573  0.00  0.00    +0.000 C 
ATOM      3  O   UNL     1       2.556   5.481  17.628  0.00  0.00    +0.000 OA
ATOM      4  H   UNL     1       4.481   6.291  19.994  0.00  0.00    +0.000 HD
ENDROOT
BRANCH   2   5
ATOM      5  C   UNL     1       2.349   7.341  19.043  0.00  0.00    +0.000 A 
ATOM      6  C   UNL     1       1.885   7.560  20.327  0.00  0.00    +0.000 A 
ATOM      7  C   UNL     1       1.187   8.786  20.453  0.00  0.00    +0.000 A 
ATOM      8 BR   UNL     1       0.380   9.185  22.124  0.00  0.00    +0.000 Br
ATOM      9  C   UNL     1       1.139   9.526  19.284  0.00  0.00    +0.000 A 
ATOM     10  S   UNL     1       2.080   8.719  18.072  0.00  0.00    +0.000 S 
BRANCH   9  11
ATOM     11  C   UNL     1       0.475  10.811  18.992  0.00  0.00    +0.000 A 
ATOM     12  C   UNL     1       1.009  12.038  19.426  0.00  0.00    +0.000 A 
ATOM     13  C   UNL     1       0.314  13.217  19.211  0.00  0.00    +0.000 A 
ATOM     14  N   UNL     1      -0.861  13.322  18.563  0.00  0.00    +0.000 NA
ATOM     15  C   UNL     1      -1.330  12.138  18.136  0.00  0.00    +0.000 A 
ATOM     16  N   UNL     1      -2.501  12.005  17.445  0.00  0.00    +0.000 N 
ATOM     17  C   UNL     1      -2.732  10.686  17.166  0.00  0.00    +0.000 A 
ATOM     18  C   UNL     1      -1.685   9.963  17.698  0.00  0.00    +0.000 A 
ATOM     19  C   UNL     1      -0.763  10.874  18.303  0.00  0.00    +0.000 A 
ATOM     20  H   UNL     1      -3.087  12.789  17.200  0.00  0.00    +0.000 HD
ENDBRANCH   9  11
ENDBRANCH   2   5
BRANCH   1  21
ATOM     21  C   UNL     1       4.893   4.498  18.852  0.00  0.00    +0.000 C 
BRANCH  21  22
ATOM     22  C   UNL     1       6.032   4.802  17.837  0.00  0.00    +0.000 C 
BRANCH  22  23
ATOM     23  N   UNL     1       6.193   3.818  16.760  0.00  0.00    +0.000 NA
ATOM     24  H   UNL     1       7.158   3.829  16.431  0.00  0.00    +0.000 HD
ATOM     25  H   UNL     1       6.101   2.875  17.159  0.00  0.00    +0.000 HD
ENDBRANCH  22  23
ENDBRANCH  21  22
BRANCH  21  26
ATOM     26  C   UNL     1       3.896   3.439  18.320  0.00  0.00    +0.000 C 
BRANCH  26  27
ATOM     27  C   UNL     1       3.461   2.284  19.268  0.00  0.00    +0.000 C 
ATOM     28  C   UNL     1       3.340   2.650  20.757  0.00  0.00    +0.000 C 
ATOM     29  C   UNL     1       2.251   3.692  20.997  0.00  0.00    +0.000 C 
ATOM     30  C   UNL     1       0.893   3.178  20.524  0.00  0.00    +0.000 C 
ATOM     31  C   UNL     1       0.926   2.655  19.088  0.00  0.00    +0.000 C 
ATOM     32  C   UNL     1       2.099   1.705  18.822  0.00  0.00    +0.000 C 
ENDBRANCH  26  27
ENDBRANCH  21  26
ENDBRANCH   1  21
TORSDOF 7
ENDMDL
MODEL 4
REMARK VINA RESULT:      -8.2      0.979      1.425
REMARK  Name = 
REMARK  7 active torsions:
REMARK  status: ('A' for Active; 'I' for Inactive)
REMARK    1  A    between atoms: N_1  and  C_2
REMARK    2  A    between atoms: C_2  and  C_3
REMARK    3  A    between atoms: C_3  and  C_4
REMARK    4  A    between atoms: C_3  and  N_11
REMARK    5  A    between atoms: C_4  and  C_5
REMARK    6  A    between atoms: C_12  and  C_14
REMARK    7  A    between atoms: C_18  and  C_19
REMARK                            x       y       z     vdW  Elec       q    Type
REMARK                         _______ _______ _______ _____ _____    ______ ____
ROOT
ATOM      1  N   UNL     1       3.093   5.695  18.893  0.00  0.00    +0.000 N 
ATOM      2  C   UNL     1       2.222   5.880  19.960  0.00  0.00    +0.000 C 
ATOM      3  O   UNL     1       1.873   4.931  20.650  0.00  0.00    +0.000 OA
ATOM      4  H   UNL     1       3.340   6.510  18.345  0.00  0.00    +0.000 HD
ENDROOT
BRANCH   2   5
ATOM      5  C   UNL     1       1.734   7.230  20.203  0.00  0.00    +0.000 A 
ATOM      6  C   UNL     1       1.188   7.685  21.389  0.00  0.00    +0.000 A 
ATOM      7  C   UNL     1       0.684   9.005  21.286  0.00  0.00    +0.000 A 
ATOM      8 BR   UNL     1      -0.208   9.739  22.793  0.00  0.00    +0.000 Br
ATOM      9  C   UNL     1       0.866   9.579  20.040  0.00  0.00    +0.000 A 
ATOM     10  S   UNL     1       1.780   8.488  19.050  0.00  0.00    +0.000 S 
BRANCH   9  11
ATOM     11  C   UNL     1       0.445  10.895  19.522  0.00  0.00    +0.000 A 
ATOM     12  C   UNL     1       1.007  12.094  19.996  0.00  0.00    +0.000 A 
ATOM     13  C   UNL     1       0.524  13.315  19.551  0.00  0.00    +0.000 A 
ATOM     14  N   UNL     1      -0.449  13.482  18.638  0.00  0.00    +0.000 NA
ATOM     15  C   UNL     1      -0.946  12.319  18.183  0.00  0.00    +0.000 A 
ATOM     16  N   UNL     1      -1.934  12.246  17.244  0.00  0.00    +0.000 N 
ATOM     17  C   UNL     1      -2.251  10.939  16.998  0.00  0.00    +0.000 A 
ATOM     18  C   UNL     1      -1.447  10.161  17.806  0.00  0.00    +0.000 A 
ATOM     19  C   UNL     1      -0.586  11.023  18.556  0.00  0.00    +0.000 A 
ATOM     20  H   UNL     1      -2.351  13.062  16.820  0.00  0.00    +0.000 HD
ENDBRANCH   9  11
ENDBRANCH   2   5
BRANCH   1  21
ATOM     21  C   UNL     1       3.664   4.379  18.549  0.00  0.00    +0.000 C 
BRANCH  21  22
ATOM     22  C   UNL     1       4.736   3.925  19.582  0.00  0.00    +0.000 C 
BRANCH  22  23
ATOM     23  N   UNL     1       4.943   2.475  19.675  0.00  0.00    +0.000 NA
ATOM     24  H   UNL     1       5.928   2.262  19.517  0.00  0.00    +0.000 HD
ATOM     25  H   UNL     1       4.803   2.183  20.650  0.00  0.00    +0.000 HD
ENDBRANCH  22  23
ENDBRANCH  21  22
BRANCH  21  26
ATOM     26  C   UNL     1       4.222   4.428  17.105  0.00  0.00    +0.000 C 
BRANCH  26  27
ATOM     27  C   UNL     1       5.007   5.692  16.651  0.00  0.00    +0.000 C 
ATOM     28  C   UNL     1       6.425   5.841  17.228  0.00  0.00    +0.000 C 
ATOM     29  C   UNL     1       7.343   4.712  16.773  0.00  0.00    +0.000 C 
ATOM     30  C   UNL     1       7.452   4.680  15.249  0.00  0.00    +0.000 C 
ATOM     31  C   UNL     1       6.089   4.669  14.559  0.00  0.00    +0.000 C 
ATOM     32  C   UNL     1       5.128   5.728  15.111  0.00  0.00    +0.000 C 
ENDBRANCH  26  27
ENDBRANCH  21  26
ENDBRANCH   1  21
TORSDOF 7
ENDMDL
MODEL 5
REMARK VINA RESULT:      -8.0      1.318      1.477
REMARK  Name = 
REMARK  7 active torsions:
REMARK  status: ('A' for Active; 'I' for Inactive)
REMARK    1  A    between atoms: N_1  and  C_2
REMARK    2  A    between atoms: C_2  and  C_3
REMARK    3  A    between atoms: C_3  and  C_4
REMARK    4  A    between atoms: C_3  and  N_11
REMARK    5  A    between atoms: C_4  and  C_5
REMARK    6  A    between atoms: C_12  and  C_14
REMARK    7  A    between atoms: C_18  and  C_19
REMARK                            x       y       z     vdW  Elec       q    Type
REMARK                         _______ _______ _______ _____ _____    ______ ____
ROOT
ATOM      1  N   UNL     1       3.368   5.653  19.780  0.00  0.00    +0.000 N 
ATOM      2  C   UNL     1       2.593   6.436  18.934  0.00  0.00    +0.000 C 
ATOM      3  O   UNL     1       2.465   6.138  17.754  0.00  0.00    +0.000 OA
ATOM      4  H   UNL     1       3.452   5.951  20.745  0.00  0.00    +0.000 HD
ENDROOT
BRANCH   2   5
ATOM      5  C   UNL     1       1.964   7.621  19.501  0.00  0.00    +0.000 A 
ATOM      6  C   UNL     1       1.600   7.781  20.825  0.00  0.00    +0.000 A 
ATOM      7  C   UNL     1       0.893   8.987  21.054  0.00  0.00    +0.000 A 
ATOM      8 BR   UNL     1       0.214   9.305  22.799  0.00  0.00    +0.000 Br
ATOM      9  C   UNL     1       0.738   9.770  19.923  0.00  0.00    +0.000 A 
ATOM     10  S   UNL     1       1.594   9.029  18.609  0.00  0.00    +0.000 S 
BRANCH   9  11
ATOM     11  C   UNL     1       0.031  11.051  19.735  0.00  0.00    +0.000 A 
ATOM     12  C   UNL     1       0.476  12.241  20.338  0.00  0.00    +0.000 A 
ATOM     13  C   UNL     1      -0.263  13.406  20.213  0.00  0.00    +0.000 A 
ATOM     14  N   UNL     1      -1.400  13.535  19.506  0.00  0.00    +0.000 NA
ATOM     15  C   UNL     1      -1.784  12.390  18.918  0.00  0.00    +0.000 A 
ATOM     16  N   UNL     1      -2.904  12.288  18.143  0.00  0.00    +0.000 N 
ATOM     17  C   UNL     1      -3.053  11.002  17.703  0.00  0.00    +0.000 A 
ATOM     18  C   UNL     1      -2.004  10.266  18.217  0.00  0.00    +0.000 A 
ATOM     19  C   UNL     1      -1.166  11.140  18.979  0.00  0.00    +0.000 A 
ATOM     20  H   UNL     1      -3.513  13.069  17.950  0.00  0.00    +0.000 HD
ENDBRANCH   9  11
ENDBRANCH   2   5
BRANCH   1  21
ATOM     21  C   UNL     1       4.048   4.425  19.330  0.00  0.00    +0.000 C 
BRANCH  21  22
ATOM     22  C   UNL     1       3.613   3.184  20.161  0.00  0.00    +0.000 C 
BRANCH  22  23
ATOM     23  N   UNL     1       2.220   2.760  19.976  0.00  0.00    +0.000 NA
ATOM     24  H   UNL     1       2.194   1.923  19.394  0.00  0.00    +0.000 HD
ATOM     25  H   UNL     1       1.857   2.421  20.875  0.00  0.00    +0.000 HD
ENDBRANCH  22  23
ENDBRANCH  21  22
BRANCH  21  26
ATOM     26  C   UNL     1       5.581   4.649  19.364  0.00  0.00    +0.000 C 
BRANCH  26  27
ATOM     27  C   UNL     1       6.373   4.584  18.026  0.00  0.00    +0.000 C 
ATOM     28  C   UNL     1       5.801   5.419  16.869  0.00  0.00    +0.000 C 
ATOM     29  C   UNL     1       5.821   6.911  17.182  0.00  0.00    +0.000 C 
ATOM     30  C   UNL     1       7.246   7.391  17.452  0.00  0.00    +0.000 C 
ATOM     31  C   UNL     1       7.967   6.541  18.498  0.00  0.00    +0.000 C 
ATOM     32  C   UNL     1       7.835   5.036  18.243  0.00  0.00    +0.000 C 
ENDBRANCH  26  27
ENDBRANCH  21  26
ENDBRANCH   1  21
TORSDOF 7
ENDMDL
MODEL 6
REMARK VINA RESULT:      -7.7      0.696      1.919
REMARK  Name = 
REMARK  7 active torsions:
REMARK  status: ('A' for Active; 'I' for Inactive)
REMARK    1  A    between atoms: N_1  and  C_2
REMARK    2  A    between atoms: C_2  and  C_3
REMARK    3  A    between atoms: C_3  and  C_4
REMARK    4  A    between atoms: C_3  and  N_11
REMARK    5  A    between atoms: C_4  and  C_5
REMARK    6  A    between atoms: C_12  and  C_14
REMARK    7  A    between atoms: C_18  and  C_19
REMARK                            x       y       z     vdW  Elec       q    Type
REMARK                         _______ _______ _______ _____ _____    ______ ____
ROOT
ATOM      1  N   UNL     1       2.559   5.297  18.033  0.00  0.00    +0.000 N 
ATOM      2  C   UNL     1       2.993   6.005  19.147  0.00  0.00    +0.000 C 
ATOM      3  O   UNL     1       3.923   5.589  19.825  0.00  0.00    +0.000 OA
ATOM      4  H   UNL     1       1.776   5.677  17.514  0.00  0.00    +0.000 HD
ENDROOT
BRANCH   2   5
ATOM      5  C   UNL     1       2.288   7.235  19.479  0.00  0.00    +0.000 A 
ATOM      6  C   UNL     1       1.782   7.560  20.724  0.00  0.00    +0.000 A 
ATOM      7  C   UNL     1       1.034   8.763  20.712  0.00  0.00    +0.000 A 
ATOM      8 BR   UNL     1       0.168   9.291  22.317  0.00  0.00    +0.000 Br
ATOM      9  C   UNL     1       0.987   9.381  19.475  0.00  0.00    +0.000 A 
ATOM     10  S   UNL     1       1.990   8.499  18.370  0.00  0.00    +0.000 S 
BRANCH   9  11
ATOM     11  C   UNL     1       0.282  10.603  19.042  0.00  0.00    +0.000 A 
ATOM     12  C   UNL     1      -0.933  10.549  18.336  0.00  0.00    +0.000 A 
ATOM     13  C   UNL     1      -1.521  11.712  17.867  0.00  0.00    +0.000 A 
ATOM     14  N   UNL     1      -1.047  12.957  18.059  0.00  0.00    +0.000 NA
ATOM     15  C   UNL     1       0.098  12.978  18.761  0.00  0.00    +0.000 A 
ATOM     16  N   UNL     1       0.754  14.132  19.084  0.00  0.00    +0.000 N 
ATOM     17  C   UNL     1       1.898  13.842  19.776  0.00  0.00    +0.000 A 
ATOM     18  C   UNL     1       1.973  12.469  19.890  0.00  0.00    +0.000 A 
ATOM     19  C   UNL     1       0.819  11.896  19.268  0.00  0.00    +0.000 A 
ATOM     20  H   UNL     1       0.416  15.047  18.827  0.00  0.00    +0.000 HD
ENDBRANCH   9  11
ENDBRANCH   2   5
BRANCH   1  21
ATOM     21  C   UNL     1       3.195   4.043  17.587  0.00  0.00    +0.000 C 
BRANCH  21  22
ATOM     22  C   UNL     1       2.565   2.798  18.275  0.00  0.00    +0.000 C 
BRANCH  22  23
ATOM     23  N   UNL     1       3.314   1.546  18.116  0.00  0.00    +0.000 NA
ATOM     24  H   UNL     1       2.728   0.761  18.397  0.00  0.00    +0.000 HD
ATOM     25  H   UNL     1       3.458   1.373  17.113  0.00  0.00    +0.000 HD
ENDBRANCH  22  23
ENDBRANCH  21  22
BRANCH  21  26
ATOM     26  C   UNL     1       4.723   4.136  17.822  0.00  0.00    +0.000 C 
BRANCH  26  27
ATOM     27  C   UNL     1       5.639   4.517  16.622  0.00  0.00    +0.000 C 
ATOM     28  C   UNL     1       5.402   5.910  16.016  0.00  0.00    +0.000 C 
ATOM     29  C   UNL     1       5.703   7.022  17.016  0.00  0.00    +0.000 C 
ATOM     30  C   UNL     1       7.154   6.951  17.488  0.00  0.00    +0.000 C 
ATOM     31  C   UNL     1       7.546   5.561  17.990  0.00  0.00    +0.000 C 
ATOM     32  C   UNL     1       7.127   4.438  17.034  0.00  0.00    +0.000 C 
ENDBRANCH  26  27
ENDBRANCH  21  26
ENDBRANCH   1  21
TORSDOF 7
ENDMDL
MODEL 7
REMARK VINA RESULT:      -7.7      1.758      3.797
REMARK  Name = 
REMARK  7 active torsions:
REMARK  status: ('A' for Active; 'I' for Inactive)
REMARK    1  A    between atoms: N_1  and  C_2
REMARK    2  A    between atoms: C_2  and  C_3
REMARK    3  A    between atoms: C_3  and  C_4
REMARK    4  A    between atoms: C_3  and  N_11
REMARK    5  A    between atoms: C_4  and  C_5
REMARK    6  A    between atoms: C_12  and  C_14
REMARK    7  A    between atoms: C_18  and  C_19
REMARK                            x       y       z     vdW  Elec       q    Type
REMARK                         _______ _______ _______ _____ _____    ______ ____
ROOT
ATOM      1  N   UNL     1       4.117   5.739  19.647  0.00  0.00    +0.000 N 
ATOM      2  C   UNL     1       3.219   6.263  18.725  0.00  0.00    +0.000 C 
ATOM      3  O   UNL     1       3.107   5.766  17.613  0.00  0.00    +0.000 OA
ATOM      4  H   UNL     1       4.182   6.196  20.548  0.00  0.00    +0.000 HD
ENDROOT
BRANCH   2   5
ATOM      5  C   UNL     1       2.443   7.427  19.129  0.00  0.00    +0.000 A 
ATOM      6  C   UNL     1       1.889   7.628  20.381  0.00  0.00    +0.000 A 
ATOM      7  C   UNL     1       1.080   8.789  20.439  0.00  0.00    +0.000 A 
ATOM      8 BR   UNL     1       0.146   9.146  22.053  0.00  0.00    +0.000 Br
ATOM      9  C   UNL     1       1.032   9.499  19.252  0.00  0.00    +0.000 A 
ATOM     10  S   UNL     1       2.109   8.757  18.113  0.00  0.00    +0.000 S 
BRANCH   9  11
ATOM     11  C   UNL     1       0.276  10.715  18.893  0.00  0.00    +0.000 A 
ATOM     12  C   UNL     1      -1.043  10.653  18.409  0.00  0.00    +0.000 A 
ATOM     13  C   UNL     1      -1.691  11.806  17.997  0.00  0.00    +0.000 A 
ATOM     14  N   UNL     1      -1.178  13.049  18.051  0.00  0.00    +0.000 NA
ATOM     15  C   UNL     1       0.071  13.079  18.545  0.00  0.00    +0.000 A 
ATOM     16  N   UNL     1       0.785  14.233  18.701  0.00  0.00    +0.000 N 
ATOM     17  C   UNL     1       2.027  13.952  19.198  0.00  0.00    +0.000 A 
ATOM     18  C   UNL     1       2.107  12.583  19.357  0.00  0.00    +0.000 A 
ATOM     19  C   UNL     1       0.858  12.006  18.967  0.00  0.00    +0.000 A 
ATOM     20  H   UNL     1       0.417  15.143  18.465  0.00  0.00    +0.000 HD
ENDBRANCH   9  11
ENDBRANCH   2   5
BRANCH   1  21
ATOM     21  C   UNL     1       4.955   4.559  19.361  0.00  0.00    +0.000 C 
BRANCH  21  22
ATOM     22  C   UNL     1       6.238   4.937  18.569  0.00  0.00    +0.000 C 
BRANCH  22  23
ATOM     23  N   UNL     1       7.415   5.247  19.389  0.00  0.00    +0.000 NA
ATOM     24  H   UNL     1       8.168   5.583  18.790  0.00  0.00    +0.000 HD
ATOM     25  H   UNL     1       7.206   6.068  19.970  0.00  0.00    +0.000 HD
ENDBRANCH  22  23
ENDBRANCH  21  22
BRANCH  21  26
ATOM     26  C   UNL     1       4.102   3.494  18.628  0.00  0.00    +0.000 C 
BRANCH  26  27
ATOM     27  C   UNL     1       3.484   2.333  19.459  0.00  0.00    +0.000 C 
ATOM     28  C   UNL     1       2.991   2.706  20.867  0.00  0.00    +0.000 C 
ATOM     29  C   UNL     1       1.846   3.712  20.818  0.00  0.00    +0.000 C 
ATOM     30  C   UNL     1       0.661   3.149  20.036  0.00  0.00    +0.000 C 
ATOM     31  C   UNL     1       1.060   2.616  18.660  0.00  0.00    +0.000 C 
ATOM     32  C   UNL     1       2.291   1.705  18.704  0.00  0.00    +0.000 C 
ENDBRANCH  26  27
ENDBRANCH  21  26
ENDBRANCH   1  21
TORSDOF 7
ENDMDL
MODEL 8
REMARK VINA RESULT:      -7.7      1.702      1.886
REMARK  Name = 
REMARK  7 active torsions:
REMARK  status: ('A' for Active; 'I' for Inactive)
REMARK    1  A    between atoms: N_1  and  C_2
REMARK    2  A    between atoms: C_2  and  C_3
REMARK    3  A    between atoms: C_3  and  C_4
REMARK    4  A    between atoms: C_3  and  N_11
REMARK    5  A    between atoms: C_4  and  C_5
REMARK    6  A    between atoms: C_12  and  C_14
REMARK    7  A    between atoms: C_18  and  C_19
REMARK                            x       y       z     vdW  Elec       q    Type
REMARK                         _______ _______ _______ _____ _____    ______ ____
ROOT
ATOM      1  N   UNL     1       2.868   6.094  19.037  0.00  0.00    +0.000 N 
ATOM      2  C   UNL     1       2.740   7.381  18.528  0.00  0.00    +0.000 C 
ATOM      3  O   UNL     1       3.353   7.716  17.523  0.00  0.00    +0.000 OA
ATOM      4  H   UNL     1       2.350   5.871  19.879  0.00  0.00    +0.000 HD
ENDROOT
BRANCH   2   5
ATOM      5  C   UNL     1       1.873   8.305  19.244  0.00  0.00    +0.000 A 
ATOM      6  C   UNL     1       1.544   8.223  20.585  0.00  0.00    +0.000 A 
ATOM      7  C   UNL     1       0.579   9.185  20.970  0.00  0.00    +0.000 A 
ATOM      8 BR   UNL     1      -0.072   9.132  22.752  0.00  0.00    +0.000 Br
ATOM      9  C   UNL     1       0.186  10.027  19.943  0.00  0.00    +0.000 A 
ATOM     10  S   UNL     1       1.132   9.670  18.535  0.00  0.00    +0.000 S 
BRANCH   9  11
ATOM     11  C   UNL     1      -0.817  11.109  19.923  0.00  0.00    +0.000 A 
ATOM     12  C   UNL     1      -0.763  12.189  20.823  0.00  0.00    +0.000 A 
ATOM     13  C   UNL     1      -1.771  13.139  20.834  0.00  0.00    +0.000 A 
ATOM     14  N   UNL     1      -2.832  13.159  20.007  0.00  0.00    +0.000 NA
ATOM     15  C   UNL     1      -2.841  12.132  19.142  0.00  0.00    +0.000 A 
ATOM     16  N   UNL     1      -3.816  11.956  18.202  0.00  0.00    +0.000 N 
ATOM     17  C   UNL     1      -3.576  10.816  17.485  0.00  0.00    +0.000 A 
ATOM     18  C   UNL     1      -2.420  10.251  17.986  0.00  0.00    +0.000 A 
ATOM     19  C   UNL     1      -1.920  11.089  19.031  0.00  0.00    +0.000 A 
ATOM     20  H   UNL     1      -4.591  12.592  18.088  0.00  0.00    +0.000 HD
ENDBRANCH   9  11
ENDBRANCH   2   5
BRANCH   1  21
ATOM     21  C   UNL     1       3.708   5.064  18.399  0.00  0.00    +0.000 C 
BRANCH  21  22
ATOM     22  C   UNL     1       3.047   3.657  18.460  0.00  0.00    +0.000 C 
BRANCH  22  23
ATOM     23  N   UNL     1       2.212   3.304  17.306  0.00  0.00    +0.000 NA
ATOM     24  H   UNL     1       1.234   3.269  17.592  0.00  0.00    +0.000 HD
ATOM     25  H   UNL     1       2.224   4.086  16.639  0.00  0.00    +0.000 HD
ENDBRANCH  22  23
ENDBRANCH  21  22
BRANCH  21  26
ATOM     26  C   UNL     1       5.116   5.082  19.045  0.00  0.00    +0.000 C 
BRANCH  26  27
ATOM     27  C   UNL     1       6.338   4.656  18.181  0.00  0.00    +0.000 C 
ATOM     28  C   UNL     1       6.311   5.113  16.713  0.00  0.00    +0.000 C 
ATOM     29  C   UNL     1       6.346   6.633  16.593  0.00  0.00    +0.000 C 
ATOM     30  C   UNL     1       7.606   7.201  17.243  0.00  0.00    +0.000 C 
ATOM     31  C   UNL     1       7.811   6.701  18.673  0.00  0.00    +0.000 C 
ATOM     32  C   UNL     1       7.650   5.183  18.806  0.00  0.00    +0.000 C 
ENDBRANCH  26  27
ENDBRANCH  21  26
ENDBRANCH   1  21
TORSDOF 7
ENDMDL
MODEL 9
REMARK VINA RESULT:      -7.6      1.856      2.656
REMARK  Name = 
REMARK  7 active torsions:
REMARK  status: ('A' for Active; 'I' for Inactive)
REMARK    1  A    between atoms: N_1  and  C_2
REMARK    2  A    between atoms: C_2  and  C_3
REMARK    3  A    between atoms: C_3  and  C_4
REMARK    4  A    between atoms: C_3  and  N_11
REMARK    5  A    between atoms: C_4  and  C_5
REMARK    6  A    between atoms: C_12  and  C_14
REMARK    7  A    between atoms: C_18  and  C_19
REMARK                            x       y       z     vdW  Elec       q    Type
REMARK                         _______ _______ _______ _____ _____    ______ ____
ROOT
ATOM      1  N   UNL     1       3.050   5.959  19.934  0.00  0.00    +0.000 N 
ATOM      2  C   UNL     1       2.411   6.890  19.125  0.00  0.00    +0.000 C 
ATOM      3  O   UNL     1       2.387   6.745  17.910  0.00  0.00    +0.000 OA
ATOM      4  H   UNL     1       3.054   6.132  20.933  0.00  0.00    +0.000 HD
ENDROOT
BRANCH   2   5
ATOM      5  C   UNL     1       1.797   8.038  19.775  0.00  0.00    +0.000 A 
ATOM      6  C   UNL     1       1.394   8.093  21.097  0.00  0.00    +0.000 A 
ATOM      7  C   UNL     1       0.713   9.295  21.410  0.00  0.00    +0.000 A 
ATOM      8 BR   UNL     1      -0.015   9.478  23.155  0.00  0.00    +0.000 Br
ATOM      9  C   UNL     1       0.618  10.178  20.349  0.00  0.00    +0.000 A 
ATOM     10  S   UNL     1       1.496   9.531  19.002  0.00  0.00    +0.000 S 
BRANCH   9  11
ATOM     11  C   UNL     1      -0.047  11.492  20.254  0.00  0.00    +0.000 A 
ATOM     12  C   UNL     1      -1.437  11.610  20.072  0.00  0.00    +0.000 A 
ATOM     13  C   UNL     1      -2.015  12.857  19.898  0.00  0.00    +0.000 A 
ATOM     14  N   UNL     1      -1.358  14.031  19.925  0.00  0.00    +0.000 NA
ATOM     15  C   UNL     1      -0.038  13.887  20.129  0.00  0.00    +0.000 A 
ATOM     16  N   UNL     1       0.825  14.943  20.205  0.00  0.00    +0.000 N 
ATOM     17  C   UNL     1       2.102  14.492  20.393  0.00  0.00    +0.000 A 
ATOM     18  C   UNL     1       2.050  13.114  20.432  0.00  0.00    +0.000 A 
ATOM     19  C   UNL     1       0.686  12.705  20.289  0.00  0.00    +0.000 A 
ATOM     20  H   UNL     1       0.527  15.904  20.122  0.00  0.00    +0.000 HD
ENDBRANCH   9  11
ENDBRANCH   2   5
BRANCH   1  21
ATOM     21  C   UNL     1       3.702   4.749  19.398  0.00  0.00    +0.000 C 
BRANCH  21  22
ATOM     22  C   UNL     1       3.247   3.465  20.149  0.00  0.00    +0.000 C 
BRANCH  22  23
ATOM     23  N   UNL     1       2.369   3.690  21.303  0.00  0.00    +0.000 NA
ATOM     24  H   UNL     1       2.935   3.789  22.146  0.00  0.00    +0.000 HD
ATOM     25  H   UNL     1       1.936   4.617  21.213  0.00  0.00    +0.000 HD
ENDBRANCH  22  23
ENDBRANCH  21  22
BRANCH  21  26
ATOM     26  C   UNL     1       5.239   4.940  19.433  0.00  0.00    +0.000 C 
BRANCH  26  27
ATOM     27  C   UNL     1       6.050   4.692  18.129  0.00  0.00    +0.000 C 
ATOM     28  C   UNL     1       5.616   5.514  16.904  0.00  0.00    +0.000 C 
ATOM     29  C   UNL     1       5.814   7.010  17.127  0.00  0.00    +0.000 C 
ATOM     30  C   UNL     1       7.281   7.326  17.414  0.00  0.00    +0.000 C 
ATOM     31  C   UNL     1       7.864   6.464  18.533  0.00  0.00    +0.000 C 
ATOM     32  C   UNL     1       7.551   4.973  18.366  0.00  0.00    +0.000 C 
ENDBRANCH  26  27
ENDBRANCH  21  26
ENDBRANCH   1  21
TORSDOF 7
ENDMDL
