MODEL 1
REMARK VINA RESULT:      -7.9      0.000      0.000
REMARK  Name = 
REMARK  10 active torsions:
REMARK  status: ('A' for Active; 'I' for Inactive)
REMARK    1  A    between atoms: C_1  and  C_2
REMARK    2  A    between atoms: C_2  and  N_3
REMARK    3  A    between atoms: C_4  and  C_5
REMARK    4  A    between atoms: C_6  and  C_7
REMARK    5  A    between atoms: C_10  and  C_11
REMARK    6  A    between atoms: N_13  and  C_14
REMARK    7  A    between atoms: C_14  and  C_15
REMARK    8  A    between atoms: C_18  and  S_19
REMARK    9  A    between atoms: S_19  and  C_22
REMARK   10  A    between atoms: C_22  and  C_23
REMARK                            x       y       z     vdW  Elec       q    Type
REMARK                         _______ _______ _______ _____ _____    ______ ____
ROOT
ATOM      1  C   UNL     1       0.857  10.397  18.314  0.00  0.00    +0.000 C 
ATOM      2  O   UNL     1       1.675  11.309  18.372  0.00  0.00    +0.000 OA
ATOM      3  N   UNL     1       1.208   9.071  18.173  0.00  0.00    +0.000 N 
ATOM      4  H   UNL     1       0.506   8.354  18.285  0.00  0.00    +0.000 HD
ENDROOT
BRANCH   1  12
ATOM      5  N   UNL     1      -4.526  11.988  18.850  0.00  0.00    +0.000 N 
ATOM      6  C   UNL     1      -4.446  12.811  19.959  0.00  0.00    +0.000 A 
ATOM      7  C   UNL     1      -5.602  13.534  20.568  0.00  0.00    +0.000 C 
ATOM      8  C   UNL     1      -3.116  12.834  20.365  0.00  0.00    +0.000 A 
ATOM      9  C   UNL     1      -2.539  13.611  21.498  0.00  0.00    +0.000 C 
ATOM     10  C   UNL     1      -2.383  11.971  19.494  0.00  0.00    +0.000 A 
ATOM     11  C   UNL     1      -1.022  11.606  19.402  0.00  0.00    +0.000 A 
ATOM     12  C   UNL     1      -0.601  10.701  18.413  0.00  0.00    +0.000 A 
ATOM     13  C   UNL     1      -1.530  10.162  17.521  0.00  0.00    +0.000 A 
ATOM     14  C   UNL     1      -2.884  10.510  17.594  0.00  0.00    +0.000 A 
ATOM     15  C   UNL     1      -3.286  11.429  18.581  0.00  0.00    +0.000 A 
BRANCH   5  17
ATOM     16  C   UNL     1      -6.572  10.631  18.522  0.00  0.00    +0.000 C 
ATOM     17  C   UNL     1      -5.708  11.776  18.026  0.00  0.00    +0.000 C 
ENDBRANCH   5  17
ENDBRANCH   1  12
BRANCH   3  18
ATOM     18  C   UNL     1       2.593   8.649  18.058  0.00  0.00    +0.000 C 
BRANCH  18  19
ATOM     19  C   UNL     1       2.774   7.209  18.490  0.00  0.00    +0.000 A 
ATOM     20  C   UNL     1       2.206   6.765  19.695  0.00  0.00    +0.000 A 
ATOM     21  C   UNL     1       2.395   5.453  20.137  0.00  0.00    +0.000 A 
ATOM     22  C   UNL     1       3.133   4.562  19.356  0.00  0.00    +0.000 A 
ATOM     23  C   UNL     1       3.670   4.970  18.132  0.00  0.00    +0.000 A 
ATOM     24  C   UNL     1       3.492   6.293  17.705  0.00  0.00    +0.000 A 
BRANCH  22  25
ATOM     25  S   UNL     1       3.489   2.937  19.997  0.00  0.00    +0.000 S 
ATOM     26  O   UNL     1       4.914   2.713  19.846  0.00  0.00    +0.000 OA
ATOM     27  O   UNL     1       2.858   2.875  21.303  0.00  0.00    +0.000 OA
BRANCH  25  28
ATOM     28  C   UNL     1       2.644   1.804  18.910  0.00  0.00    +0.000 C 
ATOM     29  C   UNL     1       1.214   2.255  18.644  0.00  0.00    +0.000 C 
ENDBRANCH  25  28
ENDBRANCH  22  25
ENDBRANCH  18  19
ENDBRANCH   3  18
TORSDOF 6
ENDMDL
MODEL 2
REMARK VINA RESULT:      -7.8      3.526      9.672
REMARK  Name = 
REMARK  10 active torsions:
REMARK  status: ('A' for Active; 'I' for Inactive)
REMARK    1  A    between atoms: C_1  and  C_2
REMARK    2  A    between atoms: C_2  and  N_3
REMARK    3  A    between atoms: C_4  and  C_5
REMARK    4  A    between atoms: C_6  and  C_7
REMARK    5  A    between atoms: C_10  and  C_11
REMARK    6  A    between atoms: N_13  and  C_14
REMARK    7  A    between atoms: C_14  and  C_15
REMARK    8  A    between atoms: C_18  and  S_19
REMARK    9  A    between atoms: S_19  and  C_22
REMARK   10  A    between atoms: C_22  and  C_23
REMARK                            x       y       z     vdW  Elec       q    Type
REMARK                         _______ _______ _______ _____ _____    ______ ____
ROOT
ATOM      1  C   UNL     1       1.297   8.508  20.724  0.00  0.00    +0.000 C 
ATOM      2  O   UNL     1       1.115   8.592  21.934  0.00  0.00    +0.000 OA
ATOM      3  N   UNL     1       1.024   9.533  19.842  0.00  0.00    +0.000 N 
ATOM      4  H   UNL     1       1.335   9.465  18.884  0.00  0.00    +0.000 HD
ENDROOT
BRANCH   1  12
ATOM      5  N   UNL     1       3.796   4.024  18.389  0.00  0.00    +0.000 N 
ATOM      6  C   UNL     1       4.436   4.614  17.313  0.00  0.00    +0.000 A 
ATOM      7  C   UNL     1       5.280   3.882  16.321  0.00  0.00    +0.000 C 
ATOM      8  C   UNL     1       4.153   5.974  17.354  0.00  0.00    +0.000 A 
ATOM      9  C   UNL     1       4.651   7.020  16.417  0.00  0.00    +0.000 C 
ATOM     10  C   UNL     1       3.288   6.202  18.468  0.00  0.00    +0.000 A 
ATOM     11  C   UNL     1       2.687   7.357  19.015  0.00  0.00    +0.000 A 
ATOM     12  C   UNL     1       1.856   7.252  20.143  0.00  0.00    +0.000 A 
ATOM     13  C   UNL     1       1.625   6.003  20.723  0.00  0.00    +0.000 A 
ATOM     14  C   UNL     1       2.211   4.845  20.198  0.00  0.00    +0.000 A 
ATOM     15  C   UNL     1       3.052   4.971  19.077  0.00  0.00    +0.000 A 
BRANCH   5  17
ATOM     16  C   UNL     1       2.837   1.748  18.221  0.00  0.00    +0.000 C 
ATOM     17  C   UNL     1       3.922   2.634  18.803  0.00  0.00    +0.000 C 
ENDBRANCH   5  17
ENDBRANCH   1  12
BRANCH   3  18
ATOM     18  C   UNL     1       0.471  10.801  20.284  0.00  0.00    +0.000 C 
BRANCH  18  19
ATOM     19  C   UNL     1      -0.880  11.068  19.655  0.00  0.00    +0.000 A 
ATOM     20  C   UNL     1      -1.711  12.069  20.184  0.00  0.00    +0.000 A 
ATOM     21  C   UNL     1      -2.979  12.306  19.649  0.00  0.00    +0.000 A 
ATOM     22  C   UNL     1      -3.418  11.558  18.555  0.00  0.00    +0.000 A 
ATOM     23  C   UNL     1      -2.591  10.586  17.986  0.00  0.00    +0.000 A 
ATOM     24  C   UNL     1      -1.326  10.342  18.540  0.00  0.00    +0.000 A 
BRANCH  22  25
ATOM     25  S   UNL     1      -5.090  11.768  17.975  0.00  0.00    +0.000 S 
ATOM     26  O   UNL     1      -5.599  12.998  18.554  0.00  0.00    +0.000 OA
ATOM     27  O   UNL     1      -5.041  11.586  16.536  0.00  0.00    +0.000 OA
BRANCH  25  28
ATOM     28  C   UNL     1      -6.010  10.415  18.683  0.00  0.00    +0.000 C 
ATOM     29  C   UNL     1      -6.911  10.891  19.815  0.00  0.00    +0.000 C 
ENDBRANCH  25  28
ENDBRANCH  22  25
ENDBRANCH  18  19
ENDBRANCH   3  18
TORSDOF 6
ENDMDL
MODEL 3
REMARK VINA RESULT:      -7.8      3.573      9.748
REMARK  Name = 
REMARK  10 active torsions:
REMARK  status: ('A' for Active; 'I' for Inactive)
REMARK    1  A    between atoms: C_1  and  C_2
REMARK    2  A    between atoms: C_2  and  N_3
REMARK    3  A    between atoms: C_4  and  C_5
REMARK    4  A    between atoms: C_6  and  C_7
REMARK    5  A    between atoms: C_10  and  C_11
REMARK    6  A    between atoms: N_13  and  C_14
REMARK    7  A    between atoms: C_14  and  C_15
REMARK    8  A    between atoms: C_18  and  S_19
REMARK    9  A    between atoms: S_19  and  C_22
REMARK   10  A    between atoms: C_22  and  C_23
REMARK                            x       y       z     vdW  Elec       q    Type
REMARK                         _______ _______ _______ _____ _____    ______ ____
ROOT
ATOM      1  C   UNL     1       1.238   8.751  20.486  0.00  0.00    +0.000 C 
ATOM      2  O   UNL     1       0.863   8.632  21.648  0.00  0.00    +0.000 OA
ATOM      3  N   UNL     1       1.073   9.907  19.752  0.00  0.00    +0.000 N 
ATOM      4  H   UNL     1       1.535  10.001  18.859  0.00  0.00    +0.000 HD
ENDROOT
BRANCH   1  12
ATOM      5  N   UNL     1       3.500   4.159  18.122  0.00  0.00    +0.000 N 
ATOM      6  C   UNL     1       3.271   3.218  19.109  0.00  0.00    +0.000 A 
ATOM      7  C   UNL     1       3.666   1.780  19.022  0.00  0.00    +0.000 C 
ATOM      8  C   UNL     1       2.613   3.860  20.152  0.00  0.00    +0.000 A 
ATOM      9  C   UNL     1       2.131   3.244  21.420  0.00  0.00    +0.000 C 
ATOM     10  C   UNL     1       2.474   5.236  19.793  0.00  0.00    +0.000 A 
ATOM     11  C   UNL     1       1.891   6.354  20.429  0.00  0.00    +0.000 A 
ATOM     12  C   UNL     1       1.925   7.614  19.807  0.00  0.00    +0.000 A 
ATOM     13  C   UNL     1       2.535   7.759  18.560  0.00  0.00    +0.000 A 
ATOM     14  C   UNL     1       3.119   6.663  17.912  0.00  0.00    +0.000 A 
ATOM     15  C   UNL     1       3.063   5.406  18.543  0.00  0.00    +0.000 A 
BRANCH   5  17
ATOM     16  C   UNL     1       5.538   4.191  16.716  0.00  0.00    +0.000 C 
ATOM     17  C   UNL     1       4.052   3.896  16.800  0.00  0.00    +0.000 C 
ENDBRANCH   5  17
ENDBRANCH   1  12
BRANCH   3  18
ATOM     18  C   UNL     1       0.414  11.080  20.298  0.00  0.00    +0.000 C 
BRANCH  18  19
ATOM     19  C   UNL     1      -0.964  11.272  19.703  0.00  0.00    +0.000 A 
ATOM     20  C   UNL     1      -1.840  12.216  20.262  0.00  0.00    +0.000 A 
ATOM     21  C   UNL     1      -3.132  12.382  19.758  0.00  0.00    +0.000 A 
ATOM     22  C   UNL     1      -3.550  11.621  18.664  0.00  0.00    +0.000 A 
ATOM     23  C   UNL     1      -2.679  10.707  18.065  0.00  0.00    +0.000 A 
ATOM     24  C   UNL     1      -1.391  10.533  18.589  0.00  0.00    +0.000 A 
BRANCH  22  25
ATOM     25  S   UNL     1      -5.244  11.737  18.123  0.00  0.00    +0.000 S 
ATOM     26  O   UNL     1      -5.230  12.184  16.743  0.00  0.00    +0.000 OA
ATOM     27  O   UNL     1      -5.871  10.482  18.495  0.00  0.00    +0.000 OA
BRANCH  25  28
ATOM     28  C   UNL     1      -5.966  13.039  19.105  0.00  0.00    +0.000 C 
ATOM     29  C   UNL     1      -6.920  12.477  20.151  0.00  0.00    +0.000 C 
ENDBRANCH  25  28
ENDBRANCH  22  25
ENDBRANCH  18  19
ENDBRANCH   3  18
TORSDOF 6
ENDMDL
MODEL 4
REMARK VINA RESULT:      -7.8      3.540      9.691
REMARK  Name = 
REMARK  10 active torsions:
REMARK  status: ('A' for Active; 'I' for Inactive)
REMARK    1  A    between atoms: C_1  and  C_2
REMARK    2  A    between atoms: C_2  and  N_3
REMARK    3  A    between atoms: C_4  and  C_5
REMARK    4  A    between atoms: C_6  and  C_7
REMARK    5  A    between atoms: C_10  and  C_11
REMARK    6  A    between atoms: N_13  and  C_14
REMARK    7  A    between atoms: C_14  and  C_15
REMARK    8  A    between atoms: C_18  and  S_19
REMARK    9  A    between atoms: S_19  and  C_22
REMARK   10  A    between atoms: C_22  and  C_23
REMARK                            x       y       z     vdW  Elec       q    Type
REMARK                         _______ _______ _______ _____ _____    ______ ____
ROOT
ATOM      1  C   UNL     1       1.167   8.812  20.503  0.00  0.00    +0.000 C 
ATOM      2  O   UNL     1       0.728   8.676  21.640  0.00  0.00    +0.000 OA
ATOM      3  N   UNL     1       1.072   9.988  19.789  0.00  0.00    +0.000 N 
ATOM      4  H   UNL     1       1.583  10.090  18.924  0.00  0.00    +0.000 HD
ENDROOT
BRANCH   1  12
ATOM      5  N   UNL     1       3.468   4.209  18.195  0.00  0.00    +0.000 N 
ATOM      6  C   UNL     1       3.291   3.291  19.215  0.00  0.00    +0.000 A 
ATOM      7  C   UNL     1       3.718   1.861  19.154  0.00  0.00    +0.000 C 
ATOM      8  C   UNL     1       2.650   3.946  20.259  0.00  0.00    +0.000 A 
ATOM      9  C   UNL     1       2.221   3.355  21.558  0.00  0.00    +0.000 C 
ATOM     10  C   UNL     1       2.467   5.308  19.868  0.00  0.00    +0.000 A 
ATOM     11  C   UNL     1       1.876   6.430  20.490  0.00  0.00    +0.000 A 
ATOM     12  C   UNL     1       1.860   7.672  19.834  0.00  0.00    +0.000 A 
ATOM     13  C   UNL     1       2.429   7.796  18.565  0.00  0.00    +0.000 A 
ATOM     14  C   UNL     1       3.019   6.697  17.930  0.00  0.00    +0.000 A 
ATOM     15  C   UNL     1       3.013   5.457  18.595  0.00  0.00    +0.000 A 
BRANCH   5  17
ATOM     16  C   UNL     1       5.453   4.278  16.717  0.00  0.00    +0.000 C 
ATOM     17  C   UNL     1       3.986   3.923  16.865  0.00  0.00    +0.000 C 
ENDBRANCH   5  17
ENDBRANCH   1  12
BRANCH   3  18
ATOM     18  C   UNL     1       0.414  11.165  20.328  0.00  0.00    +0.000 C 
BRANCH  18  19
ATOM     19  C   UNL     1      -0.993  11.312  19.790  0.00  0.00    +0.000 A 
ATOM     20  C   UNL     1      -1.416  10.515  18.714  0.00  0.00    +0.000 A 
ATOM     21  C   UNL     1      -2.695  10.661  18.172  0.00  0.00    +0.000 A 
ATOM     22  C   UNL     1      -3.576  11.593  18.724  0.00  0.00    +0.000 A 
ATOM     23  C   UNL     1      -3.191  12.367  19.822  0.00  0.00    +0.000 A 
ATOM     24  C   UNL     1      -1.900  12.226  20.349  0.00  0.00    +0.000 A 
BRANCH  22  25
ATOM     25  S   UNL     1      -5.149  11.873  17.933  0.00  0.00    +0.000 S 
ATOM     26  O   UNL     1      -5.693  13.105  18.473  0.00  0.00    +0.000 OA
ATOM     27  O   UNL     1      -4.914  11.721  16.509  0.00  0.00    +0.000 OA
BRANCH  25  28
ATOM     28  C   UNL     1      -6.196  10.535  18.476  0.00  0.00    +0.000 C 
ATOM     29  C   UNL     1      -6.964  10.911  19.735  0.00  0.00    +0.000 C 
ENDBRANCH  25  28
ENDBRANCH  22  25
ENDBRANCH  18  19
ENDBRANCH   3  18
TORSDOF 6
ENDMDL
MODEL 5
REMARK VINA RESULT:      -7.8      0.818      2.128
REMARK  Name = 
REMARK  10 active torsions:
REMARK  status: ('A' for Active; 'I' for Inactive)
REMARK    1  A    between atoms: C_1  and  C_2
REMARK    2  A    between atoms: C_2  and  N_3
REMARK    3  A    between atoms: C_4  and  C_5
REMARK    4  A    between atoms: C_6  and  C_7
REMARK    5  A    between atoms: C_10  and  C_11
REMARK    6  A    between atoms: N_13  and  C_14
REMARK    7  A    between atoms: C_14  and  C_15
REMARK    8  A    between atoms: C_18  and  S_19
REMARK    9  A    between atoms: S_19  and  C_22
REMARK   10  A    between atoms: C_22  and  C_23
REMARK                            x       y       z     vdW  Elec       q    Type
REMARK                         _______ _______ _______ _____ _____    ______ ____
ROOT
ATOM      1  C   UNL     1       1.091  10.594  18.557  0.00  0.00    +0.000 C 
ATOM      2  O   UNL     1       2.043  11.367  18.577  0.00  0.00    +0.000 OA
ATOM      3  N   UNL     1       1.219   9.241  18.318  0.00  0.00    +0.000 N 
ATOM      4  H   UNL     1       0.427   8.632  18.465  0.00  0.00    +0.000 HD
ENDROOT
BRANCH   1  12
ATOM      5  N   UNL     1      -4.280  12.161  19.253  0.00  0.00    +0.000 N 
ATOM      6  C   UNL     1      -4.812  11.826  18.020  0.00  0.00    +0.000 A 
ATOM      7  C   UNL     1      -6.240  12.019  17.628  0.00  0.00    +0.000 C 
ATOM      8  C   UNL     1      -3.783  11.283  17.258  0.00  0.00    +0.000 A 
ATOM      9  C   UNL     1      -3.885  10.747  15.871  0.00  0.00    +0.000 C 
ATOM     10  C   UNL     1      -2.592  11.326  18.045  0.00  0.00    +0.000 A 
ATOM     11  C   UNL     1      -1.261  10.913  17.820  0.00  0.00    +0.000 A 
ATOM     12  C   UNL     1      -0.287  11.105  18.814  0.00  0.00    +0.000 A 
ATOM     13  C   UNL     1      -0.637  11.705  20.026  0.00  0.00    +0.000 A 
ATOM     14  C   UNL     1      -1.952  12.120  20.270  0.00  0.00    +0.000 A 
ATOM     15  C   UNL     1      -2.917  11.907  19.269  0.00  0.00    +0.000 A 
BRANCH   5  17
ATOM     16  C   UNL     1      -5.159  14.157  20.427  0.00  0.00    +0.000 C 
ATOM     17  C   UNL     1      -5.029  12.646  20.404  0.00  0.00    +0.000 C 
ENDBRANCH   5  17
ENDBRANCH   1  12
BRANCH   3  18
ATOM     18  C   UNL     1       2.505   8.625  18.047  0.00  0.00    +0.000 C 
BRANCH  18  19
ATOM     19  C   UNL     1       2.572   7.213  18.589  0.00  0.00    +0.000 A 
ATOM     20  C   UNL     1       1.997   6.916  19.835  0.00  0.00    +0.000 A 
ATOM     21  C   UNL     1       2.082   5.631  20.376  0.00  0.00    +0.000 A 
ATOM     22  C   UNL     1       2.722   4.620  19.656  0.00  0.00    +0.000 A 
ATOM     23  C   UNL     1       3.263   4.883  18.395  0.00  0.00    +0.000 A 
ATOM     24  C   UNL     1       3.189   6.179  17.867  0.00  0.00    +0.000 A 
BRANCH  22  25
ATOM     25  S   UNL     1       2.951   3.025  20.419  0.00  0.00    +0.000 S 
ATOM     26  O   UNL     1       4.330   2.632  20.196  0.00  0.00    +0.000 OA
ATOM     27  O   UNL     1       2.417   3.143  21.763  0.00  0.00    +0.000 OA
BRANCH  25  28
ATOM     28  C   UNL     1       1.913   1.906  19.497  0.00  0.00    +0.000 C 
ATOM     29  C   UNL     1       0.639   2.595  19.027  0.00  0.00    +0.000 C 
ENDBRANCH  25  28
ENDBRANCH  22  25
ENDBRANCH  18  19
ENDBRANCH   3  18
TORSDOF 6
ENDMDL
MODEL 6
REMARK VINA RESULT:      -7.7      1.652      2.423
REMARK  Name = 
REMARK  10 active torsions:
REMARK  status: ('A' for Active; 'I' for Inactive)
REMARK    1  A    between atoms: C_1  and  C_2
REMARK    2  A    between atoms: C_2  and  N_3
REMARK    3  A    between atoms: C_4  and  C_5
REMARK    4  A    between atoms: C_6  and  C_7
REMARK    5  A    between atoms: C_10  and  C_11
REMARK    6  A    between atoms: N_13  and  C_14
REMARK    7  A    between atoms: C_14  and  C_15
REMARK    8  A    between atoms: C_18  and  S_19
REMARK    9  A    between atoms: S_19  and  C_22
REMARK   10  A    between atoms: C_22  and  C_23
REMARK                            x       y       z     vdW  Elec       q    Type
REMARK                         _______ _______ _______ _____ _____    ______ ____
ROOT
ATOM      1  C   UNL     1       1.659  10.541  18.296  0.00  0.00    +0.000 C 
ATOM      2  O   UNL     1       2.528  11.235  17.780  0.00  0.00    +0.000 OA
ATOM      3  N   UNL     1       1.687   9.161  18.288  0.00  0.00    +0.000 N 
ATOM      4  H   UNL     1       1.031   8.646  18.857  0.00  0.00    +0.000 HD
ENDROOT
BRANCH   1  12
ATOM      5  N   UNL     1      -2.452  12.918  21.336  0.00  0.00    +0.000 N 
ATOM      6  C   UNL     1      -2.378  12.175  22.501  0.00  0.00    +0.000 A 
ATOM      7  C   UNL     1      -3.252  12.376  23.695  0.00  0.00    +0.000 C 
ATOM      8  C   UNL     1      -1.353  11.249  22.339  0.00  0.00    +0.000 A 
ATOM      9  C   UNL     1      -0.881  10.253  23.342  0.00  0.00    +0.000 C 
ATOM     10  C   UNL     1      -0.820  11.419  21.025  0.00  0.00    +0.000 A 
ATOM     11  C   UNL     1       0.222  10.792  20.308  0.00  0.00    +0.000 A 
ATOM     12  C   UNL     1       0.507  11.187  18.990  0.00  0.00    +0.000 A 
ATOM     13  C   UNL     1      -0.242  12.201  18.390  0.00  0.00    +0.000 A 
ATOM     14  C   UNL     1      -1.279  12.837  19.083  0.00  0.00    +0.000 A 
ATOM     15  C   UNL     1      -1.541  12.439  20.408  0.00  0.00    +0.000 A 
BRANCH   5  17
ATOM     16  C   UNL     1      -4.670  13.712  20.575  0.00  0.00    +0.000 C 
ATOM     17  C   UNL     1      -3.301  14.080  21.115  0.00  0.00    +0.000 C 
ENDBRANCH   5  17
ENDBRANCH   1  12
BRANCH   3  18
ATOM     18  C   UNL     1       2.750   8.416  17.639  0.00  0.00    +0.000 C 
BRANCH  18  19
ATOM     19  C   UNL     1       2.958   7.064  18.286  0.00  0.00    +0.000 A 
ATOM     20  C   UNL     1       3.775   6.108  17.661  0.00  0.00    +0.000 A 
ATOM     21  C   UNL     1       3.949   4.838  18.216  0.00  0.00    +0.000 A 
ATOM     22  C   UNL     1       3.326   4.523  19.425  0.00  0.00    +0.000 A 
ATOM     23  C   UNL     1       2.543   5.473  20.087  0.00  0.00    +0.000 A 
ATOM     24  C   UNL     1       2.359   6.739  19.514  0.00  0.00    +0.000 A 
BRANCH  22  25
ATOM     25  S   UNL     1       3.436   2.856  20.048  0.00  0.00    +0.000 S 
ATOM     26  O   UNL     1       4.828   2.455  19.971  0.00  0.00    +0.000 OA
ATOM     27  O   UNL     1       2.726   2.854  21.314  0.00  0.00    +0.000 OA
BRANCH  25  28
ATOM     28  C   UNL     1       2.520   1.857  18.889  0.00  0.00    +0.000 C 
ATOM     29  C   UNL     1       1.068   2.305  18.799  0.00  0.00    +0.000 C 
ENDBRANCH  25  28
ENDBRANCH  22  25
ENDBRANCH  18  19
ENDBRANCH   3  18
TORSDOF 6
ENDMDL
MODEL 7
REMARK VINA RESULT:      -7.7      1.012      1.157
REMARK  Name = 
REMARK  10 active torsions:
REMARK  status: ('A' for Active; 'I' for Inactive)
REMARK    1  A    between atoms: C_1  and  C_2
REMARK    2  A    between atoms: C_2  and  N_3
REMARK    3  A    between atoms: C_4  and  C_5
REMARK    4  A    between atoms: C_6  and  C_7
REMARK    5  A    between atoms: C_10  and  C_11
REMARK    6  A    between atoms: N_13  and  C_14
REMARK    7  A    between atoms: C_14  and  C_15
REMARK    8  A    between atoms: C_18  and  S_19
REMARK    9  A    between atoms: S_19  and  C_22
REMARK   10  A    between atoms: C_22  and  C_23
REMARK                            x       y       z     vdW  Elec       q    Type
REMARK                         _______ _______ _______ _____ _____    ______ ____
ROOT
ATOM      1  C   UNL     1       1.109  10.119  18.200  0.00  0.00    +0.000 C 
ATOM      2  O   UNL     1       1.922  11.033  18.298  0.00  0.00    +0.000 OA
ATOM      3  N   UNL     1       1.468   8.804  17.988  0.00  0.00    +0.000 N 
ATOM      4  H   UNL     1       0.772   8.078  18.069  0.00  0.00    +0.000 HD
ENDROOT
BRANCH   1  12
ATOM      5  N   UNL     1      -4.282  11.669  18.778  0.00  0.00    +0.000 N 
ATOM      6  C   UNL     1      -4.172  12.634  19.763  0.00  0.00    +0.000 A 
ATOM      7  C   UNL     1      -5.317  13.410  20.326  0.00  0.00    +0.000 C 
ATOM      8  C   UNL     1      -2.826  12.734  20.098  0.00  0.00    +0.000 A 
ATOM      9  C   UNL     1      -2.218  13.666  21.090  0.00  0.00    +0.000 C 
ATOM     10  C   UNL     1      -2.113  11.777  19.315  0.00  0.00    +0.000 A 
ATOM     11  C   UNL     1      -0.749  11.428  19.207  0.00  0.00    +0.000 A 
ATOM     12  C   UNL     1      -0.350  10.407  18.328  0.00  0.00    +0.000 A 
ATOM     13  C   UNL     1      -1.304   9.737  17.561  0.00  0.00    +0.000 A 
ATOM     14  C   UNL     1      -2.662  10.067  17.652  0.00  0.00    +0.000 A 
ATOM     15  C   UNL     1      -3.042  11.102  18.527  0.00  0.00    +0.000 A 
BRANCH   5  17
ATOM     16  C   UNL     1      -6.352  10.309  18.775  0.00  0.00    +0.000 C 
ATOM     17  C   UNL     1      -5.494  11.327  18.047  0.00  0.00    +0.000 C 
ENDBRANCH   5  17
ENDBRANCH   1  12
BRANCH   3  18
ATOM     18  C   UNL     1       2.854   8.399  17.839  0.00  0.00    +0.000 C 
BRANCH  18  19
ATOM     19  C   UNL     1       3.036   6.923  18.120  0.00  0.00    +0.000 A 
ATOM     20  C   UNL     1       1.911   6.091  18.240  0.00  0.00    +0.000 A 
ATOM     21  C   UNL     1       2.050   4.734  18.541  0.00  0.00    +0.000 A 
ATOM     22  C   UNL     1       3.326   4.189  18.696  0.00  0.00    +0.000 A 
ATOM     23  C   UNL     1       4.461   4.989  18.538  0.00  0.00    +0.000 A 
ATOM     24  C   UNL     1       4.312   6.354  18.255  0.00  0.00    +0.000 A 
BRANCH  22  25
ATOM     25  S   UNL     1       3.486   2.494  19.223  0.00  0.00    +0.000 S 
ATOM     26  O   UNL     1       3.319   1.657  18.049  0.00  0.00    +0.000 OA
ATOM     27  O   UNL     1       4.701   2.434  20.015  0.00  0.00    +0.000 OA
BRANCH  25  28
ATOM     28  C   UNL     1       2.096   2.200  20.300  0.00  0.00    +0.000 C 
ATOM     29  C   UNL     1       2.280   2.896  21.642  0.00  0.00    +0.000 C 
ENDBRANCH  25  28
ENDBRANCH  22  25
ENDBRANCH  18  19
ENDBRANCH   3  18
TORSDOF 6
ENDMDL
MODEL 8
REMARK VINA RESULT:      -7.6      1.085      1.231
REMARK  Name = 
REMARK  10 active torsions:
REMARK  status: ('A' for Active; 'I' for Inactive)
REMARK    1  A    between atoms: C_1  and  C_2
REMARK    2  A    between atoms: C_2  and  N_3
REMARK    3  A    between atoms: C_4  and  C_5
REMARK    4  A    between atoms: C_6  and  C_7
REMARK    5  A    between atoms: C_10  and  C_11
REMARK    6  A    between atoms: N_13  and  C_14
REMARK    7  A    between atoms: C_14  and  C_15
REMARK    8  A    between atoms: C_18  and  S_19
REMARK    9  A    between atoms: S_19  and  C_22
REMARK   10  A    between atoms: C_22  and  C_23
REMARK                            x       y       z     vdW  Elec       q    Type
REMARK                         _______ _______ _______ _____ _____    ______ ____
ROOT
ATOM      1  C   UNL     1       0.934   9.975  18.401  0.00  0.00    +0.000 C 
ATOM      2  O   UNL     1       1.754  10.650  19.015  0.00  0.00    +0.000 OA
ATOM      3  N   UNL     1       1.264   8.838  17.693  0.00  0.00    +0.000 N 
ATOM      4  H   UNL     1       0.532   8.241  17.338  0.00  0.00    +0.000 HD
ENDROOT
BRANCH   1  12
ATOM      5  N   UNL     1      -4.366  11.891  18.608  0.00  0.00    +0.000 N 
ATOM      6  C   UNL     1      -4.300  12.720  19.714  0.00  0.00    +0.000 A 
ATOM      7  C   UNL     1      -5.444  13.517  20.248  0.00  0.00    +0.000 C 
ATOM      8  C   UNL     1      -2.997  12.667  20.197  0.00  0.00    +0.000 A 
ATOM      9  C   UNL     1      -2.442  13.420  21.357  0.00  0.00    +0.000 C 
ATOM     10  C   UNL     1      -2.269  11.752  19.377  0.00  0.00    +0.000 A 
ATOM     11  C   UNL     1      -0.929  11.306  19.368  0.00  0.00    +0.000 A 
ATOM     12  C   UNL     1      -0.506  10.367  18.412  0.00  0.00    +0.000 A 
ATOM     13  C   UNL     1      -1.412   9.875  17.471  0.00  0.00    +0.000 A 
ATOM     14  C   UNL     1      -2.745  10.304  17.462  0.00  0.00    +0.000 A 
ATOM     15  C   UNL     1      -3.148  11.256  18.417  0.00  0.00    +0.000 A 
BRANCH   5  17
ATOM     16  C   UNL     1      -6.599  10.866  18.305  0.00  0.00    +0.000 C 
ATOM     17  C   UNL     1      -5.508  11.741  17.717  0.00  0.00    +0.000 C 
ENDBRANCH   5  17
ENDBRANCH   1  12
BRANCH   3  18
ATOM     18  C   UNL     1       2.632   8.359  17.600  0.00  0.00    +0.000 C 
BRANCH  18  19
ATOM     19  C   UNL     1       2.773   6.964  18.170  0.00  0.00    +0.000 A 
ATOM     20  C   UNL     1       3.803   6.683  19.081  0.00  0.00    +0.000 A 
ATOM     21  C   UNL     1       3.980   5.393  19.588  0.00  0.00    +0.000 A 
ATOM     22  C   UNL     1       3.104   4.375  19.207  0.00  0.00    +0.000 A 
ATOM     23  C   UNL     1       2.046   4.642  18.334  0.00  0.00    +0.000 A 
ATOM     24  C   UNL     1       1.886   5.935  17.816  0.00  0.00    +0.000 A 
BRANCH  22  25
ATOM     25  S   UNL     1       3.427   2.706  19.744  0.00  0.00    +0.000 S 
ATOM     26  O   UNL     1       2.649   1.820  18.900  0.00  0.00    +0.000 OA
ATOM     27  O   UNL     1       4.871   2.584  19.825  0.00  0.00    +0.000 OA
BRANCH  25  28
ATOM     28  C   UNL     1       2.761   2.604  21.395  0.00  0.00    +0.000 C 
ATOM     29  C   UNL     1       1.260   2.859  21.403  0.00  0.00    +0.000 C 
ENDBRANCH  25  28
ENDBRANCH  22  25
ENDBRANCH  18  19
ENDBRANCH   3  18
TORSDOF 6
ENDMDL
MODEL 9
REMARK VINA RESULT:      -7.6      1.404      2.568
REMARK  Name = 
REMARK  10 active torsions:
REMARK  status: ('A' for Active; 'I' for Inactive)
REMARK    1  A    between atoms: C_1  and  C_2
REMARK    2  A    between atoms: C_2  and  N_3
REMARK    3  A    between atoms: C_4  and  C_5
REMARK    4  A    between atoms: C_6  and  C_7
REMARK    5  A    between atoms: C_10  and  C_11
REMARK    6  A    between atoms: N_13  and  C_14
REMARK    7  A    between atoms: C_14  and  C_15
REMARK    8  A    between atoms: C_18  and  S_19
REMARK    9  A    between atoms: S_19  and  C_22
REMARK   10  A    between atoms: C_22  and  C_23
REMARK                            x       y       z     vdW  Elec       q    Type
REMARK                         _______ _______ _______ _____ _____    ______ ____
ROOT
ATOM      1  C   UNL     1       0.665  10.363  19.439  0.00  0.00    +0.000 C 
ATOM      2  O   UNL     1       1.406  10.520  20.404  0.00  0.00    +0.000 OA
ATOM      3  N   UNL     1       1.001   9.595  18.343  0.00  0.00    +0.000 N 
ATOM      4  H   UNL     1       0.297   9.376  17.653  0.00  0.00    +0.000 HD
ENDROOT
BRANCH   1  12
ATOM      5  N   UNL     1      -4.574  12.421  19.107  0.00  0.00    +0.000 N 
ATOM      6  C   UNL     1      -4.930  12.024  17.831  0.00  0.00    +0.000 A 
ATOM      7  C   UNL     1      -6.251  12.299  17.192  0.00  0.00    +0.000 C 
ATOM      8  C   UNL     1      -3.849  11.334  17.293  0.00  0.00    +0.000 A 
ATOM      9  C   UNL     1      -3.777  10.689  15.952  0.00  0.00    +0.000 C 
ATOM     10  C   UNL     1      -2.801  11.347  18.264  0.00  0.00    +0.000 A 
ATOM     11  C   UNL     1      -1.496  10.809  18.297  0.00  0.00    +0.000 A 
ATOM     12  C   UNL     1      -0.681  11.006  19.424  0.00  0.00    +0.000 A 
ATOM     13  C   UNL     1      -1.163  11.736  20.512  0.00  0.00    +0.000 A 
ATOM     14  C   UNL     1      -2.454  12.278  20.501  0.00  0.00    +0.000 A 
ATOM     15  C   UNL     1      -3.262  12.058  19.370  0.00  0.00    +0.000 A 
BRANCH   5  17
ATOM     16  C   UNL     1      -6.228  12.068  20.916  0.00  0.00    +0.000 C 
ATOM     17  C   UNL     1      -5.448  13.064  20.079  0.00  0.00    +0.000 C 
ENDBRANCH   5  17
ENDBRANCH   1  12
BRANCH   3  18
ATOM     18  C   UNL     1       2.284   8.924  18.236  0.00  0.00    +0.000 C 
BRANCH  18  19
ATOM     19  C   UNL     1       2.197   7.482  18.687  0.00  0.00    +0.000 A 
ATOM     20  C   UNL     1       2.317   6.448  17.744  0.00  0.00    +0.000 A 
ATOM     21  C   UNL     1       2.199   5.110  18.128  0.00  0.00    +0.000 A 
ATOM     22  C   UNL     1       1.987   4.793  19.471  0.00  0.00    +0.000 A 
ATOM     23  C   UNL     1       1.908   5.804  20.433  0.00  0.00    +0.000 A 
ATOM     24  C   UNL     1       2.010   7.145  20.036  0.00  0.00    +0.000 A 
BRANCH  22  25
ATOM     25  S   UNL     1       1.692   3.095  19.926  0.00  0.00    +0.000 S 
ATOM     26  O   UNL     1       1.344   3.077  21.334  0.00  0.00    +0.000 OA
ATOM     27  O   UNL     1       0.784   2.564  18.926  0.00  0.00    +0.000 OA
BRANCH  25  28
ATOM     28  C   UNL     1       3.267   2.277  19.747  0.00  0.00    +0.000 C 
ATOM     29  C   UNL     1       3.437   1.708  18.345  0.00  0.00    +0.000 C 
ENDBRANCH  25  28
ENDBRANCH  22  25
ENDBRANCH  18  19
ENDBRANCH   3  18
TORSDOF 6
ENDMDL
