MODEL 1
REMARK VINA RESULT:      -7.6      0.000      0.000
REMARK  Name = 
REMARK  15 active torsions:
REMARK  status: ('A' for Active; 'I' for Inactive)
REMARK    1  A    between atoms: C_1  and  C_2
REMARK    2  A    between atoms: C_2  and  C_3
REMARK    3  A    between atoms: C_3  and  C_4
REMARK    4  A    between atoms: C_4  and  C_5
REMARK    5  A    between atoms: C_5  and  C_6
REMARK    6  A    between atoms: C_6  and  C_7
REMARK    7  A    between atoms: C_7  and  C_8
REMARK    8  A    between atoms: C_8  and  C_9
REMARK    9  A    between atoms: C_12  and  C_13
REMARK   10  A    between atoms: C_12  and  C_14
REMARK   11  A    between atoms: C_16  and  C_17
REMARK   12  A    between atoms: C_17  and  C_18
REMARK   13  A    between atoms: C_18  and  O_19
REMARK   14  A    between atoms: O_19  and  C_20
REMARK   15  A    between atoms: C_20  and  C_21
REMARK                            x       y       z     vdW  Elec       q    Type
REMARK                         _______ _______ _______ _____ _____    ______ ____
ROOT
ATOM      1  C   UNL     1       5.490   4.658  16.458  0.00  0.00    +0.000 C 
ATOM      2  C   UNL     1       4.222   3.808  16.592  0.00  0.00    +0.000 C 
ATOM      3  O   UNL     1       3.781   3.819  17.941  0.00  0.00    +0.000 OA
ATOM      4  C   UNL     1       3.378   5.128  18.355  0.00  0.00    +0.000 C 
ATOM      5  C   UNL     1       3.581   5.194  19.870  0.00  0.00    +0.000 C 
ATOM      6  C   UNL     1       1.901   5.341  18.027  0.00  0.00    +0.000 C 
ATOM      7  O   UNL     1       4.099   6.177  17.712  0.00  0.00    +0.000 OA
ATOM      8  C   UNL     1       5.462   5.822  17.475  0.00  0.00    +0.000 C 
ENDROOT
BRANCH   1   9
ATOM      9  C   UNL     1       5.680   5.043  14.982  0.00  0.00    +0.000 C 
BRANCH   9  10
ATOM     10  C   UNL     1       6.832   4.305  14.299  0.00  0.00    +0.000 C 
BRANCH  10  11
ATOM     11  C   UNL     1       6.494   4.043  12.834  0.00  0.00    +0.000 C 
BRANCH  11  12
ATOM     12  C   UNL     1       5.029   3.782  12.709  0.00  0.00    +0.000 C 
BRANCH  12  13
ATOM     13  C   UNL     1       4.730   3.042  11.439  0.00  0.00    +0.000 C 
BRANCH  13  14
ATOM     14  C   UNL     1       3.335   3.399  10.953  0.00  0.00    +0.000 C 
BRANCH  14  16
ATOM     15  C   UNL     1       2.243   4.824   9.218  0.00  0.00    +0.000 C 
ATOM     16  C   UNL     1       3.372   3.852   9.500  0.00  0.00    +0.000 C 
ENDBRANCH  14  16
ENDBRANCH  13  14
ENDBRANCH  12  13
ENDBRANCH  11  12
ENDBRANCH  10  11
ENDBRANCH   9  10
ENDBRANCH   1   9
BRANCH   8  17
ATOM     17  C   UNL     1       6.217   7.095  17.091  0.00  0.00    +0.000 C 
BRANCH  17  18
ATOM     18  C   UNL     1       7.690   7.037  17.316  0.00  0.00    +0.000 C 
BRANCH  18  19
ATOM     19  O   UNL     1       8.056   7.963  18.327  0.00  0.00    +0.000 OA
BRANCH  19  20
ATOM     20  C   UNL     1       8.068   9.283  17.812  0.00  0.00    +0.000 C 
BRANCH  20  21
ATOM     21  C   UNL     1       9.072  10.157  18.511  0.00  0.00    +0.000 A 
ATOM     22  C   UNL     1       9.111  10.291  19.902  0.00  0.00    +0.000 A 
ATOM     23  C   UNL     1       9.991  11.184  20.507  0.00  0.00    +0.000 A 
ATOM     24  C   UNL     1      10.857  11.949  19.723  0.00  0.00    +0.000 A 
ATOM     25  C   UNL     1      10.848  11.807  18.339  0.00  0.00    +0.000 A 
ATOM     26  C   UNL     1       9.966  10.914  17.733  0.00  0.00    +0.000 A 
ENDBRANCH  20  21
ENDBRANCH  19  20
ENDBRANCH  18  19
ENDBRANCH  17  18
ENDBRANCH   8  17
TORSDOF 12
ENDMDL
MODEL 2
REMARK VINA RESULT:      -7.6      3.764      7.264
REMARK  Name = 
REMARK  15 active torsions:
REMARK  status: ('A' for Active; 'I' for Inactive)
REMARK    1  A    between atoms: C_1  and  C_2
REMARK    2  A    between atoms: C_2  and  C_3
REMARK    3  A    between atoms: C_3  and  C_4
REMARK    4  A    between atoms: C_4  and  C_5
REMARK    5  A    between atoms: C_5  and  C_6
REMARK    6  A    between atoms: C_6  and  C_7
REMARK    7  A    between atoms: C_7  and  C_8
REMARK    8  A    between atoms: C_8  and  C_9
REMARK    9  A    between atoms: C_12  and  C_13
REMARK   10  A    between atoms: C_12  and  C_14
REMARK   11  A    between atoms: C_16  and  C_17
REMARK   12  A    between atoms: C_17  and  C_18
REMARK   13  A    between atoms: C_18  and  O_19
REMARK   14  A    between atoms: O_19  and  C_20
REMARK   15  A    between atoms: C_20  and  C_21
REMARK                            x       y       z     vdW  Elec       q    Type
REMARK                         _______ _______ _______ _____ _____    ______ ____
ROOT
ATOM      1  C   UNL     1       4.904   5.196  16.336  0.00  0.00    +0.000 C 
ATOM      2  C   UNL     1       6.318   4.609  16.384  0.00  0.00    +0.000 C 
ATOM      3  O   UNL     1       7.263   5.653  16.560  0.00  0.00    +0.000 OA
ATOM      4  C   UNL     1       7.104   6.302  17.826  0.00  0.00    +0.000 C 
ATOM      5  C   UNL     1       7.625   7.730  17.658  0.00  0.00    +0.000 C 
ATOM      6  C   UNL     1       7.932   5.577  18.885  0.00  0.00    +0.000 C 
ATOM      7  O   UNL     1       5.756   6.318  18.293  0.00  0.00    +0.000 OA
ATOM      8  C   UNL     1       4.820   6.460  17.223  0.00  0.00    +0.000 C 
ENDROOT
BRANCH   1   9
ATOM      9  C   UNL     1       3.889   4.082  16.635  0.00  0.00    +0.000 C 
BRANCH   9  10
ATOM     10  C   UNL     1       4.243   3.243  17.864  0.00  0.00    +0.000 C 
BRANCH  10  11
ATOM     11  C   UNL     1       3.522   1.900  17.810  0.00  0.00    +0.000 C 
BRANCH  11  12
ATOM     12  C   UNL     1       2.713   1.728  19.053  0.00  0.00    +0.000 C 
BRANCH  12  13
ATOM     13  C   UNL     1       1.405   2.453  18.937  0.00  0.00    +0.000 C 
BRANCH  13  14
ATOM     14  C   UNL     1       1.017   3.030  20.289  0.00  0.00    +0.000 C 
BRANCH  14  16
ATOM     15  C   UNL     1       2.259   5.088  20.964  0.00  0.00    +0.000 C 
ATOM     16  C   UNL     1       1.034   4.552  20.249  0.00  0.00    +0.000 C 
ENDBRANCH  14  16
ENDBRANCH  13  14
ENDBRANCH  12  13
ENDBRANCH  11  12
ENDBRANCH  10  11
ENDBRANCH   9  10
ENDBRANCH   1   9
BRANCH   8  17
ATOM     17  C   UNL     1       3.458   6.788  17.834  0.00  0.00    +0.000 C 
BRANCH  17  18
ATOM     18  C   UNL     1       3.034   8.209  17.686  0.00  0.00    +0.000 C 
BRANCH  18  19
ATOM     19  O   UNL     1       1.655   8.333  17.996  0.00  0.00    +0.000 OA
BRANCH  19  20
ATOM     20  C   UNL     1       1.359   9.651  18.425  0.00  0.00    +0.000 C 
BRANCH  20  21
ATOM     21  C   UNL     1       0.807   9.682  19.823  0.00  0.00    +0.000 A 
ATOM     22  C   UNL     1      -0.000  10.725  20.288  0.00  0.00    +0.000 A 
ATOM     23  C   UNL     1      -0.412  10.768  21.617  0.00  0.00    +0.000 A 
ATOM     24  C   UNL     1      -0.029   9.756  22.499  0.00  0.00    +0.000 A 
ATOM     25  C   UNL     1       0.752   8.697  22.044  0.00  0.00    +0.000 A 
ATOM     26  C   UNL     1       1.165   8.655  20.714  0.00  0.00    +0.000 A 
ENDBRANCH  20  21
ENDBRANCH  19  20
ENDBRANCH  18  19
ENDBRANCH  17  18
ENDBRANCH   8  17
TORSDOF 12
ENDMDL
MODEL 3
REMARK VINA RESULT:      -7.5      3.724      7.336
REMARK  Name = 
REMARK  15 active torsions:
REMARK  status: ('A' for Active; 'I' for Inactive)
REMARK    1  A    between atoms: C_1  and  C_2
REMARK    2  A    between atoms: C_2  and  C_3
REMARK    3  A    between atoms: C_3  and  C_4
REMARK    4  A    between atoms: C_4  and  C_5
REMARK    5  A    between atoms: C_5  and  C_6
REMARK    6  A    between atoms: C_6  and  C_7
REMARK    7  A    between atoms: C_7  and  C_8
REMARK    8  A    between atoms: C_8  and  C_9
REMARK    9  A    between atoms: C_12  and  C_13
REMARK   10  A    between atoms: C_12  and  C_14
REMARK   11  A    between atoms: C_16  and  C_17
REMARK   12  A    between atoms: C_17  and  C_18
REMARK   13  A    between atoms: C_18  and  O_19
REMARK   14  A    between atoms: O_19  and  C_20
REMARK   15  A    between atoms: C_20  and  C_21
REMARK                            x       y       z     vdW  Elec       q    Type
REMARK                         _______ _______ _______ _____ _____    ______ ____
ROOT
ATOM      1  C   UNL     1       5.209   5.169  16.316  0.00  0.00    +0.000 C 
ATOM      2  C   UNL     1       6.562   4.533  16.650  0.00  0.00    +0.000 C 
ATOM      3  O   UNL     1       7.525   5.550  16.878  0.00  0.00    +0.000 OA
ATOM      4  C   UNL     1       7.204   6.331  18.034  0.00  0.00    +0.000 C 
ATOM      5  C   UNL     1       7.825   7.713  17.819  0.00  0.00    +0.000 C 
ATOM      6  C   UNL     1       7.812   5.685  19.277  0.00  0.00    +0.000 C 
ATOM      7  O   UNL     1       5.803   6.450  18.271  0.00  0.00    +0.000 OA
ATOM      8  C   UNL     1       5.057   6.519  17.055  0.00  0.00    +0.000 C 
ENDROOT
BRANCH   1   9
ATOM      9  C   UNL     1       4.098   4.133  16.550  0.00  0.00    +0.000 C 
BRANCH   9  10
ATOM     10  C   UNL     1       4.282   3.314  17.829  0.00  0.00    +0.000 C 
BRANCH  10  11
ATOM     11  C   UNL     1       3.062   2.429  18.066  0.00  0.00    +0.000 C 
BRANCH  11  12
ATOM     12  C   UNL     1       1.823   3.244  17.887  0.00  0.00    +0.000 C 
BRANCH  12  13
ATOM     13  C   UNL     1       1.171   3.513  19.211  0.00  0.00    +0.000 C 
BRANCH  13  14
ATOM     14  C   UNL     1       1.389   2.329  20.140  0.00  0.00    +0.000 C 
BRANCH  14  16
ATOM     15  C   UNL     1       2.329   4.193  21.509  0.00  0.00    +0.000 C 
ATOM     16  C   UNL     1       1.722   2.804  21.548  0.00  0.00    +0.000 C 
ENDBRANCH  14  16
ENDBRANCH  13  14
ENDBRANCH  12  13
ENDBRANCH  11  12
ENDBRANCH  10  11
ENDBRANCH   9  10
ENDBRANCH   1   9
BRANCH   8  17
ATOM     17  C   UNL     1       3.636   6.963  17.402  0.00  0.00    +0.000 C 
BRANCH  17  18
ATOM     18  C   UNL     1       3.238   6.724  18.818  0.00  0.00    +0.000 C 
BRANCH  18  19
ATOM     19  O   UNL     1       2.048   7.442  19.109  0.00  0.00    +0.000 OA
BRANCH  19  20
ATOM     20  C   UNL     1       1.914   7.636  20.506  0.00  0.00    +0.000 C 
BRANCH  20  21
ATOM     21  C   UNL     1       1.084   8.846  20.834  0.00  0.00    +0.000 A 
ATOM     22  C   UNL     1       0.488   9.030  22.086  0.00  0.00    +0.000 A 
ATOM     23  C   UNL     1      -0.352  10.115  22.322  0.00  0.00    +0.000 A 
ATOM     24  C   UNL     1      -0.598  11.040  21.306  0.00  0.00    +0.000 A 
ATOM     25  C   UNL     1       0.009  10.885  20.063  0.00  0.00    +0.000 A 
ATOM     26  C   UNL     1       0.849   9.798  19.827  0.00  0.00    +0.000 A 
ENDBRANCH  20  21
ENDBRANCH  19  20
ENDBRANCH  18  19
ENDBRANCH  17  18
ENDBRANCH   8  17
TORSDOF 12
ENDMDL
MODEL 4
REMARK VINA RESULT:      -7.4      2.244      8.588
REMARK  Name = 
REMARK  15 active torsions:
REMARK  status: ('A' for Active; 'I' for Inactive)
REMARK    1  A    between atoms: C_1  and  C_2
REMARK    2  A    between atoms: C_2  and  C_3
REMARK    3  A    between atoms: C_3  and  C_4
REMARK    4  A    between atoms: C_4  and  C_5
REMARK    5  A    between atoms: C_5  and  C_6
REMARK    6  A    between atoms: C_6  and  C_7
REMARK    7  A    between atoms: C_7  and  C_8
REMARK    8  A    between atoms: C_8  and  C_9
REMARK    9  A    between atoms: C_12  and  C_13
REMARK   10  A    between atoms: C_12  and  C_14
REMARK   11  A    between atoms: C_16  and  C_17
REMARK   12  A    between atoms: C_17  and  C_18
REMARK   13  A    between atoms: C_18  and  O_19
REMARK   14  A    between atoms: O_19  and  C_20
REMARK   15  A    between atoms: C_20  and  C_21
REMARK                            x       y       z     vdW  Elec       q    Type
REMARK                         _______ _______ _______ _____ _____    ______ ____
ROOT
ATOM      1  C   UNL     1       6.194   5.004  17.666  0.00  0.00    +0.000 C 
ATOM      2  C   UNL     1       7.398   4.396  16.939  0.00  0.00    +0.000 C 
ATOM      3  O   UNL     1       6.974   3.818  15.714  0.00  0.00    +0.000 OA
ATOM      4  C   UNL     1       6.473   4.807  14.808  0.00  0.00    +0.000 C 
ATOM      5  C   UNL     1       5.472   4.101  13.893  0.00  0.00    +0.000 C 
ATOM      6  C   UNL     1       7.622   5.369  13.973  0.00  0.00    +0.000 C 
ATOM      7  O   UNL     1       5.854   5.915  15.459  0.00  0.00    +0.000 OA
ATOM      8  C   UNL     1       5.156   5.519  16.642  0.00  0.00    +0.000 C 
ENDROOT
BRANCH   1   9
ATOM      9  C   UNL     1       6.697   6.021  18.702  0.00  0.00    +0.000 C 
BRANCH   9  10
ATOM     10  C   UNL     1       8.018   6.688  18.315  0.00  0.00    +0.000 C 
BRANCH  10  11
ATOM     11  C   UNL     1       7.759   8.080  17.748  0.00  0.00    +0.000 C 
BRANCH  11  12
ATOM     12  C   UNL     1       8.559   9.080  18.518  0.00  0.00    +0.000 C 
BRANCH  12  13
ATOM     13  C   UNL     1       8.578  10.401  17.808  0.00  0.00    +0.000 C 
BRANCH  13  14
ATOM     14  C   UNL     1       9.594  11.322  18.466  0.00  0.00    +0.000 C 
BRANCH  14  16
ATOM     15  C   UNL     1      10.683  11.953  20.622  0.00  0.00    +0.000 C 
ATOM     16  C   UNL     1       9.812  10.930  19.921  0.00  0.00    +0.000 C 
ENDBRANCH  14  16
ENDBRANCH  13  14
ENDBRANCH  12  13
ENDBRANCH  11  12
ENDBRANCH  10  11
ENDBRANCH   9  10
ENDBRANCH   1   9
BRANCH   8  17
ATOM     17  C   UNL     1       4.276   6.690  17.079  0.00  0.00    +0.000 C 
BRANCH  17  18
ATOM     18  C   UNL     1       3.056   6.300  17.843  0.00  0.00    +0.000 C 
BRANCH  18  19
ATOM     19  O   UNL     1       2.612   5.022  17.417  0.00  0.00    +0.000 OA
BRANCH  19  20
ATOM     20  C   UNL     1       1.480   4.614  18.166  0.00  0.00    +0.000 C 
BRANCH  20  21
ATOM     21  C   UNL     1       1.858   3.779  19.358  0.00  0.00    +0.000 A 
ATOM     22  C   UNL     1       0.995   3.581  20.440  0.00  0.00    +0.000 A 
ATOM     23  C   UNL     1       1.416   2.882  21.568  0.00  0.00    +0.000 A 
ATOM     24  C   UNL     1       2.710   2.360  21.622  0.00  0.00    +0.000 A 
ATOM     25  C   UNL     1       3.572   2.527  20.543  0.00  0.00    +0.000 A 
ATOM     26  C   UNL     1       3.151   3.227  19.414  0.00  0.00    +0.000 A 
ENDBRANCH  20  21
ENDBRANCH  19  20
ENDBRANCH  18  19
ENDBRANCH  17  18
ENDBRANCH   8  17
TORSDOF 12
ENDMDL
MODEL 5
REMARK VINA RESULT:      -7.4      4.196      5.990
REMARK  Name = 
REMARK  15 active torsions:
REMARK  status: ('A' for Active; 'I' for Inactive)
REMARK    1  A    between atoms: C_1  and  C_2
REMARK    2  A    between atoms: C_2  and  C_3
REMARK    3  A    between atoms: C_3  and  C_4
REMARK    4  A    between atoms: C_4  and  C_5
REMARK    5  A    between atoms: C_5  and  C_6
REMARK    6  A    between atoms: C_6  and  C_7
REMARK    7  A    between atoms: C_7  and  C_8
REMARK    8  A    between atoms: C_8  and  C_9
REMARK    9  A    between atoms: C_12  and  C_13
REMARK   10  A    between atoms: C_12  and  C_14
REMARK   11  A    between atoms: C_16  and  C_17
REMARK   12  A    between atoms: C_17  and  C_18
REMARK   13  A    between atoms: C_18  and  O_19
REMARK   14  A    between atoms: O_19  and  C_20
REMARK   15  A    between atoms: C_20  and  C_21
REMARK                            x       y       z     vdW  Elec       q    Type
REMARK                         _______ _______ _______ _____ _____    ______ ____
ROOT
ATOM      1  C   UNL     1       4.347   3.523  18.460  0.00  0.00    +0.000 C 
ATOM      2  C   UNL     1       3.569   2.249  18.114  0.00  0.00    +0.000 C 
ATOM      3  O   UNL     1       2.812   1.831  19.240  0.00  0.00    +0.000 OA
ATOM      4  C   UNL     1       1.801   2.785  19.581  0.00  0.00    +0.000 C 
ATOM      5  C   UNL     1       1.534   2.628  21.079  0.00  0.00    +0.000 C 
ATOM      6  C   UNL     1       0.523   2.483  18.799  0.00  0.00    +0.000 C 
ATOM      7  O   UNL     1       2.162   4.132  19.280  0.00  0.00    +0.000 OA
ATOM      8  C   UNL     1       3.556   4.370  19.484  0.00  0.00    +0.000 C 
ENDROOT
BRANCH   1   9
ATOM      9  C   UNL     1       4.754   4.229  17.157  0.00  0.00    +0.000 C 
BRANCH   9  10
ATOM     10  C   UNL     1       6.241   4.585  17.092  0.00  0.00    +0.000 C 
BRANCH  10  11
ATOM     11  C   UNL     1       6.546   5.330  15.796  0.00  0.00    +0.000 C 
BRANCH  11  12
ATOM     12  C   UNL     1       5.647   4.822  14.716  0.00  0.00    +0.000 C 
BRANCH  12  13
ATOM     13  C   UNL     1       6.297   3.690  13.976  0.00  0.00    +0.000 C 
BRANCH  13  14
ATOM     14  C   UNL     1       6.108   3.881  12.479  0.00  0.00    +0.000 C 
BRANCH  14  16
ATOM     15  C   UNL     1       4.089   3.185  11.186  0.00  0.00    +0.000 C 
ATOM     16  C   UNL     1       5.349   2.705  11.880  0.00  0.00    +0.000 C 
ENDBRANCH  14  16
ENDBRANCH  13  14
ENDBRANCH  12  13
ENDBRANCH  11  12
ENDBRANCH  10  11
ENDBRANCH   9  10
ENDBRANCH   1   9
BRANCH   8  17
ATOM     17  C   UNL     1       3.781   5.882  19.452  0.00  0.00    +0.000 C 
BRANCH  17  18
ATOM     18  C   UNL     1       2.601   6.678  19.010  0.00  0.00    +0.000 C 
BRANCH  18  19
ATOM     19  O   UNL     1       2.171   7.522  20.067  0.00  0.00    +0.000 OA
BRANCH  19  20
ATOM     20  C   UNL     1       1.519   8.670  19.552  0.00  0.00    +0.000 C 
BRANCH  20  21
ATOM     21  C   UNL     1       0.717   9.387  20.601  0.00  0.00    +0.000 A 
ATOM     22  C   UNL     1       0.403  10.747  20.508  0.00  0.00    +0.000 A 
ATOM     23  C   UNL     1      -0.259  11.398  21.546  0.00  0.00    +0.000 A 
ATOM     24  C   UNL     1      -0.627  10.689  22.691  0.00  0.00    +0.000 A 
ATOM     25  C   UNL     1      -0.346   9.329  22.787  0.00  0.00    +0.000 A 
ATOM     26  C   UNL     1       0.317   8.678  21.748  0.00  0.00    +0.000 A 
ENDBRANCH  20  21
ENDBRANCH  19  20
ENDBRANCH  18  19
ENDBRANCH  17  18
ENDBRANCH   8  17
TORSDOF 12
ENDMDL
MODEL 6
REMARK VINA RESULT:      -7.2      3.615      7.360
REMARK  Name = 
REMARK  15 active torsions:
REMARK  status: ('A' for Active; 'I' for Inactive)
REMARK    1  A    between atoms: C_1  and  C_2
REMARK    2  A    between atoms: C_2  and  C_3
REMARK    3  A    between atoms: C_3  and  C_4
REMARK    4  A    between atoms: C_4  and  C_5
REMARK    5  A    between atoms: C_5  and  C_6
REMARK    6  A    between atoms: C_6  and  C_7
REMARK    7  A    between atoms: C_7  and  C_8
REMARK    8  A    between atoms: C_8  and  C_9
REMARK    9  A    between atoms: C_12  and  C_13
REMARK   10  A    between atoms: C_12  and  C_14
REMARK   11  A    between atoms: C_16  and  C_17
REMARK   12  A    between atoms: C_17  and  C_18
REMARK   13  A    between atoms: C_18  and  O_19
REMARK   14  A    between atoms: O_19  and  C_20
REMARK   15  A    between atoms: C_20  and  C_21
REMARK                            x       y       z     vdW  Elec       q    Type
REMARK                         _______ _______ _______ _____ _____    ______ ____
ROOT
ATOM      1  C   UNL     1       5.100   5.576  16.156  0.00  0.00    +0.000 C 
ATOM      2  C   UNL     1       6.576   5.164  16.157  0.00  0.00    +0.000 C 
ATOM      3  O   UNL     1       7.389   6.301  16.404  0.00  0.00    +0.000 OA
ATOM      4  C   UNL     1       7.167   6.836  17.713  0.00  0.00    +0.000 C 
ATOM      5  C   UNL     1       7.508   8.325  17.645  0.00  0.00    +0.000 C 
ATOM      6  C   UNL     1       8.090   6.145  18.715  0.00  0.00    +0.000 C 
ATOM      7  O   UNL     1       5.833   6.653  18.185  0.00  0.00    +0.000 OA
ATOM      8  C   UNL     1       4.874   6.755  17.131  0.00  0.00    +0.000 C 
ENDROOT
BRANCH   1   9
ATOM      9  C   UNL     1       4.233   4.328  16.378  0.00  0.00    +0.000 C 
BRANCH   9  10
ATOM     10  C   UNL     1       4.896   3.268  17.260  0.00  0.00    +0.000 C 
BRANCH  10  11
ATOM     11  C   UNL     1       4.524   3.493  18.723  0.00  0.00    +0.000 C 
BRANCH  11  12
ATOM     12  C   UNL     1       3.774   2.303  19.225  0.00  0.00    +0.000 C 
BRANCH  12  13
ATOM     13  C   UNL     1       2.889   2.684  20.376  0.00  0.00    +0.000 C 
BRANCH  13  14
ATOM     14  C   UNL     1       1.455   2.836  19.892  0.00  0.00    +0.000 C 
BRANCH  14  16
ATOM     15  C   UNL     1       1.983   5.121  20.748  0.00  0.00    +0.000 C 
ATOM     16  C   UNL     1       0.874   4.168  20.346  0.00  0.00    +0.000 C 
ENDBRANCH  14  16
ENDBRANCH  13  14
ENDBRANCH  12  13
ENDBRANCH  11  12
ENDBRANCH  10  11
ENDBRANCH   9  10
ENDBRANCH   1   9
BRANCH   8  17
ATOM     17  C   UNL     1       3.489   6.869  17.769  0.00  0.00    +0.000 C 
BRANCH  17  18
ATOM     18  C   UNL     1       2.934   8.252  17.810  0.00  0.00    +0.000 C 
BRANCH  18  19
ATOM     19  O   UNL     1       1.808   8.291  18.672  0.00  0.00    +0.000 OA
BRANCH  19  20
ATOM     20  C   UNL     1       1.406   9.630  18.903  0.00  0.00    +0.000 C 
BRANCH  20  21
ATOM     21  C   UNL     1       0.773   9.807  20.255  0.00  0.00    +0.000 A 
ATOM     22  C   UNL     1       0.526   8.733  21.115  0.00  0.00    +0.000 A 
ATOM     23  C   UNL     1      -0.150   8.924  22.318  0.00  0.00    +0.000 A 
ATOM     24  C   UNL     1      -0.578  10.202  22.681  0.00  0.00    +0.000 A 
ATOM     25  C   UNL     1      -0.316  11.286  21.848  0.00  0.00    +0.000 A 
ATOM     26  C   UNL     1       0.359  11.094  20.644  0.00  0.00    +0.000 A 
ENDBRANCH  20  21
ENDBRANCH  19  20
ENDBRANCH  18  19
ENDBRANCH  17  18
ENDBRANCH   8  17
TORSDOF 12
ENDMDL
MODEL 7
REMARK VINA RESULT:      -7.1      3.927      6.037
REMARK  Name = 
REMARK  15 active torsions:
REMARK  status: ('A' for Active; 'I' for Inactive)
REMARK    1  A    between atoms: C_1  and  C_2
REMARK    2  A    between atoms: C_2  and  C_3
REMARK    3  A    between atoms: C_3  and  C_4
REMARK    4  A    between atoms: C_4  and  C_5
REMARK    5  A    between atoms: C_5  and  C_6
REMARK    6  A    between atoms: C_6  and  C_7
REMARK    7  A    between atoms: C_7  and  C_8
REMARK    8  A    between atoms: C_8  and  C_9
REMARK    9  A    between atoms: C_12  and  C_13
REMARK   10  A    between atoms: C_12  and  C_14
REMARK   11  A    between atoms: C_16  and  C_17
REMARK   12  A    between atoms: C_17  and  C_18
REMARK   13  A    between atoms: C_18  and  O_19
REMARK   14  A    between atoms: O_19  and  C_20
REMARK   15  A    between atoms: C_20  and  C_21
REMARK                            x       y       z     vdW  Elec       q    Type
REMARK                         _______ _______ _______ _____ _____    ______ ____
ROOT
ATOM      1  C   UNL     1       4.890   5.287  19.022  0.00  0.00    +0.000 C 
ATOM      2  C   UNL     1       4.888   3.757  19.089  0.00  0.00    +0.000 C 
ATOM      3  O   UNL     1       3.636   3.302  19.578  0.00  0.00    +0.000 OA
ATOM      4  C   UNL     1       2.569   3.621  18.678  0.00  0.00    +0.000 C 
ATOM      5  C   UNL     1       1.298   3.732  19.521  0.00  0.00    +0.000 C 
ATOM      6  C   UNL     1       2.407   2.499  17.653  0.00  0.00    +0.000 C 
ATOM      7  O   UNL     1       2.784   4.825  17.943  0.00  0.00    +0.000 OA
ATOM      8  C   UNL     1       3.467   5.811  18.719  0.00  0.00    +0.000 C 
ENDROOT
BRANCH   1   9
ATOM      9  C   UNL     1       6.004   5.745  18.068  0.00  0.00    +0.000 C 
BRANCH   9  10
ATOM     10  C   UNL     1       6.421   4.677  17.054  0.00  0.00    +0.000 C 
BRANCH  10  11
ATOM     11  C   UNL     1       5.588   4.807  15.782  0.00  0.00    +0.000 C 
BRANCH  11  12
ATOM     12  C   UNL     1       6.034   3.775  14.798  0.00  0.00    +0.000 C 
BRANCH  12  13
ATOM     13  C   UNL     1       5.465   4.059  13.439  0.00  0.00    +0.000 C 
BRANCH  13  14
ATOM     14  C   UNL     1       6.320   3.391  12.375  0.00  0.00    +0.000 C 
BRANCH  14  16
ATOM     15  C   UNL     1       6.286   1.203  11.172  0.00  0.00    +0.000 C 
ATOM     16  C   UNL     1       5.483   2.438  11.533  0.00  0.00    +0.000 C 
ENDBRANCH  14  16
ENDBRANCH  13  14
ENDBRANCH  12  13
ENDBRANCH  11  12
ENDBRANCH  10  11
ENDBRANCH   9  10
ENDBRANCH   1   9
BRANCH   8  17
ATOM     17  C   UNL     1       3.363   7.144  17.978  0.00  0.00    +0.000 C 
BRANCH  17  18
ATOM     18  C   UNL     1       2.079   7.873  18.185  0.00  0.00    +0.000 C 
BRANCH  18  19
ATOM     19  O   UNL     1       2.154   8.647  19.372  0.00  0.00    +0.000 OA
BRANCH  19  20
ATOM     20  C   UNL     1       1.307   8.107  20.372  0.00  0.00    +0.000 C 
BRANCH  20  21
ATOM     21  C   UNL     1       0.573   9.176  21.132  0.00  0.00    +0.000 A 
ATOM     22  C   UNL     1       0.272   9.056  22.493  0.00  0.00    +0.000 A 
ATOM     23  C   UNL     1      -0.494  10.023  23.140  0.00  0.00    +0.000 A 
ATOM     24  C   UNL     1      -0.960  11.132  22.433  0.00  0.00    +0.000 A 
ATOM     25  C   UNL     1      -0.646  11.279  21.084  0.00  0.00    +0.000 A 
ATOM     26  C   UNL     1       0.119  10.311  20.436  0.00  0.00    +0.000 A 
ENDBRANCH  20  21
ENDBRANCH  19  20
ENDBRANCH  18  19
ENDBRANCH  17  18
ENDBRANCH   8  17
TORSDOF 12
ENDMDL
MODEL 8
REMARK VINA RESULT:      -7.1      2.523      8.648
REMARK  Name = 
REMARK  15 active torsions:
REMARK  status: ('A' for Active; 'I' for Inactive)
REMARK    1  A    between atoms: C_1  and  C_2
REMARK    2  A    between atoms: C_2  and  C_3
REMARK    3  A    between atoms: C_3  and  C_4
REMARK    4  A    between atoms: C_4  and  C_5
REMARK    5  A    between atoms: C_5  and  C_6
REMARK    6  A    between atoms: C_6  and  C_7
REMARK    7  A    between atoms: C_7  and  C_8
REMARK    8  A    between atoms: C_8  and  C_9
REMARK    9  A    between atoms: C_12  and  C_13
REMARK   10  A    between atoms: C_12  and  C_14
REMARK   11  A    between atoms: C_16  and  C_17
REMARK   12  A    between atoms: C_17  and  C_18
REMARK   13  A    between atoms: C_18  and  O_19
REMARK   14  A    between atoms: O_19  and  C_20
REMARK   15  A    between atoms: C_20  and  C_21
REMARK                            x       y       z     vdW  Elec       q    Type
REMARK                         _______ _______ _______ _____ _____    ______ ____
ROOT
ATOM      1  C   UNL     1       6.464   6.533  17.734  0.00  0.00    +0.000 C 
ATOM      2  C   UNL     1       7.370   5.525  17.020  0.00  0.00    +0.000 C 
ATOM      3  O   UNL     1       6.684   4.293  16.864  0.00  0.00    +0.000 OA
ATOM      4  C   UNL     1       5.549   4.426  16.001  0.00  0.00    +0.000 C 
ATOM      5  C   UNL     1       4.550   3.344  16.415  0.00  0.00    +0.000 C 
ATOM      6  C   UNL     1       5.976   4.200  14.551  0.00  0.00    +0.000 C 
ATOM      7  O   UNL     1       4.938   5.713  16.057  0.00  0.00    +0.000 OA
ATOM      8  C   UNL     1       4.983   6.271  17.371  0.00  0.00    +0.000 C 
ENDROOT
BRANCH   1   9
ATOM      9  C   UNL     1       6.991   7.953  17.472  0.00  0.00    +0.000 C 
BRANCH   9  10
ATOM     10  C   UNL     1       8.281   8.277  18.227  0.00  0.00    +0.000 C 
BRANCH  10  11
ATOM     11  C   UNL     1       8.607   9.762  18.098  0.00  0.00    +0.000 C 
BRANCH  11  12
ATOM     12  C   UNL     1       9.230  10.238  19.369  0.00  0.00    +0.000 C 
BRANCH  12  13
ATOM     13  C   UNL     1      10.430  11.092  19.083  0.00  0.00    +0.000 C 
BRANCH  13  14
ATOM     14  C   UNL     1      10.260  11.781  17.738  0.00  0.00    +0.000 C 
BRANCH  14  16
ATOM     15  C   UNL     1      10.567  13.760  19.230  0.00  0.00    +0.000 C 
ATOM     16  C   UNL     1       9.969  13.263  17.928  0.00  0.00    +0.000 C 
ENDBRANCH  14  16
ENDBRANCH  13  14
ENDBRANCH  12  13
ENDBRANCH  11  12
ENDBRANCH  10  11
ENDBRANCH   9  10
ENDBRANCH   1   9
BRANCH   8  17
ATOM     17  C   UNL     1       4.040   7.473  17.403  0.00  0.00    +0.000 C 
BRANCH  17  18
ATOM     18  C   UNL     1       2.790   7.263  18.187  0.00  0.00    +0.000 C 
BRANCH  18  19
ATOM     19  O   UNL     1       3.112   6.776  19.480  0.00  0.00    +0.000 OA
BRANCH  19  20
ATOM     20  C   UNL     1       2.067   5.958  19.977  0.00  0.00    +0.000 C 
BRANCH  20  21
ATOM     21  C   UNL     1       2.225   4.521  19.563  0.00  0.00    +0.000 A 
ATOM     22  C   UNL     1       1.297   3.870  18.744  0.00  0.00    +0.000 A 
ATOM     23  C   UNL     1       1.427   2.512  18.462  0.00  0.00    +0.000 A 
ATOM     24  C   UNL     1       2.499   1.789  18.989  0.00  0.00    +0.000 A 
ATOM     25  C   UNL     1       3.445   2.430  19.784  0.00  0.00    +0.000 A 
ATOM     26  C   UNL     1       3.315   3.788  20.067  0.00  0.00    +0.000 A 
ENDBRANCH  20  21
ENDBRANCH  19  20
ENDBRANCH  18  19
ENDBRANCH  17  18
ENDBRANCH   8  17
TORSDOF 12
ENDMDL
MODEL 9
REMARK VINA RESULT:      -7.1      4.428      5.845
REMARK  Name = 
REMARK  15 active torsions:
REMARK  status: ('A' for Active; 'I' for Inactive)
REMARK    1  A    between atoms: C_1  and  C_2
REMARK    2  A    between atoms: C_2  and  C_3
REMARK    3  A    between atoms: C_3  and  C_4
REMARK    4  A    between atoms: C_4  and  C_5
REMARK    5  A    between atoms: C_5  and  C_6
REMARK    6  A    between atoms: C_6  and  C_7
REMARK    7  A    between atoms: C_7  and  C_8
REMARK    8  A    between atoms: C_8  and  C_9
REMARK    9  A    between atoms: C_12  and  C_13
REMARK   10  A    between atoms: C_12  and  C_14
REMARK   11  A    between atoms: C_16  and  C_17
REMARK   12  A    between atoms: C_17  and  C_18
REMARK   13  A    between atoms: C_18  and  O_19
REMARK   14  A    between atoms: O_19  and  C_20
REMARK   15  A    between atoms: C_20  and  C_21
REMARK                            x       y       z     vdW  Elec       q    Type
REMARK                         _______ _______ _______ _____ _____    ______ ____
ROOT
ATOM      1  C   UNL     1       4.281   3.620  18.282  0.00  0.00    +0.000 C 
ATOM      2  C   UNL     1       3.593   2.254  18.188  0.00  0.00    +0.000 C 
ATOM      3  O   UNL     1       2.936   1.965  19.413  0.00  0.00    +0.000 OA
ATOM      4  C   UNL     1       1.869   2.885  19.670  0.00  0.00    +0.000 C 
ATOM      5  C   UNL     1       1.697   2.948  21.188  0.00  0.00    +0.000 C 
ATOM      6  C   UNL     1       0.581   2.371  19.030  0.00  0.00    +0.000 C 
ATOM      7  O   UNL     1       2.102   4.190  19.143  0.00  0.00    +0.000 OA
ATOM      8  C   UNL     1       3.480   4.558  19.214  0.00  0.00    +0.000 C 
ENDROOT
BRANCH   1   9
ATOM      9  C   UNL     1       4.558   4.139  16.863  0.00  0.00    +0.000 C 
BRANCH   9  10
ATOM     10  C   UNL     1       6.022   4.509  16.620  0.00  0.00    +0.000 C 
BRANCH  10  11
ATOM     11  C   UNL     1       6.551   3.783  15.387  0.00  0.00    +0.000 C 
BRANCH  11  12
ATOM     12  C   UNL     1       6.235   4.589  14.170  0.00  0.00    +0.000 C 
BRANCH  12  13
ATOM     13  C   UNL     1       7.255   4.349  13.096  0.00  0.00    +0.000 C 
BRANCH  13  14
ATOM     14  C   UNL     1       6.583   3.729  11.881  0.00  0.00    +0.000 C 
BRANCH  14  16
ATOM     15  C   UNL     1       4.211   3.306  11.230  0.00  0.00    +0.000 C 
ATOM     16  C   UNL     1       5.280   3.050  12.275  0.00  0.00    +0.000 C 
ENDBRANCH  14  16
ENDBRANCH  13  14
ENDBRANCH  12  13
ENDBRANCH  11  12
ENDBRANCH  10  11
ENDBRANCH   9  10
ENDBRANCH   1   9
BRANCH   8  17
ATOM     17  C   UNL     1       3.578   6.058  18.936  0.00  0.00    +0.000 C 
BRANCH  17  18
ATOM     18  C   UNL     1       2.355   6.661  18.333  0.00  0.00    +0.000 C 
BRANCH  18  19
ATOM     19  O   UNL     1       2.077   7.906  18.956  0.00  0.00    +0.000 OA
BRANCH  19  20
ATOM     20  C   UNL     1       1.890   7.732  20.350  0.00  0.00    +0.000 C 
BRANCH  20  21
ATOM     21  C   UNL     1       1.038   8.817  20.948  0.00  0.00    +0.000 A 
ATOM     22  C   UNL     1       0.779   8.898  22.320  0.00  0.00    +0.000 A 
ATOM     23  C   UNL     1      -0.093   9.859  22.824  0.00  0.00    +0.000 A 
ATOM     24  C   UNL     1      -0.710  10.764  21.959  0.00  0.00    +0.000 A 
ATOM     25  C   UNL     1      -0.441  10.713  20.594  0.00  0.00    +0.000 A 
ATOM     26  C   UNL     1       0.431   9.750  20.089  0.00  0.00    +0.000 A 
ENDBRANCH  20  21
ENDBRANCH  19  20
ENDBRANCH  18  19
ENDBRANCH  17  18
ENDBRANCH   8  17
TORSDOF 12
ENDMDL
