MODEL 1
REMARK VINA RESULT:      -7.3      0.000      0.000
REMARK  Name = 
REMARK  12 active torsions:
REMARK  status: ('A' for Active; 'I' for Inactive)
REMARK    1  A    between atoms: C_1  and  O_2
REMARK    2  A    between atoms: O_2  and  C_3
REMARK    3  A    between atoms: C_5  and  N_6
REMARK    4  A    between atoms: C_10  and  C_11
REMARK    5  A    between atoms: N_13  and  C_14
REMARK    6  A    between atoms: N_17  and  C_18
REMARK    7  A    between atoms: C_18  and  C_19
REMARK    8  A    between atoms: C_19  and  C_20
REMARK    9  A    between atoms: C_20  and  O_21
REMARK   10  A    between atoms: O_21  and  C_22
REMARK   11  A    between atoms: C_30  and  O_31
REMARK   12  A    between atoms: O_31  and  C_32
REMARK                            x       y       z     vdW  Elec       q    Type
REMARK                         _______ _______ _______ _____ _____    ______ ____
ROOT
ATOM      1  C   UNL     1       1.094  10.671  19.068  0.00  0.00    +0.000 C 
ATOM      2  C   UNL     1       1.983   9.958  18.042  0.00  0.00    +0.000 C 
ATOM      3  C   UNL     1       1.698   8.468  18.086  0.00  0.00    +0.000 C 
ATOM      4  N   UNL     1       2.099   7.898  19.379  0.00  0.00    +0.000 NA
ATOM      5  C   UNL     1       1.448   8.587  20.517  0.00  0.00    +0.000 C 
ATOM      6  C   UNL     1       1.537  10.134  20.452  0.00  0.00    +0.000 C 
ENDROOT
BRANCH   1   9
ATOM      7  C   UNL     1      -1.173  11.618  18.816  0.00  0.00    +0.000 C 
ATOM      8  O   UNL     1      -0.756  12.699  19.233  0.00  0.00    +0.000 OA
ATOM      9  N   UNL     1      -0.340  10.519  18.734  0.00  0.00    +0.000 N 
ATOM     10  H   UNL     1      -0.730   9.603  18.504  0.00  0.00    +0.000 HD
BRANCH   7  17
ATOM     11  C   UNL     1      -3.121  10.934  17.253  0.00  0.00    +0.000 A 
ATOM     12  C   UNL     1      -4.520  10.784  17.135  0.00  0.00    +0.000 A 
ATOM     13  C   UNL     1      -5.404  11.240  18.126  0.00  0.00    +0.000 A 
ATOM     14  C   UNL     1      -4.882  12.003  19.173  0.00  0.00    +0.000 A 
ATOM     15 CL   UNL     1      -5.917  12.715  20.359  0.00  0.00    +0.000 Cl
ATOM     16  C   UNL     1      -3.507  12.142  19.318  0.00  0.00    +0.000 A 
ATOM     17  C   UNL     1      -2.608  11.550  18.404  0.00  0.00    +0.000 A 
BRANCH  13  18
ATOM     18  N   UNL     1      -6.791  11.096  17.934  0.00  0.00    +0.000 N 
ATOM     19  H   UNL     1      -7.043  10.615  17.076  0.00  0.00    +0.000 HD
ATOM     20  H   UNL     1      -7.246  10.682  18.747  0.00  0.00    +0.000 HD
ENDBRANCH  13  18
BRANCH  11  22
ATOM     21  C   UNL     1      -2.775  10.290  14.993  0.00  0.00    +0.000 C 
ATOM     22  O   UNL     1      -2.240  10.482  16.304  0.00  0.00    +0.000 OA
ENDBRANCH  11  22
ENDBRANCH   7  17
ENDBRANCH   1   9
BRANCH   6  23
ATOM     23  O   UNL     1       0.827  10.722  21.550  0.00  0.00    +0.000 OA
ATOM     24  C   UNL     1       0.211   9.744  22.386  0.00  0.00    +0.000 C 
ENDBRANCH   6  23
BRANCH   4  25
ATOM     25  C   UNL     1       1.848   6.446  19.422  0.00  0.00    +0.000 C 
BRANCH  25  26
ATOM     26  C   UNL     1       2.232   5.719  18.124  0.00  0.00    +0.000 C 
BRANCH  26  27
ATOM     27  C   UNL     1       3.347   4.700  18.342  0.00  0.00    +0.000 C 
BRANCH  27  28
ATOM     28  O   UNL     1       4.294   4.838  17.281  0.00  0.00    +0.000 OA
BRANCH  28  29
ATOM     29  C   UNL     1       5.425   5.552  17.571  0.00  0.00    +0.000 A 
ATOM     30  C   UNL     1       5.866   6.700  16.905  0.00  0.00    +0.000 A 
ATOM     31  C   UNL     1       7.023   7.356  17.334  0.00  0.00    +0.000 A 
ATOM     32  C   UNL     1       7.733   6.857  18.419  0.00  0.00    +0.000 A 
ATOM     33  F   UNL     1       8.836   7.496  18.834  0.00  0.00    +0.000 F 
ATOM     34  C   UNL     1       7.318   5.708  19.077  0.00  0.00    +0.000 A 
ATOM     35  C   UNL     1       6.161   5.055  18.651  0.00  0.00    +0.000 A 
ENDBRANCH  28  29
ENDBRANCH  27  28
ENDBRANCH  26  27
ENDBRANCH  25  26
ENDBRANCH   4  25
TORSDOF 10
ENDMDL
MODEL 2
REMARK VINA RESULT:      -7.2      2.367      3.280
REMARK  Name = 
REMARK  12 active torsions:
REMARK  status: ('A' for Active; 'I' for Inactive)
REMARK    1  A    between atoms: C_1  and  O_2
REMARK    2  A    between atoms: O_2  and  C_3
REMARK    3  A    between atoms: C_5  and  N_6
REMARK    4  A    between atoms: C_10  and  C_11
REMARK    5  A    between atoms: N_13  and  C_14
REMARK    6  A    between atoms: N_17  and  C_18
REMARK    7  A    between atoms: C_18  and  C_19
REMARK    8  A    between atoms: C_19  and  C_20
REMARK    9  A    between atoms: C_20  and  O_21
REMARK   10  A    between atoms: O_21  and  C_22
REMARK   11  A    between atoms: C_30  and  O_31
REMARK   12  A    between atoms: O_31  and  C_32
REMARK                            x       y       z     vdW  Elec       q    Type
REMARK                         _______ _______ _______ _____ _____    ______ ____
ROOT
ATOM      1  C   UNL     1       0.713  11.262  19.675  0.00  0.00    +0.000 C 
ATOM      2  C   UNL     1       1.789  11.261  18.583  0.00  0.00    +0.000 C 
ATOM      3  C   UNL     1       1.770   9.923  17.866  0.00  0.00    +0.000 C 
ATOM      4  N   UNL     1       2.167   8.838  18.775  0.00  0.00    +0.000 NA
ATOM      5  C   UNL     1       1.320   8.792  19.988  0.00  0.00    +0.000 C 
ATOM      6  C   UNL     1       1.138  10.166  20.684  0.00  0.00    +0.000 C 
ENDROOT
BRANCH   1   9
ATOM      7  C   UNL     1      -1.642  11.989  19.507  0.00  0.00    +0.000 C 
ATOM      8  O   UNL     1      -1.440  12.812  20.401  0.00  0.00    +0.000 OA
ATOM      9  N   UNL     1      -0.642  11.128  19.095  0.00  0.00    +0.000 N 
ATOM     10  H   UNL     1      -0.860  10.373  18.442  0.00  0.00    +0.000 HD
BRANCH   7  17
ATOM     11  C   UNL     1      -3.333  11.521  17.603  0.00  0.00    +0.000 A 
ATOM     12  C   UNL     1      -4.697  11.372  17.268  0.00  0.00    +0.000 A 
ATOM     13  C   UNL     1      -5.723  11.662  18.181  0.00  0.00    +0.000 A 
ATOM     14  C   UNL     1      -5.375  12.266  19.392  0.00  0.00    +0.000 A 
ATOM     15 CL   UNL     1      -6.587  12.779  20.512  0.00  0.00    +0.000 Cl
ATOM     16  C   UNL     1      -4.039  12.400  19.747  0.00  0.00    +0.000 A 
ATOM     17  C   UNL     1      -3.003  11.964  18.892  0.00  0.00    +0.000 A 
BRANCH  13  18
ATOM     18  N   UNL     1      -7.065  11.531  17.777  0.00  0.00    +0.000 N 
ATOM     19  H   UNL     1      -7.623  12.368  17.915  0.00  0.00    +0.000 HD
ATOM     20  H   UNL     1      -7.141  11.179  16.823  0.00  0.00    +0.000 HD
ENDBRANCH  13  18
BRANCH  11  22
ATOM     21  C   UNL     1      -2.595  10.222  15.756  0.00  0.00    +0.000 C 
ATOM     22  O   UNL     1      -2.315  11.229  16.731  0.00  0.00    +0.000 OA
ENDBRANCH  11  22
ENDBRANCH   7  17
ENDBRANCH   1   9
BRANCH   6  23
ATOM     23  O   UNL     1       0.254  10.045  21.806  0.00  0.00    +0.000 OA
ATOM     24  C   UNL     1      -0.361   8.759  21.879  0.00  0.00    +0.000 C 
ENDBRANCH   6  23
BRANCH   4  25
ATOM     25  C   UNL     1       2.174   7.538  18.080  0.00  0.00    +0.000 C 
BRANCH  25  26
ATOM     26  C   UNL     1       3.143   6.518  18.697  0.00  0.00    +0.000 C 
BRANCH  26  27
ATOM     27  C   UNL     1       3.814   5.646  17.640  0.00  0.00    +0.000 C 
BRANCH  27  28
ATOM     28  O   UNL     1       3.082   4.424  17.538  0.00  0.00    +0.000 OA
BRANCH  28  29
ATOM     29  C   UNL     1       2.687   3.857  18.720  0.00  0.00    +0.000 A 
ATOM     30  C   UNL     1       3.531   3.315  19.694  0.00  0.00    +0.000 A 
ATOM     31  C   UNL     1       2.994   2.803  20.878  0.00  0.00    +0.000 A 
ATOM     32  C   UNL     1       1.619   2.832  21.077  0.00  0.00    +0.000 A 
ATOM     33  F   UNL     1       1.109   2.351  22.219  0.00  0.00    +0.000 F 
ATOM     34  C   UNL     1       0.768   3.349  20.111  0.00  0.00    +0.000 A 
ATOM     35  C   UNL     1       1.305   3.863  18.930  0.00  0.00    +0.000 A 
ENDBRANCH  28  29
ENDBRANCH  27  28
ENDBRANCH  26  27
ENDBRANCH  25  26
ENDBRANCH   4  25
TORSDOF 10
ENDMDL
MODEL 3
REMARK VINA RESULT:      -7.1      1.321      1.596
REMARK  Name = 
REMARK  12 active torsions:
REMARK  status: ('A' for Active; 'I' for Inactive)
REMARK    1  A    between atoms: C_1  and  O_2
REMARK    2  A    between atoms: O_2  and  C_3
REMARK    3  A    between atoms: C_5  and  N_6
REMARK    4  A    between atoms: C_10  and  C_11
REMARK    5  A    between atoms: N_13  and  C_14
REMARK    6  A    between atoms: N_17  and  C_18
REMARK    7  A    between atoms: C_18  and  C_19
REMARK    8  A    between atoms: C_19  and  C_20
REMARK    9  A    between atoms: C_20  and  O_21
REMARK   10  A    between atoms: O_21  and  C_22
REMARK   11  A    between atoms: C_30  and  O_31
REMARK   12  A    between atoms: O_31  and  C_32
REMARK                            x       y       z     vdW  Elec       q    Type
REMARK                         _______ _______ _______ _____ _____    ______ ____
ROOT
ATOM      1  C   UNL     1       0.768  11.136  19.320  0.00  0.00    +0.000 C 
ATOM      2  C   UNL     1       1.714  10.502  18.293  0.00  0.00    +0.000 C 
ATOM      3  C   UNL     1       1.532   8.996  18.313  0.00  0.00    +0.000 C 
ATOM      4  N   UNL     1       1.958   8.435  19.602  0.00  0.00    +0.000 NA
ATOM      5  C   UNL     1       1.251   9.060  20.742  0.00  0.00    +0.000 C 
ATOM      6  C   UNL     1       1.233  10.610  20.701  0.00  0.00    +0.000 C 
ENDROOT
BRANCH   1   9
ATOM      7  C   UNL     1      -1.558  11.927  19.068  0.00  0.00    +0.000 C 
ATOM      8  O   UNL     1      -1.222  13.024  19.514  0.00  0.00    +0.000 OA
ATOM      9  N   UNL     1      -0.649  10.891  18.969  0.00  0.00    +0.000 N 
ATOM     10  H   UNL     1      -0.971   9.956  18.713  0.00  0.00    +0.000 HD
BRANCH   7  17
ATOM     11  C   UNL     1      -3.439  11.174  17.455  0.00  0.00    +0.000 A 
ATOM     12  C   UNL     1      -4.821  10.921  17.316  0.00  0.00    +0.000 A 
ATOM     13  C   UNL     1      -5.742  11.253  18.322  0.00  0.00    +0.000 A 
ATOM     14  C   UNL     1      -5.287  11.999  19.411  0.00  0.00    +0.000 A 
ATOM     15 CL   UNL     1      -6.382  12.564  20.623  0.00  0.00    +0.000 Cl
ATOM     16  C   UNL     1      -3.928  12.238  19.575  0.00  0.00    +0.000 A 
ATOM     17  C   UNL     1      -2.981  11.767  18.641  0.00  0.00    +0.000 A 
BRANCH  13  18
ATOM     18  N   UNL     1      -7.113  11.010  18.110  0.00  0.00    +0.000 N 
ATOM     19  H   UNL     1      -7.322  10.564  17.222  0.00  0.00    +0.000 HD
ATOM     20  H   UNL     1      -7.535  10.511  18.893  0.00  0.00    +0.000 HD
ENDBRANCH  13  18
BRANCH  11  22
ATOM     21  C   UNL     1      -3.036  10.648  15.173  0.00  0.00    +0.000 C 
ATOM     22  O   UNL     1      -2.520  10.843  16.491  0.00  0.00    +0.000 OA
ENDBRANCH  11  22
ENDBRANCH   7  17
ENDBRANCH   1   9
BRANCH   6  23
ATOM     23  O   UNL     1       0.474  11.131  21.799  0.00  0.00    +0.000 OA
ATOM     24  C   UNL     1      -0.117  10.100  22.590  0.00  0.00    +0.000 C 
ENDBRANCH   6  23
BRANCH   4  25
ATOM     25  C   UNL     1       1.808   6.968  19.620  0.00  0.00    +0.000 C 
BRANCH  25  26
ATOM     26  C   UNL     1       2.336   6.281  18.351  0.00  0.00    +0.000 C 
BRANCH  26  27
ATOM     27  C   UNL     1       2.918   4.901  18.642  0.00  0.00    +0.000 C 
BRANCH  27  28
ATOM     28  O   UNL     1       4.331   5.037  18.805  0.00  0.00    +0.000 OA
BRANCH  28  29
ATOM     29  C   UNL     1       5.079   4.962  17.661  0.00  0.00    +0.000 A 
ATOM     30  C   UNL     1       4.785   4.185  16.536  0.00  0.00    +0.000 A 
ATOM     31  C   UNL     1       5.618   4.234  15.415  0.00  0.00    +0.000 A 
ATOM     32  C   UNL     1       6.741   5.052  15.429  0.00  0.00    +0.000 A 
ATOM     33  F   UNL     1       7.531   5.105  14.348  0.00  0.00    +0.000 F 
ATOM     34  C   UNL     1       7.056   5.813  16.546  0.00  0.00    +0.000 A 
ATOM     35  C   UNL     1       6.222   5.767  17.664  0.00  0.00    +0.000 A 
ENDBRANCH  28  29
ENDBRANCH  27  28
ENDBRANCH  26  27
ENDBRANCH  25  26
ENDBRANCH   4  25
TORSDOF 10
ENDMDL
MODEL 4
REMARK VINA RESULT:      -6.8      1.034      1.378
REMARK  Name = 
REMARK  12 active torsions:
REMARK  status: ('A' for Active; 'I' for Inactive)
REMARK    1  A    between atoms: C_1  and  O_2
REMARK    2  A    between atoms: O_2  and  C_3
REMARK    3  A    between atoms: C_5  and  N_6
REMARK    4  A    between atoms: C_10  and  C_11
REMARK    5  A    between atoms: N_13  and  C_14
REMARK    6  A    between atoms: N_17  and  C_18
REMARK    7  A    between atoms: C_18  and  C_19
REMARK    8  A    between atoms: C_19  and  C_20
REMARK    9  A    between atoms: C_20  and  O_21
REMARK   10  A    between atoms: O_21  and  C_22
REMARK   11  A    between atoms: C_30  and  O_31
REMARK   12  A    between atoms: O_31  and  C_32
REMARK                            x       y       z     vdW  Elec       q    Type
REMARK                         _______ _______ _______ _____ _____    ______ ____
ROOT
ATOM      1  C   UNL     1       0.586  11.272  19.462  0.00  0.00    +0.000 C 
ATOM      2  C   UNL     1       1.482  10.376  18.599  0.00  0.00    +0.000 C 
ATOM      3  C   UNL     1       1.227   8.924  18.959  0.00  0.00    +0.000 C 
ATOM      4  N   UNL     1       1.649   8.646  20.338  0.00  0.00    +0.000 NA
ATOM      5  C   UNL     1       0.993   9.547  21.313  0.00  0.00    +0.000 C 
ATOM      6  C   UNL     1       1.050  11.047  20.923  0.00  0.00    +0.000 C 
ENDROOT
BRANCH   1   9
ATOM      7  C   UNL     1      -1.714  12.100  19.111  0.00  0.00    +0.000 C 
ATOM      8  O   UNL     1      -1.326  13.245  19.348  0.00  0.00    +0.000 OA
ATOM      9  N   UNL     1      -0.847  11.027  19.184  0.00  0.00    +0.000 N 
ATOM     10  H   UNL     1      -1.210  10.075  19.106  0.00  0.00    +0.000 HD
BRANCH   7  17
ATOM     11  C   UNL     1      -3.653  11.433  17.530  0.00  0.00    +0.000 A 
ATOM     12  C   UNL     1      -5.031  11.139  17.438  0.00  0.00    +0.000 A 
ATOM     13  C   UNL     1      -5.907  11.335  18.517  0.00  0.00    +0.000 A 
ATOM     14  C   UNL     1      -5.419  11.989  19.650  0.00  0.00    +0.000 A 
ATOM     15 CL   UNL     1      -6.464  12.390  20.967  0.00  0.00    +0.000 Cl
ATOM     16  C   UNL     1      -4.062  12.265  19.767  0.00  0.00    +0.000 A 
ATOM     17  C   UNL     1      -3.152  11.926  18.743  0.00  0.00    +0.000 A 
BRANCH  13  18
ATOM     18  N   UNL     1      -7.278  11.059  18.352  0.00  0.00    +0.000 N 
ATOM     19  H   UNL     1      -7.879  11.541  19.013  0.00  0.00    +0.000 HD
ATOM     20  H   UNL     1      -7.581  11.204  17.389  0.00  0.00    +0.000 HD
ENDBRANCH  13  18
BRANCH  11  22
ATOM     21  C   UNL     1      -2.863   9.970  15.832  0.00  0.00    +0.000 C 
ATOM     22  O   UNL     1      -2.777  11.234  16.492  0.00  0.00    +0.000 OA
ENDBRANCH  11  22
ENDBRANCH   7  17
ENDBRANCH   1   9
BRANCH   6  23
ATOM     23  O   UNL     1       0.336  11.840  21.880  0.00  0.00    +0.000 OA
ATOM     24  C   UNL     1      -0.556  11.060  22.677  0.00  0.00    +0.000 C 
ENDBRANCH   6  23
BRANCH   4  25
ATOM     25  C   UNL     1       1.428   7.231  20.688  0.00  0.00    +0.000 C 
BRANCH  25  26
ATOM     26  C   UNL     1       1.953   6.248  19.630  0.00  0.00    +0.000 C 
BRANCH  26  27
ATOM     27  C   UNL     1       3.140   5.433  20.138  0.00  0.00    +0.000 C 
BRANCH  27  28
ATOM     28  O   UNL     1       3.820   4.884  19.009  0.00  0.00    +0.000 OA
BRANCH  28  29
ATOM     29  C   UNL     1       4.973   5.518  18.632  0.00  0.00    +0.000 A 
ATOM     30  C   UNL     1       6.235   5.342  19.209  0.00  0.00    +0.000 A 
ATOM     31  C   UNL     1       7.340   6.027  18.696  0.00  0.00    +0.000 A 
ATOM     32  C   UNL     1       7.175   6.887  17.618  0.00  0.00    +0.000 A 
ATOM     33  F   UNL     1       8.239   7.533  17.122  0.00  0.00    +0.000 F 
ATOM     34  C   UNL     1       5.925   7.086  17.048  0.00  0.00    +0.000 A 
ATOM     35  C   UNL     1       4.823   6.400  17.557  0.00  0.00    +0.000 A 
ENDBRANCH  28  29
ENDBRANCH  27  28
ENDBRANCH  26  27
ENDBRANCH  25  26
ENDBRANCH   4  25
TORSDOF 10
ENDMDL
MODEL 5
REMARK VINA RESULT:      -6.8      3.458      5.050
REMARK  Name = 
REMARK  12 active torsions:
REMARK  status: ('A' for Active; 'I' for Inactive)
REMARK    1  A    between atoms: C_1  and  O_2
REMARK    2  A    between atoms: O_2  and  C_3
REMARK    3  A    between atoms: C_5  and  N_6
REMARK    4  A    between atoms: C_10  and  C_11
REMARK    5  A    between atoms: N_13  and  C_14
REMARK    6  A    between atoms: N_17  and  C_18
REMARK    7  A    between atoms: C_18  and  C_19
REMARK    8  A    between atoms: C_19  and  C_20
REMARK    9  A    between atoms: C_20  and  O_21
REMARK   10  A    between atoms: O_21  and  C_22
REMARK   11  A    between atoms: C_30  and  O_31
REMARK   12  A    between atoms: O_31  and  C_32
REMARK                            x       y       z     vdW  Elec       q    Type
REMARK                         _______ _______ _______ _____ _____    ______ ____
ROOT
ATOM      1  C   UNL     1      -1.994  11.927  18.363  0.00  0.00    +0.000 C 
ATOM      2  C   UNL     1      -1.829  10.404  18.310  0.00  0.00    +0.000 C 
ATOM      3  C   UNL     1      -1.064   9.943  19.537  0.00  0.00    +0.000 C 
ATOM      4  N   UNL     1       0.310  10.463  19.522  0.00  0.00    +0.000 NA
ATOM      5  C   UNL     1       0.345  11.939  19.409  0.00  0.00    +0.000 C 
ATOM      6  C   UNL     1      -0.560  12.508  18.286  0.00  0.00    +0.000 C 
ENDROOT
BRANCH   1   9
ATOM      7  C   UNL     1      -4.183  12.380  19.415  0.00  0.00    +0.000 C 
ATOM      8  O   UNL     1      -4.735  12.151  18.338  0.00  0.00    +0.000 OA
ATOM      9  N   UNL     1      -2.806  12.340  19.530  0.00  0.00    +0.000 N 
ATOM     10  H   UNL     1      -2.360  12.651  20.395  0.00  0.00    +0.000 HD
BRANCH   7  17
ATOM     11  C   UNL     1      -6.344  12.193  20.827  0.00  0.00    +0.000 A 
ATOM     12  C   UNL     1      -6.938  12.440  22.084  0.00  0.00    +0.000 A 
ATOM     13  C   UNL     1      -6.286  13.181  23.082  0.00  0.00    +0.000 A 
ATOM     14  C   UNL     1      -5.089  13.821  22.751  0.00  0.00    +0.000 A 
ATOM     15 CL   UNL     1      -4.294  14.862  23.878  0.00  0.00    +0.000 Cl
ATOM     16  C   UNL     1      -4.480  13.571  21.528  0.00  0.00    +0.000 A 
ATOM     17  C   UNL     1      -5.060  12.699  20.581  0.00  0.00    +0.000 A 
BRANCH  13  18
ATOM     18  N   UNL     1      -6.945  13.427  24.302  0.00  0.00    +0.000 N 
ATOM     19  H   UNL     1      -7.325  14.365  24.385  0.00  0.00    +0.000 HD
ATOM     20  H   UNL     1      -7.647  12.715  24.504  0.00  0.00    +0.000 HD
ENDBRANCH  13  18
BRANCH  11  22
ATOM     21  C   UNL     1      -7.245  10.095  20.167  0.00  0.00    +0.000 C 
ATOM     22  O   UNL     1      -6.958  11.458  19.845  0.00  0.00    +0.000 OA
ENDBRANCH  11  22
ENDBRANCH   7  17
ENDBRANCH   1   9
BRANCH   6  23
ATOM     23  O   UNL     1      -0.519  13.941  18.290  0.00  0.00    +0.000 OA
ATOM     24  C   UNL     1       0.195  14.463  19.410  0.00  0.00    +0.000 C 
ENDBRANCH   6  23
BRANCH   4  25
ATOM     25  C   UNL     1       1.067   9.999  20.698  0.00  0.00    +0.000 C 
BRANCH  25  26
ATOM     26  C   UNL     1       1.294   8.480  20.723  0.00  0.00    +0.000 C 
BRANCH  26  27
ATOM     27  C   UNL     1       1.929   7.970  19.431  0.00  0.00    +0.000 C 
BRANCH  27  28
ATOM     28  O   UNL     1       2.749   6.845  19.750  0.00  0.00    +0.000 OA
BRANCH  28  29
ATOM     29  C   UNL     1       2.179   5.613  19.569  0.00  0.00    +0.000 A 
ATOM     30  C   UNL     1       1.607   4.818  20.567  0.00  0.00    +0.000 A 
ATOM     31  C   UNL     1       1.022   3.593  20.234  0.00  0.00    +0.000 A 
ATOM     32  C   UNL     1       1.018   3.170  18.911  0.00  0.00    +0.000 A 
ATOM     33  F   UNL     1       0.445   2.001  18.595  0.00  0.00    +0.000 F 
ATOM     34  C   UNL     1       1.600   3.940  17.914  0.00  0.00    +0.000 A 
ATOM     35  C   UNL     1       2.181   5.165  18.245  0.00  0.00    +0.000 A 
ENDBRANCH  28  29
ENDBRANCH  27  28
ENDBRANCH  26  27
ENDBRANCH  25  26
ENDBRANCH   4  25
TORSDOF 10
ENDMDL
MODEL 6
REMARK VINA RESULT:      -6.8      1.596      1.710
REMARK  Name = 
REMARK  12 active torsions:
REMARK  status: ('A' for Active; 'I' for Inactive)
REMARK    1  A    between atoms: C_1  and  O_2
REMARK    2  A    between atoms: O_2  and  C_3
REMARK    3  A    between atoms: C_5  and  N_6
REMARK    4  A    between atoms: C_10  and  C_11
REMARK    5  A    between atoms: N_13  and  C_14
REMARK    6  A    between atoms: N_17  and  C_18
REMARK    7  A    between atoms: C_18  and  C_19
REMARK    8  A    between atoms: C_19  and  C_20
REMARK    9  A    between atoms: C_20  and  O_21
REMARK   10  A    between atoms: O_21  and  C_22
REMARK   11  A    between atoms: C_30  and  O_31
REMARK   12  A    between atoms: O_31  and  C_32
REMARK                            x       y       z     vdW  Elec       q    Type
REMARK                         _______ _______ _______ _____ _____    ______ ____
ROOT
ATOM      1  C   UNL     1       0.596  11.210  19.962  0.00  0.00    +0.000 C 
ATOM      2  C   UNL     1       1.503  10.813  18.792  0.00  0.00    +0.000 C 
ATOM      3  C   UNL     1       1.329   9.333  18.506  0.00  0.00    +0.000 C 
ATOM      4  N   UNL     1       1.808   8.523  19.635  0.00  0.00    +0.000 NA
ATOM      5  C   UNL     1       1.143   8.891  20.906  0.00  0.00    +0.000 C 
ATOM      6  C   UNL     1       1.117  10.416  21.186  0.00  0.00    +0.000 C 
ENDROOT
BRANCH   1   9
ATOM      7  C   UNL     1      -1.550  12.092  19.115  0.00  0.00    +0.000 C 
ATOM      8  O   UNL     1      -1.039  13.208  19.015  0.00  0.00    +0.000 OA
ATOM      9  N   UNL     1      -0.833  11.025  19.621  0.00  0.00    +0.000 N 
ATOM     10  H   UNL     1      -1.306  10.140  19.811  0.00  0.00    +0.000 HD
BRANCH   7  17
ATOM     11  C   UNL     1      -3.409  11.459  17.427  0.00  0.00    +0.000 A 
ATOM     12  C   UNL     1      -4.785  11.191  17.258  0.00  0.00    +0.000 A 
ATOM     13  C   UNL     1      -5.717  11.405  18.286  0.00  0.00    +0.000 A 
ATOM     14  C   UNL     1      -5.281  12.052  19.444  0.00  0.00    +0.000 A 
ATOM     15 CL   UNL     1      -6.391  12.475  20.699  0.00  0.00    +0.000 Cl
ATOM     16  C   UNL     1      -3.928  12.303  19.638  0.00  0.00    +0.000 A 
ATOM     17  C   UNL     1      -2.968  11.944  18.667  0.00  0.00    +0.000 A 
BRANCH  13  18
ATOM     18  N   UNL     1      -7.081  11.155  18.044  0.00  0.00    +0.000 N 
ATOM     19  H   UNL     1      -7.614  11.981  17.791  0.00  0.00    +0.000 HD
ATOM     20  H   UNL     1      -7.215  10.398  17.374  0.00  0.00    +0.000 HD
ENDBRANCH  13  18
BRANCH  11  22
ATOM     21  C   UNL     1      -2.644  10.045  15.677  0.00  0.00    +0.000 C 
ATOM     22  O   UNL     1      -2.480  11.242  16.441  0.00  0.00    +0.000 OA
ENDBRANCH  11  22
ENDBRANCH   7  17
ENDBRANCH   1   9
BRANCH   6  23
ATOM     23  O   UNL     1       0.399  10.690  22.396  0.00  0.00    +0.000 OA
ATOM     24  C   UNL     1      -0.026   9.499  23.058  0.00  0.00    +0.000 C 
ENDBRANCH   6  23
BRANCH   4  25
ATOM     25  C   UNL     1       1.665   7.083  19.356  0.00  0.00    +0.000 C 
BRANCH  25  26
ATOM     26  C   UNL     1       2.529   6.193  20.262  0.00  0.00    +0.000 C 
BRANCH  26  27
ATOM     27  C   UNL     1       3.404   5.232  19.462  0.00  0.00    +0.000 C 
BRANCH  27  28
ATOM     28  O   UNL     1       3.090   5.388  18.078  0.00  0.00    +0.000 OA
BRANCH  28  29
ATOM     29  C   UNL     1       4.147   5.334  17.209  0.00  0.00    +0.000 A 
ATOM     30  C   UNL     1       4.864   6.430  16.719  0.00  0.00    +0.000 A 
ATOM     31  C   UNL     1       5.952   6.227  15.866  0.00  0.00    +0.000 A 
ATOM     32  C   UNL     1       6.311   4.935  15.505  0.00  0.00    +0.000 A 
ATOM     33  F   UNL     1       7.362   4.744  14.696  0.00  0.00    +0.000 F 
ATOM     34  C   UNL     1       5.596   3.839  15.969  0.00  0.00    +0.000 A 
ATOM     35  C   UNL     1       4.512   4.041  16.823  0.00  0.00    +0.000 A 
ENDBRANCH  28  29
ENDBRANCH  27  28
ENDBRANCH  26  27
ENDBRANCH  25  26
ENDBRANCH   4  25
TORSDOF 10
ENDMDL
MODEL 7
REMARK VINA RESULT:      -6.7      2.691      3.520
REMARK  Name = 
REMARK  12 active torsions:
REMARK  status: ('A' for Active; 'I' for Inactive)
REMARK    1  A    between atoms: C_1  and  O_2
REMARK    2  A    between atoms: O_2  and  C_3
REMARK    3  A    between atoms: C_5  and  N_6
REMARK    4  A    between atoms: C_10  and  C_11
REMARK    5  A    between atoms: N_13  and  C_14
REMARK    6  A    between atoms: N_17  and  C_18
REMARK    7  A    between atoms: C_18  and  C_19
REMARK    8  A    between atoms: C_19  and  C_20
REMARK    9  A    between atoms: C_20  and  O_21
REMARK   10  A    between atoms: O_21  and  C_22
REMARK   11  A    between atoms: C_30  and  O_31
REMARK   12  A    between atoms: O_31  and  C_32
REMARK                            x       y       z     vdW  Elec       q    Type
REMARK                         _______ _______ _______ _____ _____    ______ ____
ROOT
ATOM      1  C   UNL     1      -0.101  11.532  20.841  0.00  0.00    +0.000 C 
ATOM      2  C   UNL     1       0.979  12.219  19.997  0.00  0.00    +0.000 C 
ATOM      3  C   UNL     1       1.169  11.445  18.706  0.00  0.00    +0.000 C 
ATOM      4  N   UNL     1       1.709  10.105  18.975  0.00  0.00    +0.000 NA
ATOM      5  C   UNL     1       0.861   9.343  19.920  0.00  0.00    +0.000 C 
ATOM      6  C   UNL     1       0.468  10.135  21.194  0.00  0.00    +0.000 C 
ENDROOT
BRANCH   1   9
ATOM      7  C   UNL     1      -2.378  12.449  20.572  0.00  0.00    +0.000 C 
ATOM      8  O   UNL     1      -2.189  13.175  21.549  0.00  0.00    +0.000 OA
ATOM      9  N   UNL     1      -1.412  11.552  20.156  0.00  0.00    +0.000 N 
ATOM     10  H   UNL     1      -1.631  10.874  19.424  0.00  0.00    +0.000 HD
BRANCH   7  17
ATOM     11  C   UNL     1      -4.120  11.831  18.758  0.00  0.00    +0.000 A 
ATOM     12  C   UNL     1      -5.467  11.946  18.352  0.00  0.00    +0.000 A 
ATOM     13  C   UNL     1      -6.374  12.791  19.012  0.00  0.00    +0.000 A 
ATOM     14  C   UNL     1      -5.877  13.654  19.991  0.00  0.00    +0.000 A 
ATOM     15 CL   UNL     1      -6.899  14.819  20.754  0.00  0.00    +0.000 Cl
ATOM     16  C   UNL     1      -4.560  13.539  20.419  0.00  0.00    +0.000 A 
ATOM     17  C   UNL     1      -3.686  12.580  19.862  0.00  0.00    +0.000 A 
BRANCH  13  18
ATOM     18  N   UNL     1      -7.695  12.892  18.536  0.00  0.00    +0.000 N 
ATOM     19  H   UNL     1      -8.362  12.317  19.041  0.00  0.00    +0.000 HD
ATOM     20  H   UNL     1      -8.003  13.863  18.474  0.00  0.00    +0.000 HD
ENDBRANCH  13  18
BRANCH  11  22
ATOM     21  C   UNL     1      -3.069  11.183  16.728  0.00  0.00    +0.000 C 
ATOM     22  O   UNL     1      -3.222  11.001  18.138  0.00  0.00    +0.000 OA
ENDBRANCH  11  22
ENDBRANCH   7  17
ENDBRANCH   1   9
BRANCH   6  23
ATOM     23  O   UNL     1      -0.404   9.352  22.020  0.00  0.00    +0.000 OA
ATOM     24  C   UNL     1      -0.137   9.525  23.411  0.00  0.00    +0.000 C 
ENDBRANCH   6  23
BRANCH   4  25
ATOM     25  C   UNL     1       1.919   9.355  17.723  0.00  0.00    +0.000 C 
BRANCH  25  26
ATOM     26  C   UNL     1       1.995   7.833  17.925  0.00  0.00    +0.000 C 
BRANCH  26  27
ATOM     27  C   UNL     1       3.432   7.319  17.895  0.00  0.00    +0.000 C 
BRANCH  27  28
ATOM     28  O   UNL     1       3.398   5.915  17.630  0.00  0.00    +0.000 OA
BRANCH  28  29
ATOM     29  C   UNL     1       2.682   5.152  18.512  0.00  0.00    +0.000 A 
ATOM     30  C   UNL     1       1.657   4.259  18.183  0.00  0.00    +0.000 A 
ATOM     31  C   UNL     1       1.034   3.510  19.185  0.00  0.00    +0.000 A 
ATOM     32  C   UNL     1       1.435   3.663  20.506  0.00  0.00    +0.000 A 
ATOM     33  F   UNL     1       0.844   2.933  21.462  0.00  0.00    +0.000 F 
ATOM     34  C   UNL     1       2.438   4.559  20.850  0.00  0.00    +0.000 A 
ATOM     35  C   UNL     1       3.062   5.305  19.849  0.00  0.00    +0.000 A 
ENDBRANCH  28  29
ENDBRANCH  27  28
ENDBRANCH  26  27
ENDBRANCH  25  26
ENDBRANCH   4  25
TORSDOF 10
ENDMDL
MODEL 8
REMARK VINA RESULT:      -6.7      3.276      4.844
REMARK  Name = 
REMARK  12 active torsions:
REMARK  status: ('A' for Active; 'I' for Inactive)
REMARK    1  A    between atoms: C_1  and  O_2
REMARK    2  A    between atoms: O_2  and  C_3
REMARK    3  A    between atoms: C_5  and  N_6
REMARK    4  A    between atoms: C_10  and  C_11
REMARK    5  A    between atoms: N_13  and  C_14
REMARK    6  A    between atoms: N_17  and  C_18
REMARK    7  A    between atoms: C_18  and  C_19
REMARK    8  A    between atoms: C_19  and  C_20
REMARK    9  A    between atoms: C_20  and  O_21
REMARK   10  A    between atoms: O_21  and  C_22
REMARK   11  A    between atoms: C_30  and  O_31
REMARK   12  A    between atoms: O_31  and  C_32
REMARK                            x       y       z     vdW  Elec       q    Type
REMARK                         _______ _______ _______ _____ _____    ______ ____
ROOT
ATOM      1  C   UNL     1      -0.916  12.438  18.594  0.00  0.00    +0.000 C 
ATOM      2  C   UNL     1      -1.087  11.343  17.534  0.00  0.00    +0.000 C 
ATOM      3  C   UNL     1      -0.491  10.049  18.056  0.00  0.00    +0.000 C 
ATOM      4  N   UNL     1       0.963  10.174  18.224  0.00  0.00    +0.000 NA
ATOM      5  C   UNL     1       1.326  11.306  19.106  0.00  0.00    +0.000 C 
ATOM      6  C   UNL     1       0.613  12.636  18.750  0.00  0.00    +0.000 C 
ENDROOT
BRANCH   1   9
ATOM      7  C   UNL     1      -2.349  13.114  20.489  0.00  0.00    +0.000 C 
ATOM      8  O   UNL     1      -2.284  14.283  20.106  0.00  0.00    +0.000 OA
ATOM      9  N   UNL     1      -1.664  12.112  19.829  0.00  0.00    +0.000 N 
ATOM     10  H   UNL     1      -1.629  11.172  20.230  0.00  0.00    +0.000 HD
BRANCH   7  17
ATOM     11  C   UNL     1      -2.747  12.456  22.961  0.00  0.00    +0.000 A 
ATOM     12  C   UNL     1      -3.675  12.436  24.025  0.00  0.00    +0.000 A 
ATOM     13  C   UNL     1      -5.026  12.767  23.840  0.00  0.00    +0.000 A 
ATOM     14  C   UNL     1      -5.483  12.962  22.535  0.00  0.00    +0.000 A 
ATOM     15 CL   UNL     1      -7.157  13.239  22.209  0.00  0.00    +0.000 Cl
ATOM     16  C   UNL     1      -4.581  13.009  21.479  0.00  0.00    +0.000 A 
ATOM     17  C   UNL     1      -3.196  12.830  21.686  0.00  0.00    +0.000 A 
BRANCH  13  18
ATOM     18  N   UNL     1      -5.912  12.691  24.932  0.00  0.00    +0.000 N 
ATOM     19  H   UNL     1      -5.466  12.813  25.836  0.00  0.00    +0.000 HD
ATOM     20  H   UNL     1      -6.711  13.314  24.816  0.00  0.00    +0.000 HD
ENDBRANCH  13  18
BRANCH  11  22
ATOM     21  C   UNL     1      -1.105  10.763  23.250  0.00  0.00    +0.000 C 
ATOM     22  O   UNL     1      -1.419  12.152  23.124  0.00  0.00    +0.000 OA
ENDBRANCH  11  22
ENDBRANCH   7  17
ENDBRANCH   1   9
BRANCH   6  23
ATOM     23  O   UNL     1       0.966  13.660  19.690  0.00  0.00    +0.000 OA
ATOM     24  C   UNL     1       1.640  13.139  20.835  0.00  0.00    +0.000 C 
ENDBRANCH   6  23
BRANCH   4  25
ATOM     25  C   UNL     1       1.554   8.912  18.707  0.00  0.00    +0.000 C 
BRANCH  25  26
ATOM     26  C   UNL     1       2.099   8.019  17.582  0.00  0.00    +0.000 C 
BRANCH  26  27
ATOM     27  C   UNL     1       3.312   7.207  18.027  0.00  0.00    +0.000 C 
BRANCH  27  28
ATOM     28  O   UNL     1       3.064   5.832  17.726  0.00  0.00    +0.000 OA
BRANCH  28  29
ATOM     29  C   UNL     1       2.556   5.074  18.747  0.00  0.00    +0.000 A 
ATOM     30  C   UNL     1       2.894   5.184  20.100  0.00  0.00    +0.000 A 
ATOM     31  C   UNL     1       2.265   4.370  21.045  0.00  0.00    +0.000 A 
ATOM     32  C   UNL     1       1.310   3.450  20.633  0.00  0.00    +0.000 A 
ATOM     33  F   UNL     1       0.700   2.679  21.544  0.00  0.00    +0.000 F 
ATOM     34  C   UNL     1       0.979   3.316  19.291  0.00  0.00    +0.000 A 
ATOM     35  C   UNL     1       1.604   4.131  18.348  0.00  0.00    +0.000 A 
ENDBRANCH  28  29
ENDBRANCH  27  28
ENDBRANCH  26  27
ENDBRANCH  25  26
ENDBRANCH   4  25
TORSDOF 10
ENDMDL
MODEL 9
REMARK VINA RESULT:      -6.7      1.701      2.073
REMARK  Name = 
REMARK  12 active torsions:
REMARK  status: ('A' for Active; 'I' for Inactive)
REMARK    1  A    between atoms: C_1  and  O_2
REMARK    2  A    between atoms: O_2  and  C_3
REMARK    3  A    between atoms: C_5  and  N_6
REMARK    4  A    between atoms: C_10  and  C_11
REMARK    5  A    between atoms: N_13  and  C_14
REMARK    6  A    between atoms: N_17  and  C_18
REMARK    7  A    between atoms: C_18  and  C_19
REMARK    8  A    between atoms: C_19  and  C_20
REMARK    9  A    between atoms: C_20  and  O_21
REMARK   10  A    between atoms: O_21  and  C_22
REMARK   11  A    between atoms: C_30  and  O_31
REMARK   12  A    between atoms: O_31  and  C_32
REMARK                            x       y       z     vdW  Elec       q    Type
REMARK                         _______ _______ _______ _____ _____    ______ ____
ROOT
ATOM      1  C   UNL     1       0.772  11.053  19.051  0.00  0.00    +0.000 C 
ATOM      2  C   UNL     1       1.598   9.997  18.307  0.00  0.00    +0.000 C 
ATOM      3  C   UNL     1       1.283   8.626  18.877  0.00  0.00    +0.000 C 
ATOM      4  N   UNL     1       1.729   8.526  20.273  0.00  0.00    +0.000 NA
ATOM      5  C   UNL     1       1.145   9.590  21.121  0.00  0.00    +0.000 C 
ATOM      6  C   UNL     1       1.265  11.014  20.519  0.00  0.00    +0.000 C 
ENDROOT
BRANCH   1   9
ATOM      7  C   UNL     1      -1.494  11.943  18.634  0.00  0.00    +0.000 C 
ATOM      8  O   UNL     1      -1.044  13.088  18.698  0.00  0.00    +0.000 OA
ATOM      9  N   UNL     1      -0.678  10.847  18.840  0.00  0.00    +0.000 N 
ATOM     10  H   UNL     1      -1.090   9.914  18.905  0.00  0.00    +0.000 HD
BRANCH   7  17
ATOM     11  C   UNL     1      -3.506  11.231  17.168  0.00  0.00    +0.000 A 
ATOM     12  C   UNL     1      -4.895  10.982  17.141  0.00  0.00    +0.000 A 
ATOM     13  C   UNL     1      -5.727  11.288  18.228  0.00  0.00    +0.000 A 
ATOM     14  C   UNL     1      -5.180  12.007  19.294  0.00  0.00    +0.000 A 
ATOM     15 CL   UNL     1      -6.167  12.541  20.608  0.00  0.00    +0.000 Cl
ATOM     16  C   UNL     1      -3.812  12.241  19.348  0.00  0.00    +0.000 A 
ATOM     17  C   UNL     1      -2.948  11.794  18.325  0.00  0.00    +0.000 A 
BRANCH  13  18
ATOM     18  N   UNL     1      -7.112  11.052  18.127  0.00  0.00    +0.000 N 
ATOM     19  H   UNL     1      -7.639  11.833  17.750  0.00  0.00    +0.000 HD
ATOM     20  H   UNL     1      -7.313  10.184  17.630  0.00  0.00    +0.000 HD
ENDBRANCH  13  18
BRANCH  11  22
ATOM     21  C   UNL     1      -3.287  10.302  14.992  0.00  0.00    +0.000 C 
ATOM     22  O   UNL     1      -2.672  10.925  16.122  0.00  0.00    +0.000 OA
ENDBRANCH  11  22
ENDBRANCH   7  17
ENDBRANCH   1   9
BRANCH   6  23
ATOM     23  O   UNL     1       0.618  11.972  21.367  0.00  0.00    +0.000 OA
ATOM     24  C   UNL     1       1.132  13.291  21.189  0.00  0.00    +0.000 C 
ENDBRANCH   6  23
BRANCH   4  25
ATOM     25  C   UNL     1       1.448   7.189  20.827  0.00  0.00    +0.000 C 
BRANCH  25  26
ATOM     26  C   UNL     1       1.517   6.065  19.782  0.00  0.00    +0.000 C 
BRANCH  26  27
ATOM     27  C   UNL     1       2.702   5.131  20.016  0.00  0.00    +0.000 C 
BRANCH  27  28
ATOM     28  O   UNL     1       3.893   5.814  19.622  0.00  0.00    +0.000 OA
BRANCH  28  29
ATOM     29  C   UNL     1       4.354   5.543  18.361  0.00  0.00    +0.000 A 
ATOM     30  C   UNL     1       4.647   4.276  17.848  0.00  0.00    +0.000 A 
ATOM     31  C   UNL     1       5.074   4.139  16.524  0.00  0.00    +0.000 A 
ATOM     32  C   UNL     1       5.211   5.269  15.727  0.00  0.00    +0.000 A 
ATOM     33  F   UNL     1       5.609   5.132  14.455  0.00  0.00    +0.000 F 
ATOM     34  C   UNL     1       4.943   6.534  16.230  0.00  0.00    +0.000 A 
ATOM     35  C   UNL     1       4.513   6.670  17.550  0.00  0.00    +0.000 A 
ENDBRANCH  28  29
ENDBRANCH  27  28
ENDBRANCH  26  27
ENDBRANCH  25  26
ENDBRANCH   4  25
TORSDOF 10
ENDMDL
