MODEL 1
REMARK VINA RESULT:      -7.6      0.000      0.000
REMARK  Name = 
REMARK  7 active torsions:
REMARK  status: ('A' for Active; 'I' for Inactive)
REMARK    1  A    between atoms: C_1  and  C_2
REMARK    2  A    between atoms: C_3  and  C_4
REMARK    3  A    between atoms: C_4  and  O_6
REMARK    4  A    between atoms: O_6  and  C_7
REMARK    5  A    between atoms: C_12  and  C_13
REMARK    6  A    between atoms: C_16  and  S_17
REMARK    7  A    between atoms: S_17  and  C_18
REMARK                            x       y       z     vdW  Elec       q    Type
REMARK                         _______ _______ _______ _____ _____    ______ ____
ROOT
ATOM      1  C   UNL     1       4.806   2.185  19.707  0.00  0.00    +0.000 C 
ATOM      2  C   UNL     1       3.673   3.024  19.181  0.00  0.00    +0.000 C 
ATOM      3  C   UNL     1       3.687   4.332  18.832  0.00  0.00    +0.000 C 
ATOM      4  C   UNL     1       2.438   4.981  18.273  0.00  0.00    +0.000 C 
ATOM      5  N   UNL     1       1.255   4.208  18.600  0.00  0.00    +0.000 N 
ATOM      6  C   UNL     1       1.267   2.871  18.811  0.00  0.00    +0.000 C 
ATOM      7  O   UNL     1       0.241   2.208  18.819  0.00  0.00    +0.000 OA
ATOM      8  N   UNL     1       2.489   2.326  19.067  0.00  0.00    +0.000 N 
ATOM      9  H   UNL     1       0.341   4.585  18.383  0.00  0.00    +0.000 HD
ATOM     10  H   UNL     1       2.459   1.339  19.304  0.00  0.00    +0.000 HD
ENDROOT
BRANCH   4  11
ATOM     11  C   UNL     1       2.199   6.412  18.726  0.00  0.00    +0.000 A 
ATOM     12  C   UNL     1       1.908   6.686  20.073  0.00  0.00    +0.000 A 
ATOM     13  C   UNL     1       1.546   7.972  20.467  0.00  0.00    +0.000 A 
ATOM     14  C   UNL     1       1.500   8.993  19.515  0.00  0.00    +0.000 A 
ATOM     15  C   UNL     1       1.806   8.744  18.177  0.00  0.00    +0.000 A 
ATOM     16  C   UNL     1       2.172   7.459  17.788  0.00  0.00    +0.000 A 
BRANCH  14  17
ATOM     17  S   UNL     1       1.000  10.623  20.003  0.00  0.00    +0.000 S 
ATOM     18  C   UNL     1      -0.744  10.615  19.685  0.00  0.00    +0.000 C 
ATOM     19  O   UNL     1       1.201  10.733  21.434  0.00  0.00    +0.000 OA
ATOM     20  O   UNL     1       1.624  11.566  19.091  0.00  0.00    +0.000 OA
ENDBRANCH  14  17
ENDBRANCH   4  11
BRANCH   3  21
ATOM     21  C   UNL     1       4.909   5.165  19.024  0.00  0.00    +0.000 C 
ATOM     22  O   UNL     1       5.507   5.247  20.089  0.00  0.00    +0.000 OA
BRANCH  21  23
ATOM     23  O   UNL     1       5.259   5.845  17.901  0.00  0.00    +0.000 OA
BRANCH  23  24
ATOM     24  C   UNL     1       5.487   5.016  16.751  0.00  0.00    +0.000 C 
ATOM     25  C   UNL     1       5.274   5.828  15.484  0.00  0.00    +0.000 C 
ATOM     26  C   UNL     1       6.024   5.059  14.414  0.00  0.00    +0.000 C 
ATOM     27  C   UNL     1       7.180   4.367  15.135  0.00  0.00    +0.000 C 
ATOM     28  C   UNL     1       6.945   4.576  16.633  0.00  0.00    +0.000 C 
ENDBRANCH  23  24
ENDBRANCH  21  23
ENDBRANCH   3  21
TORSDOF 5
ENDMDL
MODEL 2
REMARK VINA RESULT:      -7.3      2.351      4.657
REMARK  Name = 
REMARK  7 active torsions:
REMARK  status: ('A' for Active; 'I' for Inactive)
REMARK    1  A    between atoms: C_1  and  C_2
REMARK    2  A    between atoms: C_3  and  C_4
REMARK    3  A    between atoms: C_4  and  O_6
REMARK    4  A    between atoms: O_6  and  C_7
REMARK    5  A    between atoms: C_12  and  C_13
REMARK    6  A    between atoms: C_16  and  S_17
REMARK    7  A    between atoms: S_17  and  C_18
REMARK                            x       y       z     vdW  Elec       q    Type
REMARK                         _______ _______ _______ _____ _____    ______ ____
ROOT
ATOM      1  C   UNL     1       5.344   3.251  15.434  0.00  0.00    +0.000 C 
ATOM      2  C   UNL     1       5.393   4.393  16.412  0.00  0.00    +0.000 C 
ATOM      3  C   UNL     1       4.471   4.747  17.338  0.00  0.00    +0.000 C 
ATOM      4  C   UNL     1       4.738   5.914  18.267  0.00  0.00    +0.000 C 
ATOM      5  N   UNL     1       5.777   6.777  17.739  0.00  0.00    +0.000 N 
ATOM      6  C   UNL     1       6.764   6.346  16.917  0.00  0.00    +0.000 C 
ATOM      7  O   UNL     1       7.764   7.013  16.703  0.00  0.00    +0.000 OA
ATOM      8  N   UNL     1       6.541   5.150  16.306  0.00  0.00    +0.000 N 
ATOM      9  H   UNL     1       5.977   7.652  18.204  0.00  0.00    +0.000 HD
ATOM     10  H   UNL     1       7.256   4.891  15.632  0.00  0.00    +0.000 HD
ENDROOT
BRANCH   4  11
ATOM     11  C   UNL     1       3.527   6.779  18.577  0.00  0.00    +0.000 A 
ATOM     12  C   UNL     1       3.132   7.786  17.681  0.00  0.00    +0.000 A 
ATOM     13  C   UNL     1       2.116   8.675  18.025  0.00  0.00    +0.000 A 
ATOM     14  C   UNL     1       1.476   8.540  19.258  0.00  0.00    +0.000 A 
ATOM     15  C   UNL     1       1.841   7.533  20.153  0.00  0.00    +0.000 A 
ATOM     16  C   UNL     1       2.852   6.644  19.803  0.00  0.00    +0.000 A 
BRANCH  14  17
ATOM     17  S   UNL     1       0.211   9.694  19.719  0.00  0.00    +0.000 S 
ATOM     18  C   UNL     1       1.131  11.160  20.100  0.00  0.00    +0.000 C 
ATOM     19  O   UNL     1      -0.595   9.955  18.542  0.00  0.00    +0.000 OA
ATOM     20  O   UNL     1      -0.401   9.211  20.944  0.00  0.00    +0.000 OA
ENDBRANCH  14  17
ENDBRANCH   4  11
BRANCH   3  21
ATOM     21  C   UNL     1       3.167   4.029  17.437  0.00  0.00    +0.000 C 
ATOM     22  O   UNL     1       2.095   4.535  17.133  0.00  0.00    +0.000 OA
BRANCH  21  23
ATOM     23  O   UNL     1       3.301   2.772  17.934  0.00  0.00    +0.000 OA
BRANCH  23  24
ATOM     24  C   UNL     1       2.531   2.517  19.119  0.00  0.00    +0.000 C 
ATOM     25  C   UNL     1       3.339   2.905  20.347  0.00  0.00    +0.000 C 
ATOM     26  C   UNL     1       2.300   3.098  21.434  0.00  0.00    +0.000 C 
ATOM     27  C   UNL     1       1.033   3.564  20.719  0.00  0.00    +0.000 C 
ATOM     28  C   UNL     1       1.304   3.422  19.219  0.00  0.00    +0.000 C 
ENDBRANCH  23  24
ENDBRANCH  21  23
ENDBRANCH   3  21
TORSDOF 5
ENDMDL
MODEL 3
REMARK VINA RESULT:      -7.2      1.765      2.358
REMARK  Name = 
REMARK  7 active torsions:
REMARK  status: ('A' for Active; 'I' for Inactive)
REMARK    1  A    between atoms: C_1  and  C_2
REMARK    2  A    between atoms: C_3  and  C_4
REMARK    3  A    between atoms: C_4  and  O_6
REMARK    4  A    between atoms: O_6  and  C_7
REMARK    5  A    between atoms: C_12  and  C_13
REMARK    6  A    between atoms: C_16  and  S_17
REMARK    7  A    between atoms: S_17  and  C_18
REMARK                            x       y       z     vdW  Elec       q    Type
REMARK                         _______ _______ _______ _____ _____    ______ ____
ROOT
ATOM      1  C   UNL     1       7.683   4.455  17.950  0.00  0.00    +0.000 C 
ATOM      2  C   UNL     1       6.199   4.526  18.193  0.00  0.00    +0.000 C 
ATOM      3  C   UNL     1       5.318   5.455  17.753  0.00  0.00    +0.000 C 
ATOM      4  C   UNL     1       3.844   5.315  18.072  0.00  0.00    +0.000 C 
ATOM      5  N   UNL     1       3.635   4.419  19.193  0.00  0.00    +0.000 N 
ATOM      6  C   UNL     1       4.481   3.412  19.516  0.00  0.00    +0.000 C 
ATOM      7  O   UNL     1       4.158   2.517  20.283  0.00  0.00    +0.000 OA
ATOM      8  N   UNL     1       5.728   3.493  18.976  0.00  0.00    +0.000 N 
ATOM      9  H   UNL     1       2.706   4.321  19.582  0.00  0.00    +0.000 HD
ATOM     10  H   UNL     1       6.367   2.774  19.301  0.00  0.00    +0.000 HD
ENDROOT
BRANCH   4  11
ATOM     11  C   UNL     1       3.125   6.619  18.378  0.00  0.00    +0.000 A 
ATOM     12  C   UNL     1       2.621   6.860  19.667  0.00  0.00    +0.000 A 
ATOM     13  C   UNL     1       1.837   7.984  19.917  0.00  0.00    +0.000 A 
ATOM     14  C   UNL     1       1.579   8.883  18.880  0.00  0.00    +0.000 A 
ATOM     15  C   UNL     1       2.089   8.670  17.598  0.00  0.00    +0.000 A 
ATOM     16  C   UNL     1       2.876   7.549  17.355  0.00  0.00    +0.000 A 
BRANCH  14  17
ATOM     17  S   UNL     1       0.547  10.294  19.181  0.00  0.00    +0.000 S 
ATOM     18  C   UNL     1      -0.193   9.918  20.746  0.00  0.00    +0.000 C 
ATOM     19  O   UNL     1       1.415  11.443  19.351  0.00  0.00    +0.000 OA
ATOM     20  O   UNL     1      -0.498  10.298  18.172  0.00  0.00    +0.000 OA
ENDBRANCH  14  17
ENDBRANCH   4  11
BRANCH   3  21
ATOM     21  C   UNL     1       5.780   6.647  16.983  0.00  0.00    +0.000 C 
ATOM     22  O   UNL     1       6.236   7.653  17.511  0.00  0.00    +0.000 OA
BRANCH  21  23
ATOM     23  O   UNL     1       5.605   6.504  15.644  0.00  0.00    +0.000 OA
BRANCH  23  24
ATOM     24  C   UNL     1       6.100   5.267  15.109  0.00  0.00    +0.000 C 
ATOM     25  C   UNL     1       5.031   4.619  14.243  0.00  0.00    +0.000 C 
ATOM     26  C   UNL     1       5.798   3.665  13.350  0.00  0.00    +0.000 C 
ATOM     27  C   UNL     1       7.180   4.291  13.165  0.00  0.00    +0.000 C 
ATOM     28  C   UNL     1       7.251   5.479  14.127  0.00  0.00    +0.000 C 
ENDBRANCH  23  24
ENDBRANCH  21  23
ENDBRANCH   3  21
TORSDOF 5
ENDMDL
MODEL 4
REMARK VINA RESULT:      -7.2      2.365      4.634
REMARK  Name = 
REMARK  7 active torsions:
REMARK  status: ('A' for Active; 'I' for Inactive)
REMARK    1  A    between atoms: C_1  and  C_2
REMARK    2  A    between atoms: C_3  and  C_4
REMARK    3  A    between atoms: C_4  and  O_6
REMARK    4  A    between atoms: O_6  and  C_7
REMARK    5  A    between atoms: C_12  and  C_13
REMARK    6  A    between atoms: C_16  and  S_17
REMARK    7  A    between atoms: S_17  and  C_18
REMARK                            x       y       z     vdW  Elec       q    Type
REMARK                         _______ _______ _______ _____ _____    ______ ____
ROOT
ATOM      1  C   UNL     1       5.455   3.258  15.445  0.00  0.00    +0.000 C 
ATOM      2  C   UNL     1       5.497   4.445  16.369  0.00  0.00    +0.000 C 
ATOM      3  C   UNL     1       4.572   4.837  17.277  0.00  0.00    +0.000 C 
ATOM      4  C   UNL     1       4.833   6.046  18.151  0.00  0.00    +0.000 C 
ATOM      5  N   UNL     1       5.869   6.888  17.584  0.00  0.00    +0.000 N 
ATOM      6  C   UNL     1       6.858   6.425  16.785  0.00  0.00    +0.000 C 
ATOM      7  O   UNL     1       7.856   7.087  16.541  0.00  0.00    +0.000 OA
ATOM      8  N   UNL     1       6.642   5.201  16.229  0.00  0.00    +0.000 N 
ATOM      9  H   UNL     1       6.065   7.786  18.009  0.00  0.00    +0.000 HD
ATOM     10  H   UNL     1       7.358   4.915  15.569  0.00  0.00    +0.000 HD
ENDROOT
BRANCH   4  11
ATOM     11  C   UNL     1       3.618   6.919  18.420  0.00  0.00    +0.000 A 
ATOM     12  C   UNL     1       3.228   7.892  17.485  0.00  0.00    +0.000 A 
ATOM     13  C   UNL     1       2.208   8.791  17.788  0.00  0.00    +0.000 A 
ATOM     14  C   UNL     1       1.558   8.699  19.020  0.00  0.00    +0.000 A 
ATOM     15  C   UNL     1       1.918   7.726  19.954  0.00  0.00    +0.000 A 
ATOM     16  C   UNL     1       2.934   6.827  19.645  0.00  0.00    +0.000 A 
BRANCH  14  17
ATOM     17  S   UNL     1       0.287   9.866  19.429  0.00  0.00    +0.000 S 
ATOM     18  C   UNL     1      -0.734   9.865  17.981  0.00  0.00    +0.000 C 
ATOM     19  O   UNL     1      -0.480   9.312  20.528  0.00  0.00    +0.000 OA
ATOM     20  O   UNL     1       0.910  11.173  19.545  0.00  0.00    +0.000 OA
ENDBRANCH  14  17
ENDBRANCH   4  11
BRANCH   3  21
ATOM     21  C   UNL     1       3.272   4.118  17.408  0.00  0.00    +0.000 C 
ATOM     22  O   UNL     1       2.257   4.449  16.810  0.00  0.00    +0.000 OA
BRANCH  21  23
ATOM     23  O   UNL     1       3.334   3.084  18.288  0.00  0.00    +0.000 OA
BRANCH  23  24
ATOM     24  C   UNL     1       2.855   3.397  19.605  0.00  0.00    +0.000 C 
ATOM     25  C   UNL     1       1.367   3.093  19.694  0.00  0.00    +0.000 C 
ATOM     26  C   UNL     1       1.102   2.949  21.180  0.00  0.00    +0.000 C 
ATOM     27  C   UNL     1       2.403   2.423  21.784  0.00  0.00    +0.000 C 
ATOM     28  C   UNL     1       3.453   2.481  20.672  0.00  0.00    +0.000 C 
ENDBRANCH  23  24
ENDBRANCH  21  23
ENDBRANCH   3  21
TORSDOF 5
ENDMDL
MODEL 5
REMARK VINA RESULT:      -7.1      2.316      4.630
REMARK  Name = 
REMARK  7 active torsions:
REMARK  status: ('A' for Active; 'I' for Inactive)
REMARK    1  A    between atoms: C_1  and  C_2
REMARK    2  A    between atoms: C_3  and  C_4
REMARK    3  A    between atoms: C_4  and  O_6
REMARK    4  A    between atoms: O_6  and  C_7
REMARK    5  A    between atoms: C_12  and  C_13
REMARK    6  A    between atoms: C_16  and  S_17
REMARK    7  A    between atoms: S_17  and  C_18
REMARK                            x       y       z     vdW  Elec       q    Type
REMARK                         _______ _______ _______ _____ _____    ______ ____
ROOT
ATOM      1  C   UNL     1       4.828   3.446  15.507  0.00  0.00    +0.000 C 
ATOM      2  C   UNL     1       4.938   4.618  16.446  0.00  0.00    +0.000 C 
ATOM      3  C   UNL     1       4.047   5.038  17.375  0.00  0.00    +0.000 C 
ATOM      4  C   UNL     1       4.375   6.223  18.259  0.00  0.00    +0.000 C 
ATOM      5  N   UNL     1       5.436   7.028  17.684  0.00  0.00    +0.000 N 
ATOM      6  C   UNL     1       6.390   6.533  16.861  0.00  0.00    +0.000 C 
ATOM      7  O   UNL     1       7.411   7.154  16.606  0.00  0.00    +0.000 OA
ATOM      8  N   UNL     1       6.112   5.327  16.294  0.00  0.00    +0.000 N 
ATOM      9  H   UNL     1       5.678   7.910  18.116  0.00  0.00    +0.000 HD
ATOM     10  H   UNL     1       6.803   5.018  15.617  0.00  0.00    +0.000 HD
ENDROOT
BRANCH   4  11
ATOM     11  C   UNL     1       3.204   7.144  18.561  0.00  0.00    +0.000 A 
ATOM     12  C   UNL     1       2.834   8.138  17.641  0.00  0.00    +0.000 A 
ATOM     13  C   UNL     1       1.859   9.077  17.973  0.00  0.00    +0.000 A 
ATOM     14  C   UNL     1       1.234   9.003  19.219  0.00  0.00    +0.000 A 
ATOM     15  C   UNL     1       1.575   8.010  20.138  0.00  0.00    +0.000 A 
ATOM     16  C   UNL     1       2.545   7.072  19.801  0.00  0.00    +0.000 A 
BRANCH  14  17
ATOM     17  S   UNL     1       0.022  10.219  19.664  0.00  0.00    +0.000 S 
ATOM     18  C   UNL     1      -0.288   9.864  21.372  0.00  0.00    +0.000 C 
ATOM     19  O   UNL     1       0.655  11.521  19.578  0.00  0.00    +0.000 OA
ATOM     20  O   UNL     1      -1.186   9.931  18.913  0.00  0.00    +0.000 OA
ENDBRANCH  14  17
ENDBRANCH   4  11
BRANCH   3  21
ATOM     21  C   UNL     1       2.720   4.373  17.521  0.00  0.00    +0.000 C 
ATOM     22  O   UNL     1       1.689   4.815  17.032  0.00  0.00    +0.000 OA
BRANCH  21  23
ATOM     23  O   UNL     1       2.779   3.251  18.284  0.00  0.00    +0.000 OA
BRANCH  23  24
ATOM     24  C   UNL     1       2.550   3.472  19.684  0.00  0.00    +0.000 C 
ATOM     25  C   UNL     1       1.133   3.051  20.043  0.00  0.00    +0.000 C 
ATOM     26  C   UNL     1       1.177   2.827  21.542  0.00  0.00    +0.000 C 
ATOM     27  C   UNL     1       2.604   2.379  21.853  0.00  0.00    +0.000 C 
ATOM     28  C   UNL     1       3.408   2.563  20.563  0.00  0.00    +0.000 C 
ENDBRANCH  23  24
ENDBRANCH  21  23
ENDBRANCH   3  21
TORSDOF 5
ENDMDL
MODEL 6
REMARK VINA RESULT:      -6.9      3.773      8.710
REMARK  Name = 
REMARK  7 active torsions:
REMARK  status: ('A' for Active; 'I' for Inactive)
REMARK    1  A    between atoms: C_1  and  C_2
REMARK    2  A    between atoms: C_3  and  C_4
REMARK    3  A    between atoms: C_4  and  O_6
REMARK    4  A    between atoms: O_6  and  C_7
REMARK    5  A    between atoms: C_12  and  C_13
REMARK    6  A    between atoms: C_16  and  S_17
REMARK    7  A    between atoms: S_17  and  C_18
REMARK                            x       y       z     vdW  Elec       q    Type
REMARK                         _______ _______ _______ _____ _____    ______ ____
ROOT
ATOM      1  C   UNL     1      -0.045  14.420  18.533  0.00  0.00    +0.000 C 
ATOM      2  C   UNL     1      -0.383  12.954  18.474  0.00  0.00    +0.000 C 
ATOM      3  C   UNL     1       0.171  11.935  19.172  0.00  0.00    +0.000 C 
ATOM      4  C   UNL     1      -0.352  10.524  18.998  0.00  0.00    +0.000 C 
ATOM      5  N   UNL     1      -1.100  10.392  17.763  0.00  0.00    +0.000 N 
ATOM      6  C   UNL     1      -1.754  11.418  17.168  0.00  0.00    +0.000 C 
ATOM      7  O   UNL     1      -2.584  11.234  16.291  0.00  0.00    +0.000 OA
ATOM      8  N   UNL     1      -1.385  12.664  17.572  0.00  0.00    +0.000 N 
ATOM      9  H   UNL     1      -1.411   9.475  17.468  0.00  0.00    +0.000 HD
ATOM     10  H   UNL     1      -1.829  13.415  17.052  0.00  0.00    +0.000 HD
ENDROOT
BRANCH   4  11
ATOM     11  C   UNL     1       0.710   9.437  19.018  0.00  0.00    +0.000 A 
ATOM     12  C   UNL     1       1.407   9.110  17.843  0.00  0.00    +0.000 A 
ATOM     13  C   UNL     1       2.275   8.021  17.819  0.00  0.00    +0.000 A 
ATOM     14  C   UNL     1       2.467   7.272  18.982  0.00  0.00    +0.000 A 
ATOM     15  C   UNL     1       1.799   7.595  20.164  0.00  0.00    +0.000 A 
ATOM     16  C   UNL     1       0.937   8.687  20.185  0.00  0.00    +0.000 A 
BRANCH  14  17
ATOM     17  S   UNL     1       3.538   5.860  18.947  0.00  0.00    +0.000 S 
ATOM     18  C   UNL     1       2.865   4.820  20.214  0.00  0.00    +0.000 C 
ATOM     19  O   UNL     1       3.352   5.200  17.670  0.00  0.00    +0.000 OA
ATOM     20  O   UNL     1       4.857   6.297  19.371  0.00  0.00    +0.000 OA
ENDBRANCH  14  17
ENDBRANCH   4  11
BRANCH   3  21
ATOM     21  C   UNL     1       1.323  12.170  20.090  0.00  0.00    +0.000 C 
ATOM     22  O   UNL     1       2.442  12.479  19.701  0.00  0.00    +0.000 OA
BRANCH  21  23
ATOM     23  O   UNL     1       1.001  11.968  21.394  0.00  0.00    +0.000 OA
BRANCH  23  24
ATOM     24  C   UNL     1      -0.377  12.216  21.710  0.00  0.00    +0.000 C 
ATOM     25  C   UNL     1      -0.883  11.147  22.668  0.00  0.00    +0.000 C 
ATOM     26  C   UNL     1      -2.100  11.774  23.320  0.00  0.00    +0.000 C 
ATOM     27  C   UNL     1      -1.831  13.277  23.342  0.00  0.00    +0.000 C 
ATOM     28  C   UNL     1      -0.567  13.505  22.509  0.00  0.00    +0.000 C 
ENDBRANCH  23  24
ENDBRANCH  21  23
ENDBRANCH   3  21
TORSDOF 5
ENDMDL
MODEL 7
REMARK VINA RESULT:      -6.9      1.782      2.509
REMARK  Name = 
REMARK  7 active torsions:
REMARK  status: ('A' for Active; 'I' for Inactive)
REMARK    1  A    between atoms: C_1  and  C_2
REMARK    2  A    between atoms: C_3  and  C_4
REMARK    3  A    between atoms: C_4  and  O_6
REMARK    4  A    between atoms: O_6  and  C_7
REMARK    5  A    between atoms: C_12  and  C_13
REMARK    6  A    between atoms: C_16  and  S_17
REMARK    7  A    between atoms: S_17  and  C_18
REMARK                            x       y       z     vdW  Elec       q    Type
REMARK                         _______ _______ _______ _____ _____    ______ ____
ROOT
ATOM      1  C   UNL     1       7.589   4.575  18.118  0.00  0.00    +0.000 C 
ATOM      2  C   UNL     1       6.096   4.550  18.304  0.00  0.00    +0.000 C 
ATOM      3  C   UNL     1       5.174   5.418  17.824  0.00  0.00    +0.000 C 
ATOM      4  C   UNL     1       3.701   5.183  18.089  0.00  0.00    +0.000 C 
ATOM      5  N   UNL     1       3.508   4.282  19.208  0.00  0.00    +0.000 N 
ATOM      6  C   UNL     1       4.404   3.334  19.571  0.00  0.00    +0.000 C 
ATOM      7  O   UNL     1       4.111   2.425  20.333  0.00  0.00    +0.000 OA
ATOM      8  N   UNL     1       5.663   3.494  19.078  0.00  0.00    +0.000 N 
ATOM      9  H   UNL     1       2.573   4.126  19.562  0.00  0.00    +0.000 HD
ATOM     10  H   UNL     1       6.335   2.819  19.433  0.00  0.00    +0.000 HD
ENDROOT
BRANCH   4  11
ATOM     11  C   UNL     1       2.888   6.439  18.356  0.00  0.00    +0.000 A 
ATOM     12  C   UNL     1       2.589   7.323  17.305  0.00  0.00    +0.000 A 
ATOM     13  C   UNL     1       1.972   8.544  17.567  0.00  0.00    +0.000 A 
ATOM     14  C   UNL     1       1.629   8.871  18.880  0.00  0.00    +0.000 A 
ATOM     15  C   UNL     1       1.899   7.997  19.934  0.00  0.00    +0.000 A 
ATOM     16  C   UNL     1       2.511   6.776  19.668  0.00  0.00    +0.000 A 
BRANCH  14  17
ATOM     17  S   UNL     1       0.881  10.441  19.225  0.00  0.00    +0.000 S 
ATOM     18  C   UNL     1       0.823  10.473  20.996  0.00  0.00    +0.000 C 
ATOM     19  O   UNL     1       1.800  11.471  18.781  0.00  0.00    +0.000 OA
ATOM     20  O   UNL     1      -0.482  10.398  18.726  0.00  0.00    +0.000 OA
ENDBRANCH  14  17
ENDBRANCH   4  11
BRANCH   3  21
ATOM     21  C   UNL     1       5.587   6.633  17.063  0.00  0.00    +0.000 C 
ATOM     22  O   UNL     1       5.987   7.658  17.598  0.00  0.00    +0.000 OA
BRANCH  21  23
ATOM     23  O   UNL     1       5.434   6.485  15.721  0.00  0.00    +0.000 OA
BRANCH  23  24
ATOM     24  C   UNL     1       6.004   5.280  15.188  0.00  0.00    +0.000 C 
ATOM     25  C   UNL     1       5.001   4.604  14.266  0.00  0.00    +0.000 C 
ATOM     26  C   UNL     1       5.846   3.699  13.391  0.00  0.00    +0.000 C 
ATOM     27  C   UNL     1       7.206   4.386  13.276  0.00  0.00    +0.000 C 
ATOM     28  C   UNL     1       7.186   5.558  14.260  0.00  0.00    +0.000 C 
ENDBRANCH  23  24
ENDBRANCH  21  23
ENDBRANCH   3  21
TORSDOF 5
ENDMDL
MODEL 8
REMARK VINA RESULT:      -6.9      1.558      1.823
REMARK  Name = 
REMARK  7 active torsions:
REMARK  status: ('A' for Active; 'I' for Inactive)
REMARK    1  A    between atoms: C_1  and  C_2
REMARK    2  A    between atoms: C_3  and  C_4
REMARK    3  A    between atoms: C_4  and  O_6
REMARK    4  A    between atoms: O_6  and  C_7
REMARK    5  A    between atoms: C_12  and  C_13
REMARK    6  A    between atoms: C_16  and  S_17
REMARK    7  A    between atoms: S_17  and  C_18
REMARK                            x       y       z     vdW  Elec       q    Type
REMARK                         _______ _______ _______ _____ _____    ______ ____
ROOT
ATOM      1  C   UNL     1       5.187   2.035  20.688  0.00  0.00    +0.000 C 
ATOM      2  C   UNL     1       3.874   2.752  20.528  0.00  0.00    +0.000 C 
ATOM      3  C   UNL     1       3.569   3.772  19.693  0.00  0.00    +0.000 C 
ATOM      4  C   UNL     1       2.159   4.325  19.652  0.00  0.00    +0.000 C 
ATOM      5  N   UNL     1       1.422   3.965  20.848  0.00  0.00    +0.000 N 
ATOM      6  C   UNL     1       1.676   2.856  21.581  0.00  0.00    +0.000 C 
ATOM      7  O   UNL     1       0.888   2.435  22.414  0.00  0.00    +0.000 OA
ATOM      8  N   UNL     1       2.890   2.275  21.369  0.00  0.00    +0.000 N 
ATOM      9  H   UNL     1       0.503   4.362  21.001  0.00  0.00    +0.000 HD
ATOM     10  H   UNL     1       3.090   1.497  21.990  0.00  0.00    +0.000 HD
ENDROOT
BRANCH   4  11
ATOM     11  C   UNL     1       2.063   5.832  19.481  0.00  0.00    +0.000 A 
ATOM     12  C   UNL     1       1.715   6.644  20.573  0.00  0.00    +0.000 A 
ATOM     13  C   UNL     1       1.483   8.006  20.392  0.00  0.00    +0.000 A 
ATOM     14  C   UNL     1       1.627   8.562  19.119  0.00  0.00    +0.000 A 
ATOM     15  C   UNL     1       1.993   7.774  18.026  0.00  0.00    +0.000 A 
ATOM     16  C   UNL     1       2.228   6.415  18.213  0.00  0.00    +0.000 A 
BRANCH  14  17
ATOM     17  S   UNL     1       1.293  10.286  18.873  0.00  0.00    +0.000 S 
ATOM     18  C   UNL     1       1.231  10.918  20.528  0.00  0.00    +0.000 C 
ATOM     19  O   UNL     1       2.444  10.864  18.208  0.00  0.00    +0.000 OA
ATOM     20  O   UNL     1      -0.033  10.399  18.293  0.00  0.00    +0.000 OA
ENDBRANCH  14  17
ENDBRANCH   4  11
BRANCH   3  21
ATOM     21  C   UNL     1       4.614   4.396  18.829  0.00  0.00    +0.000 C 
ATOM     22  O   UNL     1       5.403   5.240  19.232  0.00  0.00    +0.000 OA
BRANCH  21  23
ATOM     23  O   UNL     1       4.565   3.951  17.547  0.00  0.00    +0.000 OA
BRANCH  23  24
ATOM     24  C   UNL     1       5.594   4.479  16.696  0.00  0.00    +0.000 C 
ATOM     25  C   UNL     1       5.897   3.488  15.583  0.00  0.00    +0.000 C 
ATOM     26  C   UNL     1       6.557   4.325  14.504  0.00  0.00    +0.000 C 
ATOM     27  C   UNL     1       5.960   5.724  14.643  0.00  0.00    +0.000 C 
ATOM     28  C   UNL     1       5.133   5.719  15.931  0.00  0.00    +0.000 C 
ENDBRANCH  23  24
ENDBRANCH  21  23
ENDBRANCH   3  21
TORSDOF 5
ENDMDL
MODEL 9
REMARK VINA RESULT:      -6.9      1.560      1.962
REMARK  Name = 
REMARK  7 active torsions:
REMARK  status: ('A' for Active; 'I' for Inactive)
REMARK    1  A    between atoms: C_1  and  C_2
REMARK    2  A    between atoms: C_3  and  C_4
REMARK    3  A    between atoms: C_4  and  O_6
REMARK    4  A    between atoms: O_6  and  C_7
REMARK    5  A    between atoms: C_12  and  C_13
REMARK    6  A    between atoms: C_16  and  S_17
REMARK    7  A    between atoms: S_17  and  C_18
REMARK                            x       y       z     vdW  Elec       q    Type
REMARK                         _______ _______ _______ _____ _____    ______ ____
ROOT
ATOM      1  C   UNL     1       4.631   1.570  19.497  0.00  0.00    +0.000 C 
ATOM      2  C   UNL     1       3.547   2.494  19.011  0.00  0.00    +0.000 C 
ATOM      3  C   UNL     1       3.603   3.835  18.831  0.00  0.00    +0.000 C 
ATOM      4  C   UNL     1       2.404   4.577  18.280  0.00  0.00    +0.000 C 
ATOM      5  N   UNL     1       1.191   3.796  18.431  0.00  0.00    +0.000 N 
ATOM      6  C   UNL     1       1.170   2.443  18.471  0.00  0.00    +0.000 C 
ATOM      7  O   UNL     1       0.136   1.808  18.330  0.00  0.00    +0.000 OA
ATOM      8  N   UNL     1       2.363   1.843  18.733  0.00  0.00    +0.000 N 
ATOM      9  H   UNL     1       0.299   4.219  18.205  0.00  0.00    +0.000 HD
ATOM     10  H   UNL     1       2.304   0.835  18.841  0.00  0.00    +0.000 HD
ENDROOT
BRANCH   4  11
ATOM     11  C   UNL     1       2.156   5.945  18.894  0.00  0.00    +0.000 A 
ATOM     12  C   UNL     1       1.744   6.053  20.233  0.00  0.00    +0.000 A 
ATOM     13  C   UNL     1       1.376   7.289  20.759  0.00  0.00    +0.000 A 
ATOM     14  C   UNL     1       1.446   8.426  19.951  0.00  0.00    +0.000 A 
ATOM     15  C   UNL     1       1.873   8.341  18.625  0.00  0.00    +0.000 A 
ATOM     16  C   UNL     1       2.245   7.105  18.105  0.00  0.00    +0.000 A 
BRANCH  14  17
ATOM     17  S   UNL     1       0.940   9.996  20.601  0.00  0.00    +0.000 S 
ATOM     18  C   UNL     1       1.576  11.143  19.410  0.00  0.00    +0.000 C 
ATOM     19  O   UNL     1      -0.509  10.044  20.552  0.00  0.00    +0.000 OA
ATOM     20  O   UNL     1       1.646  10.202  21.853  0.00  0.00    +0.000 OA
ENDBRANCH  14  17
ENDBRANCH   4  11
BRANCH   3  21
ATOM     21  C   UNL     1       4.823   4.609  19.205  0.00  0.00    +0.000 C 
ATOM     22  O   UNL     1       5.169   4.800  20.363  0.00  0.00    +0.000 OA
BRANCH  21  23
ATOM     23  O   UNL     1       5.479   5.103  18.123  0.00  0.00    +0.000 OA
BRANCH  23  24
ATOM     24  C   UNL     1       6.159   6.346  18.358  0.00  0.00    +0.000 C 
ATOM     25  C   UNL     1       7.595   6.072  18.775  0.00  0.00    +0.000 C 
ATOM     26  C   UNL     1       8.325   7.369  18.484  0.00  0.00    +0.000 C 
ATOM     27  C   UNL     1       7.589   8.002  17.303  0.00  0.00    +0.000 C 
ATOM     28  C   UNL     1       6.327   7.166  17.080  0.00  0.00    +0.000 C 
ENDBRANCH  23  24
ENDBRANCH  21  23
ENDBRANCH   3  21
TORSDOF 5
ENDMDL
