MODEL 1
REMARK VINA RESULT:      -8.4      0.000      0.000
REMARK  Name = 
REMARK  5 active torsions:
REMARK  status: ('A' for Active; 'I' for Inactive)
REMARK    1  A    between atoms: C_1  and  C_2
REMARK    2  A    between atoms: C_2  and  O_3
REMARK    3  A    between atoms: C_2  and  C_11
REMARK    4  A    between atoms: O_3  and  C_4
REMARK    5  A    between atoms: N_13  and  C_14
REMARK                            x       y       z     vdW  Elec       q    Type
REMARK                         _______ _______ _______ _____ _____    ______ ____
ROOT
ATOM      1  C   UNL     1       2.920   4.979  18.260  0.00  0.00    +0.000 C 
ATOM      2  O   UNL     1       1.839   4.767  17.707  0.00  0.00    +0.000 OA
ATOM      3  N   UNL     1       3.258   6.133  18.952  0.00  0.00    +0.000 N 
ATOM      4  H   UNL     1       4.228   6.222  19.236  0.00  0.00    +0.000 HD
ENDROOT
BRANCH   3   5
ATOM      5  C   UNL     1       2.401   7.249  19.143  0.00  0.00    +0.000 A 
ATOM      6  C   UNL     1       2.139   8.166  18.124  0.00  0.00    +0.000 A 
ATOM      7  C   UNL     1       1.391   9.319  18.357  0.00  0.00    +0.000 A 
ATOM      8  C   UNL     1       0.871   9.585  19.623  0.00  0.00    +0.000 A 
ATOM      9  C   UNL     1       0.175  10.779  19.861  0.00  0.00    +0.000 A 
ATOM     10  C   UNL     1      -0.341  11.055  21.124  0.00  0.00    +0.000 A 
ATOM     11  C   UNL     1      -0.186  10.128  22.150  0.00  0.00    +0.000 A 
ATOM     12  C   UNL     1       0.502   8.929  21.922  0.00  0.00    +0.000 A 
ATOM     13  C   UNL     1       1.057   8.639  20.658  0.00  0.00    +0.000 A 
ATOM     14  C   UNL     1       1.811   7.467  20.398  0.00  0.00    +0.000 A 
ENDBRANCH   3   5
BRANCH   1  16
ATOM     15  C   UNL     1       3.341   2.591  17.796  0.00  0.00    +0.000 C 
ATOM     16  C   UNL     1       4.030   3.923  18.111  0.00  0.00    +0.000 C 
BRANCH  16  17
ATOM     17  O   UNL     1       4.983   4.267  17.106  0.00  0.00    +0.000 OA
BRANCH  17  18
ATOM     18  C   UNL     1       5.927   5.206  17.437  0.00  0.00    +0.000 A 
ATOM     19  C   UNL     1       6.110   6.441  16.808  0.00  0.00    +0.000 A 
ATOM     20  C   UNL     1       7.079   7.336  17.271  0.00  0.00    +0.000 A 
ATOM     21  C   UNL     1       7.873   6.988  18.353  0.00  0.00    +0.000 A 
ATOM     22  F   UNL     1       8.800   7.848  18.795  0.00  0.00    +0.000 F 
ATOM     23  C   UNL     1       7.714   5.764  18.986  0.00  0.00    +0.000 A 
ATOM     24  C   UNL     1       6.733   4.876  18.532  0.00  0.00    +0.000 A 
ENDBRANCH  17  18
ENDBRANCH  16  17
ENDBRANCH   1  16
TORSDOF 4
ENDMDL
MODEL 2
REMARK VINA RESULT:      -8.2      0.138      1.011
REMARK  Name = 
REMARK  5 active torsions:
REMARK  status: ('A' for Active; 'I' for Inactive)
REMARK    1  A    between atoms: C_1  and  C_2
REMARK    2  A    between atoms: C_2  and  O_3
REMARK    3  A    between atoms: C_2  and  C_11
REMARK    4  A    between atoms: O_3  and  C_4
REMARK    5  A    between atoms: N_13  and  C_14
REMARK                            x       y       z     vdW  Elec       q    Type
REMARK                         _______ _______ _______ _____ _____    ______ ____
ROOT
ATOM      1  C   UNL     1       2.900   4.965  18.307  0.00  0.00    +0.000 C 
ATOM      2  O   UNL     1       1.839   4.790  17.705  0.00  0.00    +0.000 OA
ATOM      3  N   UNL     1       3.233   6.094  19.041  0.00  0.00    +0.000 N 
ATOM      4  H   UNL     1       4.192   6.155  19.368  0.00  0.00    +0.000 HD
ENDROOT
BRANCH   3   5
ATOM      5  C   UNL     1       2.393   7.225  19.223  0.00  0.00    +0.000 A 
ATOM      6  C   UNL     1       2.156   8.144  18.201  0.00  0.00    +0.000 A 
ATOM      7  C   UNL     1       1.424   9.310  18.426  0.00  0.00    +0.000 A 
ATOM      8  C   UNL     1       0.897   9.586  19.687  0.00  0.00    +0.000 A 
ATOM      9  C   UNL     1       0.218  10.791  19.918  0.00  0.00    +0.000 A 
ATOM     10  C   UNL     1      -0.305  11.077  21.176  0.00  0.00    +0.000 A 
ATOM     11  C   UNL     1      -0.174  10.148  22.204  0.00  0.00    +0.000 A 
ATOM     12  C   UNL     1       0.496   8.938  21.983  0.00  0.00    +0.000 A 
ATOM     13  C   UNL     1       1.057   8.638  20.725  0.00  0.00    +0.000 A 
ATOM     14  C   UNL     1       1.794   7.453  20.473  0.00  0.00    +0.000 A 
ENDBRANCH   3   5
BRANCH   1  16
ATOM     15  C   UNL     1       3.297   2.594  17.744  0.00  0.00    +0.000 C 
ATOM     16  C   UNL     1       3.992   3.887  18.180  0.00  0.00    +0.000 C 
BRANCH  16  17
ATOM     17  O   UNL     1       5.023   4.258  17.265  0.00  0.00    +0.000 OA
BRANCH  17  18
ATOM     18  C   UNL     1       5.974   5.137  17.718  0.00  0.00    +0.000 A 
ATOM     19  C   UNL     1       6.782   4.961  18.846  0.00  0.00    +0.000 A 
ATOM     20  C   UNL     1       7.753   5.910  19.178  0.00  0.00    +0.000 A 
ATOM     21  C   UNL     1       7.903   7.043  18.392  0.00  0.00    +0.000 A 
ATOM     22  F   UNL     1       8.834   7.951  18.712  0.00  0.00    +0.000 F 
ATOM     23  C   UNL     1       7.104   7.241  17.274  0.00  0.00    +0.000 A 
ATOM     24  C   UNL     1       6.146   6.282  16.933  0.00  0.00    +0.000 A 
ENDBRANCH  17  18
ENDBRANCH  16  17
ENDBRANCH   1  16
TORSDOF 4
ENDMDL
MODEL 3
REMARK VINA RESULT:      -8.0      1.817      2.456
REMARK  Name = 
REMARK  5 active torsions:
REMARK  status: ('A' for Active; 'I' for Inactive)
REMARK    1  A    between atoms: C_1  and  C_2
REMARK    2  A    between atoms: C_2  and  O_3
REMARK    3  A    between atoms: C_2  and  C_11
REMARK    4  A    between atoms: O_3  and  C_4
REMARK    5  A    between atoms: N_13  and  C_14
REMARK                            x       y       z     vdW  Elec       q    Type
REMARK                         _______ _______ _______ _____ _____    ______ ____
ROOT
ATOM      1  C   UNL     1       2.041   5.164  20.397  0.00  0.00    +0.000 C 
ATOM      2  O   UNL     1       0.856   4.854  20.534  0.00  0.00    +0.000 OA
ATOM      3  N   UNL     1       2.528   6.460  20.304  0.00  0.00    +0.000 N 
ATOM      4  H   UNL     1       3.507   6.558  20.056  0.00  0.00    +0.000 HD
ENDROOT
BRANCH   3   5
ATOM      5  C   UNL     1       1.734   7.636  20.364  0.00  0.00    +0.000 A 
ATOM      6  C   UNL     1       1.645   8.526  19.293  0.00  0.00    +0.000 A 
ATOM      7  C   UNL     1       0.956   9.733  19.406  0.00  0.00    +0.000 A 
ATOM      8  C   UNL     1       0.325  10.082  20.598  0.00  0.00    +0.000 A 
ATOM      9  C   UNL     1      -0.310  11.327  20.720  0.00  0.00    +0.000 A 
ATOM     10  C   UNL     1      -0.937  11.686  21.910  0.00  0.00    +0.000 A 
ATOM     11  C   UNL     1      -0.955  10.792  22.977  0.00  0.00    +0.000 A 
ATOM     12  C   UNL     1      -0.329   9.543  22.864  0.00  0.00    +0.000 A 
ATOM     13  C   UNL     1       0.334   9.169  21.678  0.00  0.00    +0.000 A 
ATOM     14  C   UNL     1       1.030   7.941  21.540  0.00  0.00    +0.000 A 
ENDBRANCH   3   5
BRANCH   1  16
ATOM     15  C   UNL     1       2.652   2.903  21.177  0.00  0.00    +0.000 C 
ATOM     16  C   UNL     1       3.072   4.033  20.232  0.00  0.00    +0.000 C 
BRANCH  16  17
ATOM     17  O   UNL     1       3.171   3.575  18.884  0.00  0.00    +0.000 OA
BRANCH  17  18
ATOM     18  C   UNL     1       4.292   3.941  18.182  0.00  0.00    +0.000 A 
ATOM     19  C   UNL     1       5.500   4.377  18.734  0.00  0.00    +0.000 A 
ATOM     20  C   UNL     1       6.590   4.675  17.911  0.00  0.00    +0.000 A 
ATOM     21  C   UNL     1       6.465   4.552  16.535  0.00  0.00    +0.000 A 
ATOM     22  F   UNL     1       7.511   4.838  15.749  0.00  0.00    +0.000 F 
ATOM     23  C   UNL     1       5.272   4.130  15.967  0.00  0.00    +0.000 A 
ATOM     24  C   UNL     1       4.188   3.816  16.792  0.00  0.00    +0.000 A 
ENDBRANCH  17  18
ENDBRANCH  16  17
ENDBRANCH   1  16
TORSDOF 4
ENDMDL
MODEL 4
REMARK VINA RESULT:      -7.9      0.729      1.668
REMARK  Name = 
REMARK  5 active torsions:
REMARK  status: ('A' for Active; 'I' for Inactive)
REMARK    1  A    between atoms: C_1  and  C_2
REMARK    2  A    between atoms: C_2  and  O_3
REMARK    3  A    between atoms: C_2  and  C_11
REMARK    4  A    between atoms: O_3  and  C_4
REMARK    5  A    between atoms: N_13  and  C_14
REMARK                            x       y       z     vdW  Elec       q    Type
REMARK                         _______ _______ _______ _____ _____    ______ ____
ROOT
ATOM      1  C   UNL     1       2.711   4.745  18.297  0.00  0.00    +0.000 C 
ATOM      2  O   UNL     1       1.629   4.784  17.708  0.00  0.00    +0.000 OA
ATOM      3  N   UNL     1       3.166   5.688  19.206  0.00  0.00    +0.000 N 
ATOM      4  H   UNL     1       4.131   5.597  19.507  0.00  0.00    +0.000 HD
ENDROOT
BRANCH   3   5
ATOM      5  C   UNL     1       2.448   6.844  19.611  0.00  0.00    +0.000 A 
ATOM      6  C   UNL     1       1.843   6.941  20.864  0.00  0.00    +0.000 A 
ATOM      7  C   UNL     1       1.044   8.032  21.205  0.00  0.00    +0.000 A 
ATOM      8  C   UNL     1       0.834   9.069  20.298  0.00  0.00    +0.000 A 
ATOM      9  C   UNL     1      -0.022  10.130  20.628  0.00  0.00    +0.000 A 
ATOM     10  C   UNL     1      -0.242  11.167  19.725  0.00  0.00    +0.000 A 
ATOM     11  C   UNL     1       0.413  11.161  18.497  0.00  0.00    +0.000 A 
ATOM     12  C   UNL     1       1.276  10.110  18.159  0.00  0.00    +0.000 A 
ATOM     13  C   UNL     1       1.493   9.037  19.046  0.00  0.00    +0.000 A 
ATOM     14  C   UNL     1       2.311   7.924  18.724  0.00  0.00    +0.000 A 
ENDBRANCH   3   5
BRANCH   1  16
ATOM     15  C   UNL     1       2.836   2.395  17.549  0.00  0.00    +0.000 C 
ATOM     16  C   UNL     1       3.686   3.607  17.947  0.00  0.00    +0.000 C 
BRANCH  16  17
ATOM     17  O   UNL     1       4.598   3.966  16.909  0.00  0.00    +0.000 OA
BRANCH  17  18
ATOM     18  C   UNL     1       5.522   4.937  17.200  0.00  0.00    +0.000 A 
ATOM     19  C   UNL     1       5.523   6.244  16.704  0.00  0.00    +0.000 A 
ATOM     20  C   UNL     1       6.497   7.159  17.116  0.00  0.00    +0.000 A 
ATOM     21  C   UNL     1       7.478   6.760  18.011  0.00  0.00    +0.000 A 
ATOM     22  F   UNL     1       8.409   7.639  18.405  0.00  0.00    +0.000 F 
ATOM     23  C   UNL     1       7.501   5.465  18.508  0.00  0.00    +0.000 A 
ATOM     24  C   UNL     1       6.516   4.556  18.109  0.00  0.00    +0.000 A 
ENDBRANCH  17  18
ENDBRANCH  16  17
ENDBRANCH   1  16
TORSDOF 4
ENDMDL
MODEL 5
REMARK VINA RESULT:      -7.8      2.906      4.288
REMARK  Name = 
REMARK  5 active torsions:
REMARK  status: ('A' for Active; 'I' for Inactive)
REMARK    1  A    between atoms: C_1  and  C_2
REMARK    2  A    between atoms: C_2  and  O_3
REMARK    3  A    between atoms: C_2  and  C_11
REMARK    4  A    between atoms: O_3  and  C_4
REMARK    5  A    between atoms: N_13  and  C_14
REMARK                            x       y       z     vdW  Elec       q    Type
REMARK                         _______ _______ _______ _____ _____    ______ ____
ROOT
ATOM      1  C   UNL     1       4.051   5.200  17.717  0.00  0.00    +0.000 C 
ATOM      2  O   UNL     1       5.037   5.681  18.278  0.00  0.00    +0.000 OA
ATOM      3  N   UNL     1       2.749   5.658  17.845  0.00  0.00    +0.000 N 
ATOM      4  H   UNL     1       2.023   5.080  17.432  0.00  0.00    +0.000 HD
ENDROOT
BRANCH   3   5
ATOM      5  C   UNL     1       2.348   6.765  18.638  0.00  0.00    +0.000 A 
ATOM      6  C   UNL     1       2.095   6.646  20.005  0.00  0.00    +0.000 A 
ATOM      7  C   UNL     1       1.591   7.712  20.748  0.00  0.00    +0.000 A 
ATOM      8  C   UNL     1       1.333   8.941  20.143  0.00  0.00    +0.000 A 
ATOM      9  C   UNL     1       0.766   9.987  20.886  0.00  0.00    +0.000 A 
ATOM     10  C   UNL     1       0.499  11.214  20.287  0.00  0.00    +0.000 A 
ATOM     11  C   UNL     1       0.820  11.412  18.947  0.00  0.00    +0.000 A 
ATOM     12  C   UNL     1       1.392  10.376  18.196  0.00  0.00    +0.000 A 
ATOM     13  C   UNL     1       1.647   9.117  18.775  0.00  0.00    +0.000 A 
ATOM     14  C   UNL     1       2.171   8.023  18.039  0.00  0.00    +0.000 A 
ENDBRANCH   3   5
BRANCH   1  16
ATOM     15  C   UNL     1       5.607   4.074  16.165  0.00  0.00    +0.000 C 
ATOM     16  C   UNL     1       4.250   3.935  16.862  0.00  0.00    +0.000 C 
BRANCH  16  17
ATOM     17  O   UNL     1       4.181   2.736  17.633  0.00  0.00    +0.000 OA
BRANCH  17  18
ATOM     18  C   UNL     1       3.264   2.703  18.653  0.00  0.00    +0.000 A 
ATOM     19  C   UNL     1       1.879   2.574  18.508  0.00  0.00    +0.000 A 
ATOM     20  C   UNL     1       1.052   2.503  19.633  0.00  0.00    +0.000 A 
ATOM     21  C   UNL     1       1.609   2.578  20.901  0.00  0.00    +0.000 A 
ATOM     22  F   UNL     1       0.814   2.509  21.976  0.00  0.00    +0.000 F 
ATOM     23  C   UNL     1       2.980   2.715  21.066  0.00  0.00    +0.000 A 
ATOM     24  C   UNL     1       3.808   2.769  19.941  0.00  0.00    +0.000 A 
ENDBRANCH  17  18
ENDBRANCH  16  17
ENDBRANCH   1  16
TORSDOF 4
ENDMDL
MODEL 6
REMARK VINA RESULT:      -7.8      1.632      2.069
REMARK  Name = 
REMARK  5 active torsions:
REMARK  status: ('A' for Active; 'I' for Inactive)
REMARK    1  A    between atoms: C_1  and  C_2
REMARK    2  A    between atoms: C_2  and  O_3
REMARK    3  A    between atoms: C_2  and  C_11
REMARK    4  A    between atoms: O_3  and  C_4
REMARK    5  A    between atoms: N_13  and  C_14
REMARK                            x       y       z     vdW  Elec       q    Type
REMARK                         _______ _______ _______ _____ _____    ______ ____
ROOT
ATOM      1  C   UNL     1       2.374   4.947  19.924  0.00  0.00    +0.000 C 
ATOM      2  O   UNL     1       1.237   4.663  19.542  0.00  0.00    +0.000 OA
ATOM      3  N   UNL     1       2.896   6.229  20.011  0.00  0.00    +0.000 N 
ATOM      4  H   UNL     1       3.889   6.300  20.211  0.00  0.00    +0.000 HD
ENDROOT
BRANCH   3   5
ATOM      5  C   UNL     1       2.195   7.420  19.684  0.00  0.00    +0.000 A 
ATOM      6  C   UNL     1       2.242   7.980  18.407  0.00  0.00    +0.000 A 
ATOM      7  C   UNL     1       1.645   9.210  18.129  0.00  0.00    +0.000 A 
ATOM      8  C   UNL     1       0.972   9.913  19.126  0.00  0.00    +0.000 A 
ATOM      9  C   UNL     1       0.430  11.177  18.852  0.00  0.00    +0.000 A 
ATOM     10  C   UNL     1      -0.238  11.890  19.844  0.00  0.00    +0.000 A 
ATOM     11  C   UNL     1      -0.391  11.331  21.109  0.00  0.00    +0.000 A 
ATOM     12  C   UNL     1       0.140  10.066  21.393  0.00  0.00    +0.000 A 
ATOM     13  C   UNL     1       0.843   9.338  20.412  0.00  0.00    +0.000 A 
ATOM     14  C   UNL     1       1.447   8.081  20.671  0.00  0.00    +0.000 A 
ENDBRANCH   3   5
BRANCH   1  16
ATOM     15  C   UNL     1       2.621   2.895  21.274  0.00  0.00    +0.000 C 
ATOM     16  C   UNL     1       3.335   3.793  20.259  0.00  0.00    +0.000 C 
BRANCH  16  17
ATOM     17  O   UNL     1       3.733   3.057  19.102  0.00  0.00    +0.000 OA
BRANCH  17  18
ATOM     18  C   UNL     1       4.557   3.695  18.211  0.00  0.00    +0.000 A 
ATOM     19  C   UNL     1       4.291   3.910  16.855  0.00  0.00    +0.000 A 
ATOM     20  C   UNL     1       5.193   4.620  16.058  0.00  0.00    +0.000 A 
ATOM     21  C   UNL     1       6.369   5.101  16.614  0.00  0.00    +0.000 A 
ATOM     22  F   UNL     1       7.232   5.782  15.848  0.00  0.00    +0.000 F 
ATOM     23  C   UNL     1       6.657   4.891  17.955  0.00  0.00    +0.000 A 
ATOM     24  C   UNL     1       5.746   4.196  18.755  0.00  0.00    +0.000 A 
ENDBRANCH  17  18
ENDBRANCH  16  17
ENDBRANCH   1  16
TORSDOF 4
ENDMDL
MODEL 7
REMARK VINA RESULT:      -7.8      0.617      1.897
REMARK  Name = 
REMARK  5 active torsions:
REMARK  status: ('A' for Active; 'I' for Inactive)
REMARK    1  A    between atoms: C_1  and  C_2
REMARK    2  A    between atoms: C_2  and  O_3
REMARK    3  A    between atoms: C_2  and  C_11
REMARK    4  A    between atoms: O_3  and  C_4
REMARK    5  A    between atoms: N_13  and  C_14
REMARK                            x       y       z     vdW  Elec       q    Type
REMARK                         _______ _______ _______ _____ _____    ______ ____
ROOT
ATOM      1  C   UNL     1       2.736   5.057  18.290  0.00  0.00    +0.000 C 
ATOM      2  O   UNL     1       1.659   5.045  17.691  0.00  0.00    +0.000 OA
ATOM      3  N   UNL     1       3.127   6.003  19.225  0.00  0.00    +0.000 N 
ATOM      4  H   UNL     1       4.093   5.962  19.535  0.00  0.00    +0.000 HD
ENDROOT
BRANCH   3   5
ATOM      5  C   UNL     1       2.337   7.106  19.649  0.00  0.00    +0.000 A 
ATOM      6  C   UNL     1       1.706   7.132  20.893  0.00  0.00    +0.000 A 
ATOM      7  C   UNL     1       0.841   8.166  21.248  0.00  0.00    +0.000 A 
ATOM      8  C   UNL     1       0.589   9.216  20.367  0.00  0.00    +0.000 A 
ATOM      9  C   UNL     1      -0.331  10.217  20.710  0.00  0.00    +0.000 A 
ATOM     10  C   UNL     1      -0.594  11.265  19.833  0.00  0.00    +0.000 A 
ATOM     11  C   UNL     1       0.081  11.332  18.617  0.00  0.00    +0.000 A 
ATOM     12  C   UNL     1       1.008  10.341  18.267  0.00  0.00    +0.000 A 
ATOM     13  C   UNL     1       1.270   9.256  19.128  0.00  0.00    +0.000 A 
ATOM     14  C   UNL     1       2.155   8.201  18.789  0.00  0.00    +0.000 A 
ENDBRANCH   3   5
BRANCH   1  16
ATOM     15  C   UNL     1       3.013   2.784  17.365  0.00  0.00    +0.000 C 
ATOM     16  C   UNL     1       3.781   3.986  17.925  0.00  0.00    +0.000 C 
BRANCH  16  17
ATOM     17  O   UNL     1       4.751   4.463  16.994  0.00  0.00    +0.000 OA
BRANCH  17  18
ATOM     18  C   UNL     1       5.761   5.247  17.492  0.00  0.00    +0.000 A 
ATOM     19  C   UNL     1       6.662   4.884  18.498  0.00  0.00    +0.000 A 
ATOM     20  C   UNL     1       7.682   5.757  18.887  0.00  0.00    +0.000 A 
ATOM     21  C   UNL     1       7.790   6.999  18.280  0.00  0.00    +0.000 A 
ATOM     22  F   UNL     1       8.769   7.833  18.654  0.00  0.00    +0.000 F 
ATOM     23  C   UNL     1       6.901   7.383  17.287  0.00  0.00    +0.000 A 
ATOM     24  C   UNL     1       5.891   6.502  16.887  0.00  0.00    +0.000 A 
ENDBRANCH  17  18
ENDBRANCH  16  17
ENDBRANCH   1  16
TORSDOF 4
ENDMDL
MODEL 8
REMARK VINA RESULT:      -7.8      2.913      4.302
REMARK  Name = 
REMARK  5 active torsions:
REMARK  status: ('A' for Active; 'I' for Inactive)
REMARK    1  A    between atoms: C_1  and  C_2
REMARK    2  A    between atoms: C_2  and  O_3
REMARK    3  A    between atoms: C_2  and  C_11
REMARK    4  A    between atoms: O_3  and  C_4
REMARK    5  A    between atoms: N_13  and  C_14
REMARK                            x       y       z     vdW  Elec       q    Type
REMARK                         _______ _______ _______ _____ _____    ______ ____
ROOT
ATOM      1  C   UNL     1       4.006   5.239  17.610  0.00  0.00    +0.000 C 
ATOM      2  O   UNL     1       5.008   5.737  18.126  0.00  0.00    +0.000 OA
ATOM      3  N   UNL     1       2.701   5.662  17.813  0.00  0.00    +0.000 N 
ATOM      4  H   UNL     1       1.969   5.072  17.430  0.00  0.00    +0.000 HD
ENDROOT
BRANCH   3   5
ATOM      5  C   UNL     1       2.316   6.747  18.644  0.00  0.00    +0.000 A 
ATOM      6  C   UNL     1       2.080   6.589  20.010  0.00  0.00    +0.000 A 
ATOM      7  C   UNL     1       1.591   7.636  20.791  0.00  0.00    +0.000 A 
ATOM      8  C   UNL     1       1.330   8.882  20.225  0.00  0.00    +0.000 A 
ATOM      9  C   UNL     1       0.778   9.908  21.005  0.00  0.00    +0.000 A 
ATOM     10  C   UNL     1       0.508  11.154  20.446  0.00  0.00    +0.000 A 
ATOM     11  C   UNL     1       0.813  11.389  19.108  0.00  0.00    +0.000 A 
ATOM     12  C   UNL     1       1.370  10.374  18.320  0.00  0.00    +0.000 A 
ATOM     13  C   UNL     1       1.627   9.096  18.858  0.00  0.00    +0.000 A 
ATOM     14  C   UNL     1       2.136   8.022  18.084  0.00  0.00    +0.000 A 
ENDBRANCH   3   5
BRANCH   1  16
ATOM     15  C   UNL     1       5.464   4.210  15.904  0.00  0.00    +0.000 C 
ATOM     16  C   UNL     1       4.190   3.992  16.726  0.00  0.00    +0.000 C 
BRANCH  16  17
ATOM     17  O   UNL     1       4.262   2.787  17.487  0.00  0.00    +0.000 OA
BRANCH  17  18
ATOM     18  C   UNL     1       3.470   2.708  18.605  0.00  0.00    +0.000 A 
ATOM     19  C   UNL     1       3.907   2.812  19.929  0.00  0.00    +0.000 A 
ATOM     20  C   UNL     1       2.992   2.764  20.984  0.00  0.00    +0.000 A 
ATOM     21  C   UNL     1       1.642   2.595  20.715  0.00  0.00    +0.000 A 
ATOM     22  F   UNL     1       0.767   2.549  21.728  0.00  0.00    +0.000 F 
ATOM     23  C   UNL     1       1.188   2.479  19.408  0.00  0.00    +0.000 A 
ATOM     24  C   UNL     1       2.103   2.545  18.353  0.00  0.00    +0.000 A 
ENDBRANCH  17  18
ENDBRANCH  16  17
ENDBRANCH   1  16
TORSDOF 4
ENDMDL
MODEL 9
REMARK VINA RESULT:      -7.6      1.688      1.986
REMARK  Name = 
REMARK  5 active torsions:
REMARK  status: ('A' for Active; 'I' for Inactive)
REMARK    1  A    between atoms: C_1  and  C_2
REMARK    2  A    between atoms: C_2  and  O_3
REMARK    3  A    between atoms: C_2  and  C_11
REMARK    4  A    between atoms: O_3  and  C_4
REMARK    5  A    between atoms: N_13  and  C_14
REMARK                            x       y       z     vdW  Elec       q    Type
REMARK                         _______ _______ _______ _____ _____    ______ ____
ROOT
ATOM      1  C   UNL     1       2.634   5.001  19.494  0.00  0.00    +0.000 C 
ATOM      2  O   UNL     1       1.468   4.605  19.519  0.00  0.00    +0.000 OA
ATOM      3  N   UNL     1       3.037   6.324  19.599  0.00  0.00    +0.000 N 
ATOM      4  H   UNL     1       4.019   6.513  19.425  0.00  0.00    +0.000 HD
ENDROOT
BRANCH   3   5
ATOM      5  C   UNL     1       2.164   7.432  19.763  0.00  0.00    +0.000 A 
ATOM      6  C   UNL     1       1.960   8.372  18.752  0.00  0.00    +0.000 A 
ATOM      7  C   UNL     1       1.192   9.516  18.966  0.00  0.00    +0.000 A 
ATOM      8  C   UNL     1       0.594   9.749  20.203  0.00  0.00    +0.000 A 
ATOM      9  C   UNL     1      -0.123  10.934  20.426  0.00  0.00    +0.000 A 
ATOM     10  C   UNL     1      -0.717  11.177  21.661  0.00  0.00    +0.000 A 
ATOM     11  C   UNL     1      -0.620  10.226  22.673  0.00  0.00    +0.000 A 
ATOM     12  C   UNL     1       0.088   9.036  22.459  0.00  0.00    +0.000 A 
ATOM     13  C   UNL     1       0.721   8.780  21.226  0.00  0.00    +0.000 A 
ATOM     14  C   UNL     1       1.496   7.617  20.985  0.00  0.00    +0.000 A 
ENDBRANCH   3   5
BRANCH   1  16
ATOM     15  C   UNL     1       3.545   2.840  20.265  0.00  0.00    +0.000 C 
ATOM     16  C   UNL     1       3.746   3.966  19.246  0.00  0.00    +0.000 C 
BRANCH  16  17
ATOM     17  O   UNL     1       3.741   3.466  17.910  0.00  0.00    +0.000 OA
BRANCH  17  18
ATOM     18  C   UNL     1       4.751   3.886  17.083  0.00  0.00    +0.000 A 
ATOM     19  C   UNL     1       4.702   3.935  15.686  0.00  0.00    +0.000 A 
ATOM     20  C   UNL     1       5.784   4.432  14.954  0.00  0.00    +0.000 A 
ATOM     21  C   UNL     1       6.921   4.865  15.619  0.00  0.00    +0.000 A 
ATOM     22  F   UNL     1       7.956   5.341  14.915  0.00  0.00    +0.000 F 
ATOM     23  C   UNL     1       6.995   4.816  17.004  0.00  0.00    +0.000 A 
ATOM     24  C   UNL     1       5.905   4.335  17.735  0.00  0.00    +0.000 A 
ENDBRANCH  17  18
ENDBRANCH  16  17
ENDBRANCH   1  16
TORSDOF 4
ENDMDL
