MODEL 1
REMARK VINA RESULT:      -6.9      0.000      0.000
REMARK  Name = 
REMARK  4 active torsions:
REMARK  status: ('A' for Active; 'I' for Inactive)
REMARK    1  A    between atoms: C_1  and  O_2
REMARK    2  A    between atoms: O_2  and  C_3
REMARK    3  A    between atoms: C_3  and  C_5
REMARK    4  A    between atoms: N_24  and  C_25
REMARK                            x       y       z     vdW  Elec       q    Type
REMARK                         _______ _______ _______ _____ _____    ______ ____
ROOT
ATOM      1  C   UNL     1      -4.311  12.007  19.000  0.00  0.00    +0.000 A 
ATOM      2  C   UNL     1      -3.056  12.244  19.690  0.00  0.00    +0.000 A 
ATOM      3  N   UNL     1      -2.085  11.714  18.887  0.00  0.00    +0.000 N 
ATOM      4  C   UNL     1      -2.655  11.158  17.807  0.00  0.00    +0.000 A 
ATOM      5  C   UNL     1      -1.972  10.525  16.744  0.00  0.00    +0.000 A 
ATOM      6  C   UNL     1      -2.630  10.284  15.567  0.00  0.00    +0.000 A 
ATOM      7  C   UNL     1      -3.986  10.638  15.448  0.00  0.00    +0.000 A 
ATOM      8  C   UNL     1      -4.700  11.158  16.574  0.00  0.00    +0.000 A 
ATOM      9  C   UNL     1      -3.974  11.407  17.773  0.00  0.00    +0.000 A 
ATOM     10  C   UNL     1      -0.646  11.801  18.799  0.00  0.00    +0.000 C 
ATOM     11  C   UNL     1       0.196  12.678  19.601  0.00  0.00    +0.000 A 
ATOM     12  C   UNL     1       1.487  12.779  19.050  0.00  0.00    +0.000 A 
ATOM     13  C   UNL     1       2.498  13.430  19.713  0.00  0.00    +0.000 A 
ATOM     14  C   UNL     1       2.235  13.993  20.948  0.00  0.00    +0.000 A 
ATOM     15  C   UNL     1       0.943  13.923  21.504  0.00  0.00    +0.000 A 
ATOM     16  C   UNL     1      -0.122  13.265  20.828  0.00  0.00    +0.000 A 
ATOM     17  N   UNL     1      -1.363  13.018  21.508  0.00  0.00    +0.000 N 
ATOM     18  C   UNL     1      -1.163  12.186  22.690  0.00  0.00    +0.000 C 
ATOM     19  C   UNL     1      -2.116  12.548  23.784  0.00  0.00    +0.000 C 
ATOM     20  N   UNL     1      -3.480  12.289  23.309  0.00  0.00    +0.000 NA
ATOM     21  C   UNL     1      -4.393  12.571  24.450  0.00  0.00    +0.000 C 
ATOM     22  C   UNL     1      -3.788  13.169  22.158  0.00  0.00    +0.000 C 
ATOM     23  C   UNL     1      -2.744  13.113  20.955  0.00  0.00    +0.000 C 
ENDROOT
BRANCH   1  24
ATOM     24  C   UNL     1      -5.713  12.338  19.356  0.00  0.00    +0.000 C 
ATOM     25  O   UNL     1      -6.274  13.359  18.952  0.00  0.00    +0.000 OA
BRANCH  24  27
ATOM     26  C   UNL     1      -7.206  10.536  20.060  0.00  0.00    +0.000 C 
ATOM     27  O   UNL     1      -6.331  11.576  20.315  0.00  0.00    +0.000 OA
ENDBRANCH  24  27
ENDBRANCH   1  24
TORSDOF 2
ENDMDL
MODEL 2
REMARK VINA RESULT:      -6.9      2.781      5.379
REMARK  Name = 
REMARK  4 active torsions:
REMARK  status: ('A' for Active; 'I' for Inactive)
REMARK    1  A    between atoms: C_1  and  O_2
REMARK    2  A    between atoms: O_2  and  C_3
REMARK    3  A    between atoms: C_3  and  C_5
REMARK    4  A    between atoms: N_24  and  C_25
REMARK                            x       y       z     vdW  Elec       q    Type
REMARK                         _______ _______ _______ _____ _____    ______ ____
ROOT
ATOM      1  C   UNL     1      -1.189  12.017  20.273  0.00  0.00    +0.000 A 
ATOM      2  C   UNL     1      -2.363  12.573  20.921  0.00  0.00    +0.000 A 
ATOM      3  N   UNL     1      -3.404  12.344  20.064  0.00  0.00    +0.000 N 
ATOM      4  C   UNL     1      -2.944  11.738  18.959  0.00  0.00    +0.000 A 
ATOM      5  C   UNL     1      -3.725  11.328  17.854  0.00  0.00    +0.000 A 
ATOM      6  C   UNL     1      -3.200  10.450  16.944  0.00  0.00    +0.000 A 
ATOM      7  C   UNL     1      -1.877   9.997  17.104  0.00  0.00    +0.000 A 
ATOM      8  C   UNL     1      -1.056  10.519  18.152  0.00  0.00    +0.000 A 
ATOM      9  C   UNL     1      -1.646  11.418  19.085  0.00  0.00    +0.000 A 
ATOM     10  C   UNL     1      -4.845  12.382  20.144  0.00  0.00    +0.000 C 
ATOM     11  C   UNL     1      -5.615  12.608  21.359  0.00  0.00    +0.000 A 
ATOM     12  C   UNL     1      -6.964  12.250  21.175  0.00  0.00    +0.000 A 
ATOM     13  C   UNL     1      -7.911  12.515  22.132  0.00  0.00    +0.000 A 
ATOM     14  C   UNL     1      -7.525  13.150  23.299  0.00  0.00    +0.000 A 
ATOM     15  C   UNL     1      -6.177  13.494  23.512  0.00  0.00    +0.000 A 
ATOM     16  C   UNL     1      -5.177  13.216  22.538  0.00  0.00    +0.000 A 
ATOM     17  N   UNL     1      -3.858  13.770  22.682  0.00  0.00    +0.000 N 
ATOM     18  C   UNL     1      -3.896  15.228  22.705  0.00  0.00    +0.000 C 
ATOM     19  C   UNL     1      -2.835  15.791  23.597  0.00  0.00    +0.000 C 
ATOM     20  N   UNL     1      -1.527  15.407  23.052  0.00  0.00    +0.000 NA
ATOM     21  C   UNL     1      -0.499  16.059  23.907  0.00  0.00    +0.000 C 
ATOM     22  C   UNL     1      -1.381  13.934  23.080  0.00  0.00    +0.000 C 
ATOM     23  C   UNL     1      -2.554  13.116  22.378  0.00  0.00    +0.000 C 
ENDROOT
BRANCH   1  24
ATOM     24  C   UNL     1       0.233  11.953  20.690  0.00  0.00    +0.000 C 
ATOM     25  O   UNL     1       1.143  12.436  20.013  0.00  0.00    +0.000 OA
BRANCH  24  27
ATOM     26  C   UNL     1       0.384   9.797  21.830  0.00  0.00    +0.000 C 
ATOM     27  O   UNL     1       0.554  11.167  21.768  0.00  0.00    +0.000 OA
ENDBRANCH  24  27
ENDBRANCH   1  24
TORSDOF 2
ENDMDL
MODEL 3
REMARK VINA RESULT:      -6.9      1.413      1.964
REMARK  Name = 
REMARK  4 active torsions:
REMARK  status: ('A' for Active; 'I' for Inactive)
REMARK    1  A    between atoms: C_1  and  O_2
REMARK    2  A    between atoms: O_2  and  C_3
REMARK    3  A    between atoms: C_3  and  C_5
REMARK    4  A    between atoms: N_24  and  C_25
REMARK                            x       y       z     vdW  Elec       q    Type
REMARK                         _______ _______ _______ _____ _____    ______ ____
ROOT
ATOM      1  C   UNL     1      -5.280  12.084  18.836  0.00  0.00    +0.000 A 
ATOM      2  C   UNL     1      -4.379  12.498  19.898  0.00  0.00    +0.000 A 
ATOM      3  N   UNL     1      -3.130  12.115  19.496  0.00  0.00    +0.000 N 
ATOM      4  C   UNL     1      -3.217  11.483  18.316  0.00  0.00    +0.000 A 
ATOM      5  C   UNL     1      -2.133  10.956  17.577  0.00  0.00    +0.000 A 
ATOM      6  C   UNL     1      -2.310  10.624  16.260  0.00  0.00    +0.000 A 
ATOM      7  C   UNL     1      -3.579  10.779  15.673  0.00  0.00    +0.000 A 
ATOM      8  C   UNL     1      -4.697  11.190  16.465  0.00  0.00    +0.000 A 
ATOM      9  C   UNL     1      -4.466  11.540  17.826  0.00  0.00    +0.000 A 
ATOM     10  C   UNL     1      -1.773  12.408  19.896  0.00  0.00    +0.000 C 
ATOM     11  C   UNL     1      -1.384  13.396  20.891  0.00  0.00    +0.000 A 
ATOM     12  C   UNL     1      -0.009  13.682  20.805  0.00  0.00    +0.000 A 
ATOM     13  C   UNL     1       0.617  14.471  21.739  0.00  0.00    +0.000 A 
ATOM     14  C   UNL     1      -0.125  14.990  22.783  0.00  0.00    +0.000 A 
ATOM     15  C   UNL     1      -1.507  14.734  22.873  0.00  0.00    +0.000 A 
ATOM     16  C   UNL     1      -2.178  13.930  21.909  0.00  0.00    +0.000 A 
ATOM     17  N   UNL     1      -3.531  13.506  22.141  0.00  0.00    +0.000 N 
ATOM     18  C   UNL     1      -3.635  12.711  23.359  0.00  0.00    +0.000 C 
ATOM     19  C   UNL     1      -4.944  12.931  24.049  0.00  0.00    +0.000 C 
ATOM     20  N   UNL     1      -6.016  12.479  23.153  0.00  0.00    +0.000 NA
ATOM     21  C   UNL     1      -7.293  12.626  23.904  0.00  0.00    +0.000 C 
ATOM     22  C   UNL     1      -6.028  13.306  21.925  0.00  0.00    +0.000 C 
ATOM     23  C   UNL     1      -4.639  13.403  21.150  0.00  0.00    +0.000 C 
ENDROOT
BRANCH   1  24
ATOM     24  C   UNL     1      -6.749  12.210  18.681  0.00  0.00    +0.000 C 
ATOM     25  O   UNL     1      -7.267  13.063  17.957  0.00  0.00    +0.000 OA
BRANCH  24  27
ATOM     26  C   UNL     1      -7.225  10.236  20.042  0.00  0.00    +0.000 C 
ATOM     27  O   UNL     1      -7.551  11.473  19.517  0.00  0.00    +0.000 OA
ENDBRANCH  24  27
ENDBRANCH   1  24
TORSDOF 2
ENDMDL
MODEL 4
REMARK VINA RESULT:      -6.8      2.444      5.295
REMARK  Name = 
REMARK  4 active torsions:
REMARK  status: ('A' for Active; 'I' for Inactive)
REMARK    1  A    between atoms: C_1  and  O_2
REMARK    2  A    between atoms: O_2  and  C_3
REMARK    3  A    between atoms: C_3  and  C_5
REMARK    4  A    between atoms: N_24  and  C_25
REMARK                            x       y       z     vdW  Elec       q    Type
REMARK                         _______ _______ _______ _____ _____    ______ ____
ROOT
ATOM      1  C   UNL     1      -1.496  11.736  19.290  0.00  0.00    +0.000 A 
ATOM      2  C   UNL     1      -2.559  12.256  20.132  0.00  0.00    +0.000 A 
ATOM      3  N   UNL     1      -3.711  12.101  19.414  0.00  0.00    +0.000 N 
ATOM      4  C   UNL     1      -3.421  11.572  18.216  0.00  0.00    +0.000 A 
ATOM      5  C   UNL     1      -4.354  11.251  17.204  0.00  0.00    +0.000 A 
ATOM      6  C   UNL     1      -3.977  10.435  16.170  0.00  0.00    +0.000 A 
ATOM      7  C   UNL     1      -2.654   9.958  16.114  0.00  0.00    +0.000 A 
ATOM      8  C   UNL     1      -1.686  10.394  17.072  0.00  0.00    +0.000 A 
ATOM      9  C   UNL     1      -2.124  11.231  18.138  0.00  0.00    +0.000 A 
ATOM     10  C   UNL     1      -5.127  12.149  19.695  0.00  0.00    +0.000 C 
ATOM     11  C   UNL     1      -5.718  12.294  21.018  0.00  0.00    +0.000 A 
ATOM     12  C   UNL     1      -7.086  11.964  20.997  0.00  0.00    +0.000 A 
ATOM     13  C   UNL     1      -7.888  12.170  22.093  0.00  0.00    +0.000 A 
ATOM     14  C   UNL     1      -7.333  12.714  23.236  0.00  0.00    +0.000 A 
ATOM     15  C   UNL     1      -5.961  13.028  23.284  0.00  0.00    +0.000 A 
ATOM     16  C   UNL     1      -5.110  12.810  22.164  0.00  0.00    +0.000 A 
ATOM     17  N   UNL     1      -3.774  13.339  22.163  0.00  0.00    +0.000 N 
ATOM     18  C   UNL     1      -3.778  14.791  22.293  0.00  0.00    +0.000 C 
ATOM     19  C   UNL     1      -2.594  15.277  23.067  0.00  0.00    +0.000 C 
ATOM     20  N   UNL     1      -1.381  14.921  22.320  0.00  0.00    +0.000 NA
ATOM     21  C   UNL     1      -0.231  15.498  23.069  0.00  0.00    +0.000 C 
ATOM     22  C   UNL     1      -1.262  13.448  22.225  0.00  0.00    +0.000 C 
ATOM     23  C   UNL     1      -2.537  12.695  21.636  0.00  0.00    +0.000 C 
ENDROOT
BRANCH   1  24
ATOM     24  C   UNL     1      -0.032  11.628  19.501  0.00  0.00    +0.000 C 
ATOM     25  O   UNL     1       0.461  10.887  20.354  0.00  0.00    +0.000 OA
BRANCH  24  27
ATOM     26  C   UNL     1       0.781  13.890  19.059  0.00  0.00    +0.000 C 
ATOM     27  O   UNL     1       0.781  12.524  18.851  0.00  0.00    +0.000 OA
ENDBRANCH  24  27
ENDBRANCH   1  24
TORSDOF 2
ENDMDL
MODEL 5
REMARK VINA RESULT:      -6.7      1.400      1.965
REMARK  Name = 
REMARK  4 active torsions:
REMARK  status: ('A' for Active; 'I' for Inactive)
REMARK    1  A    between atoms: C_1  and  O_2
REMARK    2  A    between atoms: O_2  and  C_3
REMARK    3  A    between atoms: C_3  and  C_5
REMARK    4  A    between atoms: N_24  and  C_25
REMARK                            x       y       z     vdW  Elec       q    Type
REMARK                         _______ _______ _______ _____ _____    ______ ____
ROOT
ATOM      1  C   UNL     1      -5.119  12.103  18.826  0.00  0.00    +0.000 A 
ATOM      2  C   UNL     1      -4.157  12.493  19.841  0.00  0.00    +0.000 A 
ATOM      3  N   UNL     1      -2.942  12.060  19.388  0.00  0.00    +0.000 N 
ATOM      4  C   UNL     1      -3.105  11.422  18.219  0.00  0.00    +0.000 A 
ATOM      5  C   UNL     1      -2.077  10.848  17.438  0.00  0.00    +0.000 A 
ATOM      6  C   UNL     1      -2.326  10.511  16.134  0.00  0.00    +0.000 A 
ATOM      7  C   UNL     1      -3.614  10.709  15.603  0.00  0.00    +0.000 A 
ATOM      8  C   UNL     1      -4.679  11.168  16.440  0.00  0.00    +0.000 A 
ATOM      9  C   UNL     1      -4.373  11.520  17.786  0.00  0.00    +0.000 A 
ATOM     10  C   UNL     1      -1.559  12.305  19.722  0.00  0.00    +0.000 C 
ATOM     11  C   UNL     1      -1.088  13.288  20.689  0.00  0.00    +0.000 A 
ATOM     12  C   UNL     1       0.292  13.521  20.538  0.00  0.00    +0.000 A 
ATOM     13  C   UNL     1       0.988  14.294  21.433  0.00  0.00    +0.000 A 
ATOM     14  C   UNL     1       0.314  14.850  22.505  0.00  0.00    +0.000 A 
ATOM     15  C   UNL     1      -1.071  14.647  22.660  0.00  0.00    +0.000 A 
ATOM     16  C   UNL     1      -1.814  13.860  21.735  0.00  0.00    +0.000 A 
ATOM     17  N   UNL     1      -3.170  13.489  22.033  0.00  0.00    +0.000 N 
ATOM     18  C   UNL     1      -3.248  12.709  23.263  0.00  0.00    +0.000 C 
ATOM     19  C   UNL     1      -4.515  12.983  24.009  0.00  0.00    +0.000 C 
ATOM     20  N   UNL     1      -5.643  12.564  23.167  0.00  0.00    +0.000 NA
ATOM     21  C   UNL     1      -6.877  12.765  23.974  0.00  0.00    +0.000 C 
ATOM     22  C   UNL     1      -5.680  13.380  21.932  0.00  0.00    +0.000 C 
ATOM     23  C   UNL     1      -4.325  13.418  21.094  0.00  0.00    +0.000 C 
ENDROOT
BRANCH   1  24
ATOM     24  C   UNL     1      -6.589  12.283  18.736  0.00  0.00    +0.000 C 
ATOM     25  O   UNL     1      -7.384  11.443  19.160  0.00  0.00    +0.000 OA
BRANCH  24  27
ATOM     26  C   UNL     1      -7.041  14.657  18.374  0.00  0.00    +0.000 C 
ATOM     27  O   UNL     1      -7.065  13.330  17.988  0.00  0.00    +0.000 OA
ENDBRANCH  24  27
ENDBRANCH   1  24
TORSDOF 2
ENDMDL
MODEL 6
REMARK VINA RESULT:      -6.5      2.614      5.110
REMARK  Name = 
REMARK  4 active torsions:
REMARK  status: ('A' for Active; 'I' for Inactive)
REMARK    1  A    between atoms: C_1  and  O_2
REMARK    2  A    between atoms: O_2  and  C_3
REMARK    3  A    between atoms: C_3  and  C_5
REMARK    4  A    between atoms: N_24  and  C_25
REMARK                            x       y       z     vdW  Elec       q    Type
REMARK                         _______ _______ _______ _____ _____    ______ ____
ROOT
ATOM      1  C   UNL     1      -0.771  11.405  18.890  0.00  0.00    +0.000 A 
ATOM      2  C   UNL     1      -1.499  12.161  19.894  0.00  0.00    +0.000 A 
ATOM      3  N   UNL     1      -2.794  12.206  19.458  0.00  0.00    +0.000 N 
ATOM      4  C   UNL     1      -2.888  11.578  18.276  0.00  0.00    +0.000 A 
ATOM      5  C   UNL     1      -4.070  11.404  17.523  0.00  0.00    +0.000 A 
ATOM      6  C   UNL     1      -4.096  10.486  16.506  0.00  0.00    +0.000 A 
ATOM      7  C   UNL     1      -2.932   9.754  16.207  0.00  0.00    +0.000 A 
ATOM      8  C   UNL     1      -1.707  10.031  16.891  0.00  0.00    +0.000 A 
ATOM      9  C   UNL     1      -1.728  10.983  17.950  0.00  0.00    +0.000 A 
ATOM     10  C   UNL     1      -4.074  12.545  20.034  0.00  0.00    +0.000 C 
ATOM     11  C   UNL     1      -4.309  12.862  21.436  0.00  0.00    +0.000 A 
ATOM     12  C   UNL     1      -5.682  12.809  21.741  0.00  0.00    +0.000 A 
ATOM     13  C   UNL     1      -6.159  13.216  22.962  0.00  0.00    +0.000 A 
ATOM     14  C   UNL     1      -5.267  13.689  23.906  0.00  0.00    +0.000 A 
ATOM     15  C   UNL     1      -3.887  13.727  23.628  0.00  0.00    +0.000 A 
ATOM     16  C   UNL     1      -3.370  13.297  22.374  0.00  0.00    +0.000 A 
ATOM     17  N   UNL     1      -1.996  13.550  22.037  0.00  0.00    +0.000 N 
ATOM     18  C   UNL     1      -1.705  14.979  22.038  0.00  0.00    +0.000 C 
ATOM     19  C   UNL     1      -0.306  15.254  22.491  0.00  0.00    +0.000 C 
ATOM     20  N   UNL     1       0.617  14.632  21.534  0.00  0.00    +0.000 NA
ATOM     21  C   UNL     1       1.993  15.003  21.963  0.00  0.00    +0.000 C 
ATOM     22  C   UNL     1       0.439  13.162  21.544  0.00  0.00    +0.000 C 
ATOM     23  C   UNL     1      -1.052  12.651  21.313  0.00  0.00    +0.000 C 
ENDROOT
BRANCH   1  24
ATOM     24  C   UNL     1       0.658  11.018  18.787  0.00  0.00    +0.000 C 
ATOM     25  O   UNL     1       1.538  11.819  18.466  0.00  0.00    +0.000 OA
BRANCH  24  27
ATOM     26  C   UNL     1       1.744   8.993  17.955  0.00  0.00    +0.000 C 
ATOM     27  O   UNL     1       0.972   9.684  18.870  0.00  0.00    +0.000 OA
ENDBRANCH  24  27
ENDBRANCH   1  24
TORSDOF 2
ENDMDL
MODEL 7
REMARK VINA RESULT:      -6.5      2.864      5.286
REMARK  Name = 
REMARK  4 active torsions:
REMARK  status: ('A' for Active; 'I' for Inactive)
REMARK    1  A    between atoms: C_1  and  O_2
REMARK    2  A    between atoms: O_2  and  C_3
REMARK    3  A    between atoms: C_3  and  C_5
REMARK    4  A    between atoms: N_24  and  C_25
REMARK                            x       y       z     vdW  Elec       q    Type
REMARK                         _______ _______ _______ _____ _____    ______ ____
ROOT
ATOM      1  C   UNL     1      -0.045  11.216  18.914  0.00  0.00    +0.000 A 
ATOM      2  C   UNL     1      -0.404  12.142  19.974  0.00  0.00    +0.000 A 
ATOM      3  N   UNL     1      -1.749  12.346  19.848  0.00  0.00    +0.000 N 
ATOM      4  C   UNL     1      -2.208  11.655  18.794  0.00  0.00    +0.000 A 
ATOM      5  C   UNL     1      -3.551  11.605  18.358  0.00  0.00    +0.000 A 
ATOM      6  C   UNL     1      -3.940  10.629  17.478  0.00  0.00    +0.000 A 
ATOM      7  C   UNL     1      -2.987   9.714  16.995  0.00  0.00    +0.000 A 
ATOM      8  C   UNL     1      -1.607   9.856  17.342  0.00  0.00    +0.000 A 
ATOM      9  C   UNL     1      -1.248  10.874  18.271  0.00  0.00    +0.000 A 
ATOM     10  C   UNL     1      -2.797  12.911  20.667  0.00  0.00    +0.000 C 
ATOM     11  C   UNL     1      -2.640  13.359  22.043  0.00  0.00    +0.000 A 
ATOM     12  C   UNL     1      -3.892  13.532  22.663  0.00  0.00    +0.000 A 
ATOM     13  C   UNL     1      -4.001  14.092  23.911  0.00  0.00    +0.000 A 
ATOM     14  C   UNL     1      -2.852  14.495  24.567  0.00  0.00    +0.000 A 
ATOM     15  C   UNL     1      -1.589  14.308  23.974  0.00  0.00    +0.000 A 
ATOM     16  C   UNL     1      -1.453  13.718  22.686  0.00  0.00    +0.000 A 
ATOM     17  N   UNL     1      -0.183  13.740  22.015  0.00  0.00    +0.000 N 
ATOM     18  C   UNL     1       0.278  15.107  21.798  0.00  0.00    +0.000 C 
ATOM     19  C   UNL     1       1.768  15.204  21.883  0.00  0.00    +0.000 C 
ATOM     20  N   UNL     1       2.343  14.386  20.808  0.00  0.00    +0.000 NA
ATOM     21  C   UNL     1       3.818  14.579  20.864  0.00  0.00    +0.000 C 
ATOM     22  C   UNL     1       1.989  12.963  21.014  0.00  0.00    +0.000 C 
ATOM     23  C   UNL     1       0.434  12.662  21.190  0.00  0.00    +0.000 C 
ENDROOT
BRANCH   1  24
ATOM     24  C   UNL     1       1.255  10.617  18.523  0.00  0.00    +0.000 C 
ATOM     25  O   UNL     1       2.122  11.252  17.921  0.00  0.00    +0.000 OA
BRANCH  24  27
ATOM     26  C   UNL     1       2.121   8.443  17.816  0.00  0.00    +0.000 C 
ATOM     27  O   UNL     1       1.410   9.261  18.675  0.00  0.00    +0.000 OA
ENDBRANCH  24  27
ENDBRANCH   1  24
TORSDOF 2
ENDMDL
MODEL 8
REMARK VINA RESULT:      -6.4      2.129      4.813
REMARK  Name = 
REMARK  4 active torsions:
REMARK  status: ('A' for Active; 'I' for Inactive)
REMARK    1  A    between atoms: C_1  and  O_2
REMARK    2  A    between atoms: O_2  and  C_3
REMARK    3  A    between atoms: C_3  and  C_5
REMARK    4  A    between atoms: N_24  and  C_25
REMARK                            x       y       z     vdW  Elec       q    Type
REMARK                         _______ _______ _______ _____ _____    ______ ____
ROOT
ATOM      1  C   UNL     1      -3.133  11.643  18.596  0.00  0.00    +0.000 A 
ATOM      2  C   UNL     1      -2.674  12.496  19.678  0.00  0.00    +0.000 A 
ATOM      3  N   UNL     1      -3.803  13.028  20.236  0.00  0.00    +0.000 N 
ATOM      4  C   UNL     1      -4.879  12.595  19.561  0.00  0.00    +0.000 A 
ATOM      5  C   UNL     1      -6.224  12.917  19.853  0.00  0.00    +0.000 A 
ATOM      6  C   UNL     1      -7.233  12.173  19.299  0.00  0.00    +0.000 A 
ATOM      7  C   UNL     1      -6.913  11.121  18.421  0.00  0.00    +0.000 A 
ATOM      8  C   UNL     1      -5.556  10.889  18.033  0.00  0.00    +0.000 A 
ATOM      9  C   UNL     1      -4.538  11.676  18.643  0.00  0.00    +0.000 A 
ATOM     10  C   UNL     1      -4.131  13.725  21.458  0.00  0.00    +0.000 C 
ATOM     11  C   UNL     1      -3.216  13.957  22.566  0.00  0.00    +0.000 A 
ATOM     12  C   UNL     1      -3.915  14.348  23.723  0.00  0.00    +0.000 A 
ATOM     13  C   UNL     1      -3.253  14.766  24.851  0.00  0.00    +0.000 A 
ATOM     14  C   UNL     1      -1.871  14.804  24.842  0.00  0.00    +0.000 A 
ATOM     15  C   UNL     1      -1.154  14.394  23.701  0.00  0.00    +0.000 A 
ATOM     16  C   UNL     1      -1.820  13.944  22.527  0.00  0.00    +0.000 A 
ATOM     17  N   UNL     1      -1.079  13.743  21.312  0.00  0.00    +0.000 N 
ATOM     18  C   UNL     1      -0.438  14.977  20.872  0.00  0.00    +0.000 C 
ATOM     19  C   UNL     1       0.872  14.707  20.202  0.00  0.00    +0.000 C 
ATOM     20  N   UNL     1       0.615  13.908  18.997  0.00  0.00    +0.000 NA
ATOM     21  C   UNL     1       1.923  13.737  18.309  0.00  0.00    +0.000 C 
ATOM     22  C   UNL     1       0.042  12.596  19.376  0.00  0.00    +0.000 C 
ATOM     23  C   UNL     1      -1.249  12.655  20.308  0.00  0.00    +0.000 C 
ENDROOT
BRANCH   1  24
ATOM     24  C   UNL     1      -2.397  10.803  17.620  0.00  0.00    +0.000 C 
ATOM     25  O   UNL     1      -1.670   9.870  17.967  0.00  0.00    +0.000 OA
BRANCH  24  27
ATOM     26  C   UNL     1      -2.928  10.489  15.255  0.00  0.00    +0.000 C 
ATOM     27  O   UNL     1      -2.383  11.202  16.307  0.00  0.00    +0.000 OA
ENDBRANCH  24  27
ENDBRANCH   1  24
TORSDOF 2
ENDMDL
MODEL 9
REMARK VINA RESULT:      -6.4      2.804      5.636
REMARK  Name = 
REMARK  4 active torsions:
REMARK  status: ('A' for Active; 'I' for Inactive)
REMARK    1  A    between atoms: C_1  and  O_2
REMARK    2  A    between atoms: O_2  and  C_3
REMARK    3  A    between atoms: C_3  and  C_5
REMARK    4  A    between atoms: N_24  and  C_25
REMARK                            x       y       z     vdW  Elec       q    Type
REMARK                         _______ _______ _______ _____ _____    ______ ____
ROOT
ATOM      1  C   UNL     1      -1.338  12.544  20.134  0.00  0.00    +0.000 A 
ATOM      2  C   UNL     1      -2.537  13.005  20.812  0.00  0.00    +0.000 A 
ATOM      3  N   UNL     1      -3.586  12.523  20.081  0.00  0.00    +0.000 N 
ATOM      4  C   UNL     1      -3.117  11.852  19.018  0.00  0.00    +0.000 A 
ATOM      5  C   UNL     1      -3.900  11.197  18.040  0.00  0.00    +0.000 A 
ATOM      6  C   UNL     1      -3.310  10.294  17.196  0.00  0.00    +0.000 A 
ATOM      7  C   UNL     1      -1.927  10.058  17.293  0.00  0.00    +0.000 A 
ATOM      8  C   UNL     1      -1.124  10.822  18.198  0.00  0.00    +0.000 A 
ATOM      9  C   UNL     1      -1.779  11.740  19.067  0.00  0.00    +0.000 A 
ATOM     10  C   UNL     1      -5.008  12.365  20.280  0.00  0.00    +0.000 C 
ATOM     11  C   UNL     1      -5.718  12.632  21.523  0.00  0.00    +0.000 A 
ATOM     12  C   UNL     1      -7.006  12.065  21.499  0.00  0.00    +0.000 A 
ATOM     13  C   UNL     1      -7.915  12.312  22.497  0.00  0.00    +0.000 A 
ATOM     14  C   UNL     1      -7.552  13.139  23.544  0.00  0.00    +0.000 A 
ATOM     15  C   UNL     1      -6.260  13.696  23.598  0.00  0.00    +0.000 A 
ATOM     16  C   UNL     1      -5.298  13.442  22.581  0.00  0.00    +0.000 A 
ATOM     17  N   UNL     1      -4.073  14.192  22.544  0.00  0.00    +0.000 N 
ATOM     18  C   UNL     1      -4.330  15.620  22.402  0.00  0.00    +0.000 C 
ATOM     19  C   UNL     1      -3.309  16.438  23.126  0.00  0.00    +0.000 C 
ATOM     20  N   UNL     1      -1.998  16.179  22.518  0.00  0.00    +0.000 NA
ATOM     21  C   UNL     1      -1.024  17.075  23.200  0.00  0.00    +0.000 C 
ATOM     22  C   UNL     1      -1.628  14.757  22.705  0.00  0.00    +0.000 C 
ATOM     23  C   UNL     1      -2.708  13.697  22.207  0.00  0.00    +0.000 C 
ENDROOT
BRANCH   1  24
ATOM     24  C   UNL     1       0.102  12.738  20.430  0.00  0.00    +0.000 C 
ATOM     25  O   UNL     1       0.611  12.386  21.496  0.00  0.00    +0.000 OA
BRANCH  24  27
ATOM     26  C   UNL     1       2.154  13.886  19.764  0.00  0.00    +0.000 C 
ATOM     27  O   UNL     1       0.841  13.503  19.563  0.00  0.00    +0.000 OA
ENDBRANCH  24  27
ENDBRANCH   1  24
TORSDOF 2
ENDMDL
