MODEL 1
REMARK VINA RESULT:      -7.3      0.000      0.000
REMARK  Name = 
REMARK  8 active torsions:
REMARK  status: ('A' for Active; 'I' for Inactive)
REMARK    1  A    between atoms: N_1  and  S_2
REMARK    2  A    between atoms: S_2  and  C_5
REMARK    3  A    between atoms: C_9  and  N_10
REMARK    4  A    between atoms: N_11  and  C_12
REMARK    5  A    between atoms: C_15  and  N_16
REMARK    6  A    between atoms: N_16  and  C_17
REMARK    7  A    between atoms: C_17  and  S_18
REMARK    8  A    between atoms: S_18  and  O_21
REMARK                            x       y       z     vdW  Elec       q    Type
REMARK                         _______ _______ _______ _____ _____    ______ ____
ROOT
ATOM      1  N   UNL     1       2.521   7.001  18.536  0.00  0.00    +0.000 NA
ATOM      2  N   UNL     1       2.602   8.053  17.861  0.00  0.00    +0.000 NA
ENDROOT
BRANCH   1   7
ATOM      3  C   UNL     1       5.232   4.904  17.033  0.00  0.00    +0.000 A 
ATOM      4  C   UNL     1       4.569   3.687  16.856  0.00  0.00    +0.000 A 
ATOM      5  C   UNL     1       3.227   3.600  17.216  0.00  0.00    +0.000 A 
ATOM      6  C   UNL     1       2.564   4.714  17.749  0.00  0.00    +0.000 A 
ATOM      7  C   UNL     1       3.231   5.931  17.947  0.00  0.00    +0.000 A 
ATOM      8  C   UNL     1       4.582   6.006  17.600  0.00  0.00    +0.000 A 
BRANCH   3   9
ATOM      9  S   UNL     1       6.908   5.098  16.519  0.00  0.00    +0.000 S 
ATOM     10  O   UNL     1       7.286   6.491  16.616  0.00  0.00    +0.000 OA
ATOM     11  O   UNL     1       7.134   4.316  15.328  0.00  0.00    +0.000 OA
BRANCH   9  12
ATOM     12  N   UNL     1       7.707   4.289  17.759  0.00  0.00    +0.000 NA
ATOM     13  H   UNL     1       8.697   4.538  17.751  0.00  0.00    +0.000 HD
ATOM     14  H   UNL     1       7.539   3.285  17.710  0.00  0.00    +0.000 HD
ENDBRANCH   9  12
ENDBRANCH   3   9
ENDBRANCH   1   7
BRANCH   2  15
ATOM     15  C   UNL     1       1.948   9.144  18.481  0.00  0.00    +0.000 A 
ATOM     16  C   UNL     1       1.261   8.905  19.675  0.00  0.00    +0.000 A 
ATOM     17  C   UNL     1       0.595   9.946  20.344  0.00  0.00    +0.000 A 
ATOM     18  C   UNL     1       0.632  11.261  19.868  0.00  0.00    +0.000 A 
ATOM     19  C   UNL     1       1.309  11.494  18.661  0.00  0.00    +0.000 A 
ATOM     20  C   UNL     1       1.969  10.451  17.983  0.00  0.00    +0.000 A 
BRANCH  18  21
ATOM     21  N   UNL     1      -0.120  12.233  20.530  0.00  0.00    +0.000 N 
ATOM     22  H   UNL     1      -0.223  13.081  19.973  0.00  0.00    +0.000 HD
BRANCH  21  23
ATOM     23  C   UNL     1      -1.411  11.844  21.147  0.00  0.00    +0.000 C 
BRANCH  23  24
ATOM     24  S   UNL     1      -1.432  11.751  22.986  0.00  0.00    +0.000 S 
ATOM     25  O   UNL     1      -2.771  12.026  23.462  0.00  0.00    +0.000 OA
ATOM     26  O   UNL     1      -0.670  10.612  23.437  0.00  0.00    +0.000 OA
BRANCH  24  27
ATOM     27  O   UNL     1      -0.581  13.088  23.311  0.00  0.00    +0.000 OA
ATOM     28  H   UNL     1       0.312  12.990  22.920  0.00  0.00    +0.000 HD
ENDBRANCH  24  27
ENDBRANCH  23  24
ENDBRANCH  21  23
ENDBRANCH  18  21
ENDBRANCH   2  15
TORSDOF 8
ENDMDL
MODEL 2
REMARK VINA RESULT:      -7.3      6.506      9.547
REMARK  Name = 
REMARK  8 active torsions:
REMARK  status: ('A' for Active; 'I' for Inactive)
REMARK    1  A    between atoms: N_1  and  S_2
REMARK    2  A    between atoms: S_2  and  C_5
REMARK    3  A    between atoms: C_9  and  N_10
REMARK    4  A    between atoms: N_11  and  C_12
REMARK    5  A    between atoms: C_15  and  N_16
REMARK    6  A    between atoms: N_16  and  C_17
REMARK    7  A    between atoms: C_17  and  S_18
REMARK    8  A    between atoms: S_18  and  O_21
REMARK                            x       y       z     vdW  Elec       q    Type
REMARK                         _______ _______ _______ _____ _____    ______ ____
ROOT
ATOM      1  N   UNL     1       8.588   9.785  18.537  0.00  0.00    +0.000 NA
ATOM      2  N   UNL     1       8.407   9.103  17.502  0.00  0.00    +0.000 NA
ENDROOT
BRANCH   1   7
ATOM      3  C   UNL     1       9.181  13.459  18.146  0.00  0.00    +0.000 A 
ATOM      4  C   UNL     1      10.520  13.478  17.748  0.00  0.00    +0.000 A 
ATOM      5  C   UNL     1      11.188  12.266  17.592  0.00  0.00    +0.000 A 
ATOM      6  C   UNL     1      10.522  11.057  17.837  0.00  0.00    +0.000 A 
ATOM      7  C   UNL     1       9.185  11.034  18.257  0.00  0.00    +0.000 A 
ATOM      8  C   UNL     1       8.527  12.255  18.427  0.00  0.00    +0.000 A 
BRANCH   3   9
ATOM      9  S   UNL     1       8.261  14.958  18.278  0.00  0.00    +0.000 S 
ATOM     10  O   UNL     1       8.979  16.027  17.621  0.00  0.00    +0.000 OA
ATOM     11  O   UNL     1       7.745  15.083  19.620  0.00  0.00    +0.000 OA
BRANCH   9  12
ATOM     12  N   UNL     1       6.936  14.594  17.308  0.00  0.00    +0.000 NA
ATOM     13  H   UNL     1       6.083  14.609  17.869  0.00  0.00    +0.000 HD
ATOM     14  H   UNL     1       7.078  13.717  16.807  0.00  0.00    +0.000 HD
ENDBRANCH   9  12
ENDBRANCH   3   9
ENDBRANCH   1   7
BRANCH   2  15
ATOM     15  C   UNL     1       7.748   7.879  17.770  0.00  0.00    +0.000 A 
ATOM     16  C   UNL     1       8.290   7.043  18.750  0.00  0.00    +0.000 A 
ATOM     17  C   UNL     1       7.682   5.817  19.069  0.00  0.00    +0.000 A 
ATOM     18  C   UNL     1       6.494   5.410  18.454  0.00  0.00    +0.000 A 
ATOM     19  C   UNL     1       5.961   6.244  17.459  0.00  0.00    +0.000 A 
ATOM     20  C   UNL     1       6.574   7.469  17.130  0.00  0.00    +0.000 A 
BRANCH  18  21
ATOM     21  N   UNL     1       5.987   4.143  18.750  0.00  0.00    +0.000 N 
ATOM     22  H   UNL     1       6.602   3.621  19.372  0.00  0.00    +0.000 HD
BRANCH  21  23
ATOM     23  C   UNL     1       4.572   4.020  19.177  0.00  0.00    +0.000 C 
BRANCH  23  24
ATOM     24  S   UNL     1       4.059   2.368  19.805  0.00  0.00    +0.000 S 
ATOM     25  O   UNL     1       5.119   1.818  20.624  0.00  0.00    +0.000 OA
ATOM     26  O   UNL     1       2.685   2.404  20.244  0.00  0.00    +0.000 OA
BRANCH  24  27
ATOM     27  O   UNL     1       4.123   1.543  18.415  0.00  0.00    +0.000 OA
ATOM     28  H   UNL     1       3.643   0.697  18.535  0.00  0.00    +0.000 HD
ENDBRANCH  24  27
ENDBRANCH  23  24
ENDBRANCH  21  23
ENDBRANCH  18  21
ENDBRANCH   2  15
TORSDOF 8
ENDMDL
MODEL 3
REMARK VINA RESULT:      -7.2      6.478      9.468
REMARK  Name = 
REMARK  8 active torsions:
REMARK  status: ('A' for Active; 'I' for Inactive)
REMARK    1  A    between atoms: N_1  and  S_2
REMARK    2  A    between atoms: S_2  and  C_5
REMARK    3  A    between atoms: C_9  and  N_10
REMARK    4  A    between atoms: N_11  and  C_12
REMARK    5  A    between atoms: C_15  and  N_16
REMARK    6  A    between atoms: N_16  and  C_17
REMARK    7  A    between atoms: C_17  and  S_18
REMARK    8  A    between atoms: S_18  and  O_21
REMARK                            x       y       z     vdW  Elec       q    Type
REMARK                         _______ _______ _______ _____ _____    ______ ____
ROOT
ATOM      1  N   UNL     1       8.881   9.556  18.518  0.00  0.00    +0.000 NA
ATOM      2  N   UNL     1       8.183   9.177  17.549  0.00  0.00    +0.000 NA
ENDROOT
BRANCH   1   7
ATOM      3  C   UNL     1       9.170  13.276  18.220  0.00  0.00    +0.000 A 
ATOM      4  C   UNL     1      10.546  13.428  18.033  0.00  0.00    +0.000 A 
ATOM      5  C   UNL     1      11.344  12.288  17.983  0.00  0.00    +0.000 A 
ATOM      6  C   UNL     1      10.768  11.017  18.124  0.00  0.00    +0.000 A 
ATOM      7  C   UNL     1       9.391  10.860  18.332  0.00  0.00    +0.000 A 
ATOM      8  C   UNL     1       8.600  12.010  18.398  0.00  0.00    +0.000 A 
BRANCH   3   9
ATOM      9  S   UNL     1       8.100  14.678  18.209  0.00  0.00    +0.000 S 
ATOM     10  O   UNL     1       8.043  15.255  19.533  0.00  0.00    +0.000 OA
ATOM     11  O   UNL     1       6.914  14.365  17.449  0.00  0.00    +0.000 OA
BRANCH   9  12
ATOM     12  N   UNL     1       8.991  15.738  17.254  0.00  0.00    +0.000 NA
ATOM     13  H   UNL     1       9.914  15.881  17.666  0.00  0.00    +0.000 HD
ATOM     14  H   UNL     1       8.479  16.605  17.091  0.00  0.00    +0.000 HD
ENDBRANCH   9  12
ENDBRANCH   3   9
ENDBRANCH   1   7
BRANCH   2  15
ATOM     15  C   UNL     1       7.616   7.898  17.760  0.00  0.00    +0.000 A 
ATOM     16  C   UNL     1       8.208   7.067  18.714  0.00  0.00    +0.000 A 
ATOM     17  C   UNL     1       7.691   5.787  18.976  0.00  0.00    +0.000 A 
ATOM     18  C   UNL     1       6.544   5.317  18.329  0.00  0.00    +0.000 A 
ATOM     19  C   UNL     1       5.961   6.148  17.360  0.00  0.00    +0.000 A 
ATOM     20  C   UNL     1       6.483   7.427  17.088  0.00  0.00    +0.000 A 
BRANCH  18  21
ATOM     21  N   UNL     1       6.130   4.005  18.568  0.00  0.00    +0.000 N 
ATOM     22  H   UNL     1       6.886   3.426  18.932  0.00  0.00    +0.000 HD
BRANCH  21  23
ATOM     23  C   UNL     1       4.876   3.776  19.325  0.00  0.00    +0.000 C 
BRANCH  23  24
ATOM     24  S   UNL     1       3.498   2.994  18.387  0.00  0.00    +0.000 S 
ATOM     25  O   UNL     1       2.332   2.904  19.240  0.00  0.00    +0.000 OA
ATOM     26  O   UNL     1       3.437   3.529  17.049  0.00  0.00    +0.000 OA
BRANCH  24  27
ATOM     27  O   UNL     1       4.080   1.487  18.301  0.00  0.00    +0.000 OA
ATOM     28  H   UNL     1       3.644   1.028  17.553  0.00  0.00    +0.000 HD
ENDBRANCH  24  27
ENDBRANCH  23  24
ENDBRANCH  21  23
ENDBRANCH  18  21
ENDBRANCH   2  15
TORSDOF 8
ENDMDL
MODEL 4
REMARK VINA RESULT:      -7.2      1.960      9.498
REMARK  Name = 
REMARK  8 active torsions:
REMARK  status: ('A' for Active; 'I' for Inactive)
REMARK    1  A    between atoms: N_1  and  S_2
REMARK    2  A    between atoms: S_2  and  C_5
REMARK    3  A    between atoms: C_9  and  N_10
REMARK    4  A    between atoms: N_11  and  C_12
REMARK    5  A    between atoms: C_15  and  N_16
REMARK    6  A    between atoms: N_16  and  C_17
REMARK    7  A    between atoms: C_17  and  S_18
REMARK    8  A    between atoms: S_18  and  O_21
REMARK                            x       y       z     vdW  Elec       q    Type
REMARK                         _______ _______ _______ _____ _____    ______ ____
ROOT
ATOM      1  N   UNL     1       1.474   8.369  19.956  0.00  0.00    +0.000 NA
ATOM      2  N   UNL     1       1.787   7.276  20.482  0.00  0.00    +0.000 NA
ENDROOT
BRANCH   1   7
ATOM      3  C   UNL     1      -0.710  11.078  21.334  0.00  0.00    +0.000 A 
ATOM      4  C   UNL     1      -0.765  10.723  22.684  0.00  0.00    +0.000 A 
ATOM      5  C   UNL     1      -0.052   9.606  23.111  0.00  0.00    +0.000 A 
ATOM      6  C   UNL     1       0.699   8.856  22.195  0.00  0.00    +0.000 A 
ATOM      7  C   UNL     1       0.741   9.196  20.836  0.00  0.00    +0.000 A 
ATOM      8  C   UNL     1       0.009  10.309  20.412  0.00  0.00    +0.000 A 
BRANCH   3   9
ATOM      9  S   UNL     1      -1.525  12.530  20.752  0.00  0.00    +0.000 S 
ATOM     10  O   UNL     1      -0.622  13.657  20.831  0.00  0.00    +0.000 OA
ATOM     11  O   UNL     1      -2.864  12.572  21.287  0.00  0.00    +0.000 OA
BRANCH   9  12
ATOM     12  N   UNL     1      -1.694  12.155  19.120  0.00  0.00    +0.000 NA
ATOM     13  H   UNL     1      -1.890  13.005  18.590  0.00  0.00    +0.000 HD
ATOM     14  H   UNL     1      -2.386  11.420  18.982  0.00  0.00    +0.000 HD
ENDBRANCH   9  12
ENDBRANCH   3   9
ENDBRANCH   1   7
BRANCH   2  15
ATOM     15  C   UNL     1       2.578   6.472  19.627  0.00  0.00    +0.000 A 
ATOM     16  C   UNL     1       3.021   5.238  20.110  0.00  0.00    +0.000 A 
ATOM     17  C   UNL     1       3.804   4.390  19.311  0.00  0.00    +0.000 A 
ATOM     18  C   UNL     1       4.132   4.726  17.993  0.00  0.00    +0.000 A 
ATOM     19  C   UNL     1       3.700   5.973  17.517  0.00  0.00    +0.000 A 
ATOM     20  C   UNL     1       2.922   6.830  18.319  0.00  0.00    +0.000 A 
BRANCH  18  21
ATOM     21  N   UNL     1       4.985   3.881  17.280  0.00  0.00    +0.000 N 
ATOM     22  H   UNL     1       4.627   2.929  17.230  0.00  0.00    +0.000 HD
BRANCH  21  23
ATOM     23  C   UNL     1       5.494   4.326  15.960  0.00  0.00    +0.000 C 
BRANCH  23  24
ATOM     24  S   UNL     1       7.192   5.038  15.947  0.00  0.00    +0.000 S 
ATOM     25  O   UNL     1       7.989   4.389  16.967  0.00  0.00    +0.000 OA
ATOM     26  O   UNL     1       7.656   5.201  14.591  0.00  0.00    +0.000 OA
BRANCH  24  27
ATOM     27  O   UNL     1       6.851   6.503  16.543  0.00  0.00    +0.000 OA
ATOM     28  H   UNL     1       7.021   7.169  15.844  0.00  0.00    +0.000 HD
ENDBRANCH  24  27
ENDBRANCH  23  24
ENDBRANCH  21  23
ENDBRANCH  18  21
ENDBRANCH   2  15
TORSDOF 8
ENDMDL
MODEL 5
REMARK VINA RESULT:      -7.2      1.987      9.370
REMARK  Name = 
REMARK  8 active torsions:
REMARK  status: ('A' for Active; 'I' for Inactive)
REMARK    1  A    between atoms: N_1  and  S_2
REMARK    2  A    between atoms: S_2  and  C_5
REMARK    3  A    between atoms: C_9  and  N_10
REMARK    4  A    between atoms: N_11  and  C_12
REMARK    5  A    between atoms: C_15  and  N_16
REMARK    6  A    between atoms: N_16  and  C_17
REMARK    7  A    between atoms: C_17  and  S_18
REMARK    8  A    between atoms: S_18  and  O_21
REMARK                            x       y       z     vdW  Elec       q    Type
REMARK                         _______ _______ _______ _____ _____    ______ ____
ROOT
ATOM      1  N   UNL     1       1.809   8.207  20.095  0.00  0.00    +0.000 NA
ATOM      2  N   UNL     1       1.682   7.006  20.429  0.00  0.00    +0.000 NA
ENDROOT
BRANCH   1   7
ATOM      3  C   UNL     1       0.107  11.240  21.477  0.00  0.00    +0.000 A 
ATOM      4  C   UNL     1      -0.634  10.684  22.522  0.00  0.00    +0.000 A 
ATOM      5  C   UNL     1      -0.531   9.317  22.761  0.00  0.00    +0.000 A 
ATOM      6  C   UNL     1       0.300   8.521  21.960  0.00  0.00    +0.000 A 
ATOM      7  C   UNL     1       1.030   9.071  20.897  0.00  0.00    +0.000 A 
ATOM      8  C   UNL     1       0.908  10.442  20.653  0.00  0.00    +0.000 A 
BRANCH   3   9
ATOM      9  S   UNL     1       0.081  12.979  21.181  0.00  0.00    +0.000 S 
ATOM     10  O   UNL     1       0.403  13.683  22.402  0.00  0.00    +0.000 OA
ATOM     11  O   UNL     1      -1.073  13.307  20.379  0.00  0.00    +0.000 OA
BRANCH   9  12
ATOM     12  N   UNL     1       1.409  13.139  20.161  0.00  0.00    +0.000 NA
ATOM     13  H   UNL     1       1.092  13.297  19.204  0.00  0.00    +0.000 HD
ATOM     14  H   UNL     1       2.042  12.345  20.256  0.00  0.00    +0.000 HD
ENDBRANCH   9  12
ENDBRANCH   3   9
ENDBRANCH   1   7
BRANCH   2  15
ATOM     15  C   UNL     1       2.510   6.144  19.672  0.00  0.00    +0.000 A 
ATOM     16  C   UNL     1       2.833   6.524  18.366  0.00  0.00    +0.000 A 
ATOM     17  C   UNL     1       3.655   5.717  17.563  0.00  0.00    +0.000 A 
ATOM     18  C   UNL     1       4.216   4.533  18.051  0.00  0.00    +0.000 A 
ATOM     19  C   UNL     1       3.877   4.146  19.357  0.00  0.00    +0.000 A 
ATOM     20  C   UNL     1       3.045   4.948  20.161  0.00  0.00    +0.000 A 
BRANCH  18  21
ATOM     21  N   UNL     1       4.954   3.731  17.177  0.00  0.00    +0.000 N 
ATOM     22  H   UNL     1       4.519   2.821  17.033  0.00  0.00    +0.000 HD
BRANCH  21  23
ATOM     23  C   UNL     1       5.415   4.308  15.892  0.00  0.00    +0.000 C 
BRANCH  23  24
ATOM     24  S   UNL     1       7.107   5.032  15.892  0.00  0.00    +0.000 S 
ATOM     25  O   UNL     1       7.903   4.385  16.914  0.00  0.00    +0.000 OA
ATOM     26  O   UNL     1       7.579   5.201  14.538  0.00  0.00    +0.000 OA
BRANCH  24  27
ATOM     27  O   UNL     1       6.753   6.493  16.489  0.00  0.00    +0.000 OA
ATOM     28  H   UNL     1       6.196   6.967  15.837  0.00  0.00    +0.000 HD
ENDBRANCH  24  27
ENDBRANCH  23  24
ENDBRANCH  21  23
ENDBRANCH  18  21
ENDBRANCH   2  15
TORSDOF 8
ENDMDL
MODEL 6
REMARK VINA RESULT:      -7.2      1.357      1.628
REMARK  Name = 
REMARK  8 active torsions:
REMARK  status: ('A' for Active; 'I' for Inactive)
REMARK    1  A    between atoms: N_1  and  S_2
REMARK    2  A    between atoms: S_2  and  C_5
REMARK    3  A    between atoms: C_9  and  N_10
REMARK    4  A    between atoms: N_11  and  C_12
REMARK    5  A    between atoms: C_15  and  N_16
REMARK    6  A    between atoms: N_16  and  C_17
REMARK    7  A    between atoms: C_17  and  S_18
REMARK    8  A    between atoms: S_18  and  O_21
REMARK                            x       y       z     vdW  Elec       q    Type
REMARK                         _______ _______ _______ _____ _____    ______ ____
ROOT
ATOM      1  N   UNL     1       2.863   7.544  18.336  0.00  0.00    +0.000 NA
ATOM      2  N   UNL     1       2.251   7.334  19.409  0.00  0.00    +0.000 NA
ENDROOT
BRANCH   1   7
ATOM      3  C   UNL     1       5.419   5.200  16.930  0.00  0.00    +0.000 A 
ATOM      4  C   UNL     1       4.739   3.981  17.002  0.00  0.00    +0.000 A 
ATOM      5  C   UNL     1       3.436   3.971  17.491  0.00  0.00    +0.000 A 
ATOM      6  C   UNL     1       2.828   5.165  17.905  0.00  0.00    +0.000 A 
ATOM      7  C   UNL     1       3.513   6.386  17.855  0.00  0.00    +0.000 A 
ATOM      8  C   UNL     1       4.827   6.386  17.378  0.00  0.00    +0.000 A 
BRANCH   3   9
ATOM      9  S   UNL     1       7.041   5.286  16.242  0.00  0.00    +0.000 S 
ATOM     10  O   UNL     1       6.951   5.389  14.803  0.00  0.00    +0.000 OA
ATOM     11  O   UNL     1       7.888   4.320  16.898  0.00  0.00    +0.000 OA
BRANCH   9  12
ATOM     12  N   UNL     1       7.536   6.791  16.808  0.00  0.00    +0.000 NA
ATOM     13  H   UNL     1       6.861   7.504  16.528  0.00  0.00    +0.000 HD
ATOM     14  H   UNL     1       8.491   6.997  16.516  0.00  0.00    +0.000 HD
ENDBRANCH   9  12
ENDBRANCH   3   9
ENDBRANCH   1   7
BRANCH   2  15
ATOM     15  C   UNL     1       1.544   8.475  19.859  0.00  0.00    +0.000 A 
ATOM     16  C   UNL     1       1.120   8.500  21.191  0.00  0.00    +0.000 A 
ATOM     17  C   UNL     1       0.418   9.604  21.703  0.00  0.00    +0.000 A 
ATOM     18  C   UNL     1       0.159  10.732  20.918  0.00  0.00    +0.000 A 
ATOM     19  C   UNL     1       0.573  10.697  19.578  0.00  0.00    +0.000 A 
ATOM     20  C   UNL     1       1.267   9.588  19.058  0.00  0.00    +0.000 A 
BRANCH  18  21
ATOM     21  N   UNL     1      -0.617  11.760  21.459  0.00  0.00    +0.000 N 
ATOM     22  H   UNL     1      -1.365  12.046  20.829  0.00  0.00    +0.000 HD
BRANCH  21  23
ATOM     23  C   UNL     1      -1.116  11.626  22.848  0.00  0.00    +0.000 C 
BRANCH  23  24
ATOM     24  S   UNL     1      -2.644  12.570  23.252  0.00  0.00    +0.000 S 
ATOM     25  O   UNL     1      -3.567  11.705  23.957  0.00  0.00    +0.000 OA
ATOM     26  O   UNL     1      -2.305  13.890  23.728  0.00  0.00    +0.000 OA
BRANCH  24  27
ATOM     27  O   UNL     1      -3.250  12.712  21.759  0.00  0.00    +0.000 OA
ATOM     28  H   UNL     1      -2.786  13.446  21.305  0.00  0.00    +0.000 HD
ENDBRANCH  24  27
ENDBRANCH  23  24
ENDBRANCH  21  23
ENDBRANCH  18  21
ENDBRANCH   2  15
TORSDOF 8
ENDMDL
MODEL 7
REMARK VINA RESULT:      -7.1      0.908      1.727
REMARK  Name = 
REMARK  8 active torsions:
REMARK  status: ('A' for Active; 'I' for Inactive)
REMARK    1  A    between atoms: N_1  and  S_2
REMARK    2  A    between atoms: S_2  and  C_5
REMARK    3  A    between atoms: C_9  and  N_10
REMARK    4  A    between atoms: N_11  and  C_12
REMARK    5  A    between atoms: C_15  and  N_16
REMARK    6  A    between atoms: N_16  and  C_17
REMARK    7  A    between atoms: C_17  and  S_18
REMARK    8  A    between atoms: S_18  and  O_21
REMARK                            x       y       z     vdW  Elec       q    Type
REMARK                         _______ _______ _______ _____ _____    ______ ____
ROOT
ATOM      1  N   UNL     1       2.639   6.819  18.836  0.00  0.00    +0.000 NA
ATOM      2  N   UNL     1       2.582   7.865  18.148  0.00  0.00    +0.000 NA
ENDROOT
BRANCH   1   7
ATOM      3  C   UNL     1       5.567   4.846  17.596  0.00  0.00    +0.000 A 
ATOM      4  C   UNL     1       4.932   3.719  17.068  0.00  0.00    +0.000 A 
ATOM      5  C   UNL     1       3.542   3.653  17.113  0.00  0.00    +0.000 A 
ATOM      6  C   UNL     1       2.804   4.700  17.682  0.00  0.00    +0.000 A 
ATOM      7  C   UNL     1       3.437   5.823  18.231  0.00  0.00    +0.000 A 
ATOM      8  C   UNL     1       4.833   5.875  18.197  0.00  0.00    +0.000 A 
BRANCH   3   9
ATOM      9  S   UNL     1       7.319   5.023  17.492  0.00  0.00    +0.000 S 
ATOM     10  O   UNL     1       7.835   4.139  16.470  0.00  0.00    +0.000 OA
ATOM     11  O   UNL     1       7.871   5.073  18.824  0.00  0.00    +0.000 OA
BRANCH   9  12
ATOM     12  N   UNL     1       7.436   6.588  16.887  0.00  0.00    +0.000 NA
ATOM     13  H   UNL     1       6.630   6.790  16.294  0.00  0.00    +0.000 HD
ATOM     14  H   UNL     1       8.330   6.736  16.422  0.00  0.00    +0.000 HD
ENDBRANCH   9  12
ENDBRANCH   3   9
ENDBRANCH   1   7
BRANCH   2  15
ATOM     15  C   UNL     1       1.838   8.889  18.782  0.00  0.00    +0.000 A 
ATOM     16  C   UNL     1       1.607  10.069  18.069  0.00  0.00    +0.000 A 
ATOM     17  C   UNL     1       0.871  11.122  18.638  0.00  0.00    +0.000 A 
ATOM     18  C   UNL     1       0.306  11.012  19.913  0.00  0.00    +0.000 A 
ATOM     19  C   UNL     1       0.553   9.832  20.631  0.00  0.00    +0.000 A 
ATOM     20  C   UNL     1       1.299   8.779  20.068  0.00  0.00    +0.000 A 
BRANCH  18  21
ATOM     21  N   UNL     1      -0.340  12.124  20.457  0.00  0.00    +0.000 N 
ATOM     22  H   UNL     1      -0.410  12.891  19.789  0.00  0.00    +0.000 HD
BRANCH  21  23
ATOM     23  C   UNL     1      -1.622  11.928  21.174  0.00  0.00    +0.000 C 
BRANCH  23  24
ATOM     24  S   UNL     1      -1.527  11.931  23.013  0.00  0.00    +0.000 S 
ATOM     25  O   UNL     1      -0.981  10.668  23.464  0.00  0.00    +0.000 OA
ATOM     26  O   UNL     1      -1.030  13.200  23.486  0.00  0.00    +0.000 OA
BRANCH  24  27
ATOM     27  O   UNL     1      -3.109  11.853  23.343  0.00  0.00    +0.000 OA
ATOM     28  H   UNL     1      -3.600  12.264  22.602  0.00  0.00    +0.000 HD
ENDBRANCH  24  27
ENDBRANCH  23  24
ENDBRANCH  21  23
ENDBRANCH  18  21
ENDBRANCH   2  15
TORSDOF 8
ENDMDL
MODEL 8
REMARK VINA RESULT:      -7.1      2.264      9.231
REMARK  Name = 
REMARK  8 active torsions:
REMARK  status: ('A' for Active; 'I' for Inactive)
REMARK    1  A    between atoms: N_1  and  S_2
REMARK    2  A    between atoms: S_2  and  C_5
REMARK    3  A    between atoms: C_9  and  N_10
REMARK    4  A    between atoms: N_11  and  C_12
REMARK    5  A    between atoms: C_15  and  N_16
REMARK    6  A    between atoms: N_16  and  C_17
REMARK    7  A    between atoms: C_17  and  S_18
REMARK    8  A    between atoms: S_18  and  O_21
REMARK                            x       y       z     vdW  Elec       q    Type
REMARK                         _______ _______ _______ _____ _____    ______ ____
ROOT
ATOM      1  N   UNL     1       1.124   8.344  20.853  0.00  0.00    +0.000 NA
ATOM      2  N   UNL     1       1.558   8.587  19.703  0.00  0.00    +0.000 NA
ENDROOT
BRANCH   1   7
ATOM      3  C   UNL     1      -0.975  11.430  21.119  0.00  0.00    +0.000 A 
ATOM      4  C   UNL     1      -1.342  11.395  22.466  0.00  0.00    +0.000 A 
ATOM      5  C   UNL     1      -0.861  10.359  23.262  0.00  0.00    +0.000 A 
ATOM      6  C   UNL     1      -0.029   9.374  22.713  0.00  0.00    +0.000 A 
ATOM      7  C   UNL     1       0.325   9.394  21.357  0.00  0.00    +0.000 A 
ATOM      8  C   UNL     1      -0.175  10.428  20.560  0.00  0.00    +0.000 A 
BRANCH   3   9
ATOM      9  S   UNL     1      -1.485  12.763  20.082  0.00  0.00    +0.000 S 
ATOM     10  O   UNL     1      -0.567  13.870  20.230  0.00  0.00    +0.000 OA
ATOM     11  O   UNL     1      -2.915  12.924  20.184  0.00  0.00    +0.000 OA
BRANCH   9  12
ATOM     12  N   UNL     1      -1.205  12.097  18.563  0.00  0.00    +0.000 NA
ATOM     13  H   UNL     1      -0.204  11.940  18.435  0.00  0.00    +0.000 HD
ATOM     14  H   UNL     1      -1.625  12.666  17.829  0.00  0.00    +0.000 HD
ENDBRANCH   9  12
ENDBRANCH   3   9
ENDBRANCH   1   7
BRANCH   2  15
ATOM     15  C   UNL     1       2.304   7.510  19.168  0.00  0.00    +0.000 A 
ATOM     16  C   UNL     1       2.296   6.297  19.862  0.00  0.00    +0.000 A 
ATOM     17  C   UNL     1       3.010   5.187  19.382  0.00  0.00    +0.000 A 
ATOM     18  C   UNL     1       3.716   5.239  18.175  0.00  0.00    +0.000 A 
ATOM     19  C   UNL     1       3.735   6.463  17.489  0.00  0.00    +0.000 A 
ATOM     20  C   UNL     1       3.028   7.581  17.972  0.00  0.00    +0.000 A 
BRANCH  18  21
ATOM     21  N   UNL     1       4.476   4.131  17.796  0.00  0.00    +0.000 N 
ATOM     22  H   UNL     1       3.912   3.422  17.329  0.00  0.00    +0.000 HD
BRANCH  21  23
ATOM     23  C   UNL     1       5.753   4.351  17.076  0.00  0.00    +0.000 C 
BRANCH  23  24
ATOM     24  S   UNL     1       7.120   5.091  18.063  0.00  0.00    +0.000 S 
ATOM     25  O   UNL     1       7.509   6.352  17.468  0.00  0.00    +0.000 OA
ATOM     26  O   UNL     1       6.850   4.952  19.473  0.00  0.00    +0.000 OA
BRANCH  24  27
ATOM     27  O   UNL     1       8.299   4.054  17.671  0.00  0.00    +0.000 OA
ATOM     28  H   UNL     1       9.152   4.535  17.686  0.00  0.00    +0.000 HD
ENDBRANCH  24  27
ENDBRANCH  23  24
ENDBRANCH  21  23
ENDBRANCH  18  21
ENDBRANCH   2  15
TORSDOF 8
ENDMDL
MODEL 9
REMARK VINA RESULT:      -7.1      1.624      9.533
REMARK  Name = 
REMARK  8 active torsions:
REMARK  status: ('A' for Active; 'I' for Inactive)
REMARK    1  A    between atoms: N_1  and  S_2
REMARK    2  A    between atoms: S_2  and  C_5
REMARK    3  A    between atoms: C_9  and  N_10
REMARK    4  A    between atoms: N_11  and  C_12
REMARK    5  A    between atoms: C_15  and  N_16
REMARK    6  A    between atoms: N_16  and  C_17
REMARK    7  A    between atoms: C_17  and  S_18
REMARK    8  A    between atoms: S_18  and  O_21
REMARK                            x       y       z     vdW  Elec       q    Type
REMARK                         _______ _______ _______ _____ _____    ______ ____
ROOT
ATOM      1  N   UNL     1       1.032   9.240  18.821  0.00  0.00    +0.000 NA
ATOM      2  N   UNL     1       1.405   8.468  19.734  0.00  0.00    +0.000 NA
ENDROOT
BRANCH   1   7
ATOM      3  C   UNL     1      -0.813  11.578  21.088  0.00  0.00    +0.000 A 
ATOM      4  C   UNL     1      -1.288  12.523  20.176  0.00  0.00    +0.000 A 
ATOM      5  C   UNL     1      -1.007  12.347  18.824  0.00  0.00    +0.000 A 
ATOM      6  C   UNL     1      -0.257  11.243  18.397  0.00  0.00    +0.000 A 
ATOM      7  C   UNL     1       0.240  10.303  19.310  0.00  0.00    +0.000 A 
ATOM      8  C   UNL     1      -0.033  10.495  20.668  0.00  0.00    +0.000 A 
BRANCH   3   9
ATOM      9  S   UNL     1      -1.209  11.703  22.803  0.00  0.00    +0.000 S 
ATOM     10  O   UNL     1      -0.493  10.686  23.540  0.00  0.00    +0.000 OA
ATOM     11  O   UNL     1      -2.629  11.912  22.949  0.00  0.00    +0.000 OA
BRANCH   9  12
ATOM     12  N   UNL     1      -0.486  13.175  23.179  0.00  0.00    +0.000 NA
ATOM     13  H   UNL     1      -0.419  13.277  24.192  0.00  0.00    +0.000 HD
ATOM     14  H   UNL     1      -0.969  13.948  22.723  0.00  0.00    +0.000 HD
ENDBRANCH   9  12
ENDBRANCH   3   9
ENDBRANCH   1   7
BRANCH   2  15
ATOM     15  C   UNL     1       2.254   7.440  19.258  0.00  0.00    +0.000 A 
ATOM     16  C   UNL     1       2.921   7.647  18.048  0.00  0.00    +0.000 A 
ATOM     17  C   UNL     1       3.782   6.669  17.523  0.00  0.00    +0.000 A 
ATOM     18  C   UNL     1       4.039   5.478  18.209  0.00  0.00    +0.000 A 
ATOM     19  C   UNL     1       3.356   5.267  19.416  0.00  0.00    +0.000 A 
ATOM     20  C   UNL     1       2.484   6.240  19.941  0.00  0.00    +0.000 A 
BRANCH  18  21
ATOM     21  N   UNL     1       4.836   4.510  17.595  0.00  0.00    +0.000 N 
ATOM     22  H   UNL     1       4.387   3.595  17.585  0.00  0.00    +0.000 HD
BRANCH  21  23
ATOM     23  C   UNL     1       5.447   4.814  16.279  0.00  0.00    +0.000 C 
BRANCH  23  24
ATOM     24  S   UNL     1       7.206   5.356  16.311  0.00  0.00    +0.000 S 
ATOM     25  O   UNL     1       7.266   6.766  16.636  0.00  0.00    +0.000 OA
ATOM     26  O   UNL     1       8.019   4.373  16.985  0.00  0.00    +0.000 OA
BRANCH  24  27
ATOM     27  O   UNL     1       7.521   5.271  14.727  0.00  0.00    +0.000 OA
ATOM     28  H   UNL     1       8.478   5.437  14.592  0.00  0.00    +0.000 HD
ENDBRANCH  24  27
ENDBRANCH  23  24
ENDBRANCH  21  23
ENDBRANCH  18  21
ENDBRANCH   2  15
TORSDOF 8
ENDMDL
