MODEL 1
REMARK VINA RESULT:      -6.5      0.000      0.000
REMARK  Name = 
REMARK  11 active torsions:
REMARK  status: ('A' for Active; 'I' for Inactive)
REMARK    1  A    between atoms: C_1  and  C_2
REMARK    2  A    between atoms: C_2  and  C_3
REMARK    3  A    between atoms: C_2  and  C_4
REMARK    4  A    between atoms: C_8  and  C_9
REMARK    5  A    between atoms: N_12  and  C_13
REMARK    6  A    between atoms: C_15  and  N_16
REMARK    7  A    between atoms: C_17  and  O_19
REMARK    8  A    between atoms: O_19  and  C_20
REMARK    9  A    between atoms: C_20  and  C_21
REMARK   10  A    between atoms: C_20  and  C_22
REMARK   11  A    between atoms: C_20  and  C_23
REMARK                            x       y       z     vdW  Elec       q    Type
REMARK                         _______ _______ _______ _____ _____    ______ ____
ROOT
ATOM      1  C   UNL     1       2.500   3.503  19.444  0.00  0.00    +0.000 C 
ATOM      2  O   UNL     1       2.425   2.628  18.580  0.00  0.00    +0.000 OA
ATOM      3  N   UNL     1       2.321   4.842  19.143  0.00  0.00    +0.000 N 
ATOM      4  C   UNL     1       2.010   5.309  17.801  0.00  0.00    +0.000 C 
ATOM      5  C   UNL     1       2.886   6.557  17.614  0.00  0.00    +0.000 C 
ATOM      6  C   UNL     1       2.866   7.177  19.031  0.00  0.00    +0.000 C 
ATOM      7  C   UNL     1       2.794   5.947  19.966  0.00  0.00    +0.000 C 
ENDROOT
BRANCH   5   8
ATOM      8  C   UNL     1       4.287   6.239  17.148  0.00  0.00    +0.000 A 
ATOM      9  C   UNL     1       5.414   7.097  17.137  0.00  0.00    +0.000 A 
ATOM     10  N   UNL     1       6.516   6.506  16.672  0.00  0.00    +0.000 NA
ATOM     11  N   UNL     1       6.105   5.263  16.367  0.00  0.00    +0.000 N 
ATOM     12  C   UNL     1       7.031   4.288  15.843  0.00  0.00    +0.000 C 
ATOM     13  C   UNL     1       4.783   5.057  16.624  0.00  0.00    +0.000 A 
ENDBRANCH   5   8
BRANCH   6  14
ATOM     14  N   UNL     1       1.757   8.107  19.253  0.00  0.00    +0.000 N 
ATOM     15  C   UNL     1       1.547   9.127  18.368  0.00  0.00    +0.000 C 
ATOM     16  O   UNL     1       2.278   9.337  17.408  0.00  0.00    +0.000 OA
ATOM     17  H   UNL     1       1.064   7.971  19.979  0.00  0.00    +0.000 HD
BRANCH  15  18
ATOM     18  O   UNL     1       0.457   9.854  18.720  0.00  0.00    +0.000 OA
BRANCH  18  19
ATOM     19  C   UNL     1       0.660  11.172  19.304  0.00  0.00    +0.000 C 
ATOM     20  C   UNL     1       1.826  11.916  18.638  0.00  0.00    +0.000 C 
ATOM     21  C   UNL     1      -0.627  11.968  19.028  0.00  0.00    +0.000 C 
ATOM     22  C   UNL     1       0.833  11.070  20.827  0.00  0.00    +0.000 C 
ENDBRANCH  18  19
ENDBRANCH  15  18
ENDBRANCH   6  14
BRANCH   1  24
ATOM     23  C   UNL     1       1.336   2.679  21.471  0.00  0.00    +0.000 C 
ATOM     24  C   UNL     1       2.682   3.155  20.927  0.00  0.00    +0.000 C 
ATOM     25  C   UNL     1       3.755   2.093  21.155  0.00  0.00    +0.000 C 
ENDBRANCH   1  24
TORSDOF 5
ENDMDL
MODEL 2
REMARK VINA RESULT:      -6.5      3.378      6.970
REMARK  Name = 
REMARK  11 active torsions:
REMARK  status: ('A' for Active; 'I' for Inactive)
REMARK    1  A    between atoms: C_1  and  C_2
REMARK    2  A    between atoms: C_2  and  C_3
REMARK    3  A    between atoms: C_2  and  C_4
REMARK    4  A    between atoms: C_8  and  C_9
REMARK    5  A    between atoms: N_12  and  C_13
REMARK    6  A    between atoms: C_15  and  N_16
REMARK    7  A    between atoms: C_17  and  O_19
REMARK    8  A    between atoms: O_19  and  C_20
REMARK    9  A    between atoms: C_20  and  C_21
REMARK   10  A    between atoms: C_20  and  C_22
REMARK   11  A    between atoms: C_20  and  C_23
REMARK                            x       y       z     vdW  Elec       q    Type
REMARK                         _______ _______ _______ _____ _____    ______ ____
ROOT
ATOM      1  C   UNL     1       3.773   5.078  19.383  0.00  0.00    +0.000 C 
ATOM      2  O   UNL     1       4.198   4.866  20.520  0.00  0.00    +0.000 OA
ATOM      3  N   UNL     1       4.500   4.734  18.257  0.00  0.00    +0.000 N 
ATOM      4  C   UNL     1       5.797   4.079  18.331  0.00  0.00    +0.000 C 
ATOM      5  C   UNL     1       6.650   4.789  17.270  0.00  0.00    +0.000 C 
ATOM      6  C   UNL     1       5.613   5.060  16.155  0.00  0.00    +0.000 C 
ATOM      7  C   UNL     1       4.298   5.304  16.933  0.00  0.00    +0.000 C 
ENDROOT
BRANCH   5   8
ATOM      8  C   UNL     1       7.294   6.059  17.773  0.00  0.00    +0.000 A 
ATOM      9  C   UNL     1       8.079   6.232  18.939  0.00  0.00    +0.000 A 
ATOM     10  N   UNL     1       8.513   7.483  19.097  0.00  0.00    +0.000 NA
ATOM     11  N   UNL     1       7.999   8.133  18.038  0.00  0.00    +0.000 N 
ATOM     12  C   UNL     1       8.264   9.536  17.834  0.00  0.00    +0.000 C 
ATOM     13  C   UNL     1       7.257   7.330  17.224  0.00  0.00    +0.000 A 
ENDBRANCH   5   8
BRANCH   6  14
ATOM     14  N   UNL     1       5.488   3.969  15.186  0.00  0.00    +0.000 N 
ATOM     15  C   UNL     1       6.317   3.937  14.100  0.00  0.00    +0.000 C 
ATOM     16  O   UNL     1       7.141   4.811  13.864  0.00  0.00    +0.000 OA
ATOM     17  H   UNL     1       4.884   3.170  15.334  0.00  0.00    +0.000 HD
BRANCH  15  18
ATOM     18  O   UNL     1       6.077   2.837  13.343  0.00  0.00    +0.000 OA
BRANCH  18  19
ATOM     19  C   UNL     1       5.995   2.993  11.897  0.00  0.00    +0.000 C 
ATOM     20  C   UNL     1       6.191   1.655  11.169  0.00  0.00    +0.000 C 
ATOM     21  C   UNL     1       4.571   3.489  11.598  0.00  0.00    +0.000 C 
ATOM     22  C   UNL     1       6.980   4.066  11.410  0.00  0.00    +0.000 C 
ENDBRANCH  18  19
ENDBRANCH  15  18
ENDBRANCH   6  14
BRANCH   1  24
ATOM     23  C   UNL     1       1.368   4.735  19.874  0.00  0.00    +0.000 C 
ATOM     24  C   UNL     1       2.363   5.633  19.141  0.00  0.00    +0.000 C 
ATOM     25  C   UNL     1       2.214   7.082  19.602  0.00  0.00    +0.000 C 
ENDBRANCH   1  24
TORSDOF 5
ENDMDL
MODEL 3
REMARK VINA RESULT:      -6.3      4.135      6.539
REMARK  Name = 
REMARK  11 active torsions:
REMARK  status: ('A' for Active; 'I' for Inactive)
REMARK    1  A    between atoms: C_1  and  C_2
REMARK    2  A    between atoms: C_2  and  C_3
REMARK    3  A    between atoms: C_2  and  C_4
REMARK    4  A    between atoms: C_8  and  C_9
REMARK    5  A    between atoms: N_12  and  C_13
REMARK    6  A    between atoms: C_15  and  N_16
REMARK    7  A    between atoms: C_17  and  O_19
REMARK    8  A    between atoms: O_19  and  C_20
REMARK    9  A    between atoms: C_20  and  C_21
REMARK   10  A    between atoms: C_20  and  C_22
REMARK   11  A    between atoms: C_20  and  C_23
REMARK                            x       y       z     vdW  Elec       q    Type
REMARK                         _______ _______ _______ _____ _____    ______ ____
ROOT
ATOM      1  C   UNL     1       5.782   5.195  14.300  0.00  0.00    +0.000 C 
ATOM      2  O   UNL     1       5.609   6.325  13.839  0.00  0.00    +0.000 OA
ATOM      3  N   UNL     1       5.306   4.837  15.549  0.00  0.00    +0.000 N 
ATOM      4  C   UNL     1       4.553   5.751  16.393  0.00  0.00    +0.000 C 
ATOM      5  C   UNL     1       5.121   5.532  17.803  0.00  0.00    +0.000 C 
ATOM      6  C   UNL     1       5.403   4.011  17.801  0.00  0.00    +0.000 C 
ATOM      7  C   UNL     1       5.804   3.717  16.336  0.00  0.00    +0.000 C 
ENDROOT
BRANCH   5   8
ATOM      8  C   UNL     1       6.363   6.344  18.080  0.00  0.00    +0.000 A 
ATOM      9  C   UNL     1       7.491   5.970  18.851  0.00  0.00    +0.000 A 
ATOM     10  N   UNL     1       8.432   6.915  18.893  0.00  0.00    +0.000 NA
ATOM     11  N   UNL     1       7.912   7.913  18.158  0.00  0.00    +0.000 N 
ATOM     12  C   UNL     1       8.652   9.133  17.943  0.00  0.00    +0.000 C 
ATOM     13  C   UNL     1       6.676   7.626  17.660  0.00  0.00    +0.000 A 
ENDBRANCH   5   8
BRANCH   6  14
ATOM     14  N   UNL     1       4.266   3.198  18.237  0.00  0.00    +0.000 N 
ATOM     15  C   UNL     1       4.210   2.757  19.529  0.00  0.00    +0.000 C 
ATOM     16  O   UNL     1       5.099   2.969  20.344  0.00  0.00    +0.000 OA
ATOM     17  H   UNL     1       3.455   3.031  17.653  0.00  0.00    +0.000 HD
BRANCH  15  18
ATOM     18  O   UNL     1       3.070   2.057  19.751  0.00  0.00    +0.000 OA
BRANCH  18  19
ATOM     19  C   UNL     1       1.848   2.794  20.044  0.00  0.00    +0.000 C 
ATOM     20  C   UNL     1       0.689   2.355  19.138  0.00  0.00    +0.000 C 
ATOM     21  C   UNL     1       1.473   2.446  21.494  0.00  0.00    +0.000 C 
ATOM     22  C   UNL     1       2.097   4.308  19.972  0.00  0.00    +0.000 C 
ENDBRANCH  18  19
ENDBRANCH  15  18
ENDBRANCH   6  14
BRANCH   1  24
ATOM     23  C   UNL     1       5.351   3.435  12.609  0.00  0.00    +0.000 C 
ATOM     24  C   UNL     1       6.433   4.080  13.472  0.00  0.00    +0.000 C 
ATOM     25  C   UNL     1       7.579   4.589  12.598  0.00  0.00    +0.000 C 
ENDBRANCH   1  24
TORSDOF 5
ENDMDL
MODEL 4
REMARK VINA RESULT:      -6.2      2.958      7.913
REMARK  Name = 
REMARK  11 active torsions:
REMARK  status: ('A' for Active; 'I' for Inactive)
REMARK    1  A    between atoms: C_1  and  C_2
REMARK    2  A    between atoms: C_2  and  C_3
REMARK    3  A    between atoms: C_2  and  C_4
REMARK    4  A    between atoms: C_8  and  C_9
REMARK    5  A    between atoms: N_12  and  C_13
REMARK    6  A    between atoms: C_15  and  N_16
REMARK    7  A    between atoms: C_17  and  O_19
REMARK    8  A    between atoms: O_19  and  C_20
REMARK    9  A    between atoms: C_20  and  C_21
REMARK   10  A    between atoms: C_20  and  C_22
REMARK   11  A    between atoms: C_20  and  C_23
REMARK                            x       y       z     vdW  Elec       q    Type
REMARK                         _______ _______ _______ _____ _____    ______ ____
ROOT
ATOM      1  C   UNL     1      -2.373  11.246  18.634  0.00  0.00    +0.000 C 
ATOM      2  O   UNL     1      -2.925  12.173  19.229  0.00  0.00    +0.000 OA
ATOM      3  N   UNL     1      -1.205  10.672  19.102  0.00  0.00    +0.000 N 
ATOM      4  C   UNL     1      -0.560  11.101  20.333  0.00  0.00    +0.000 C 
ATOM      5  C   UNL     1       0.938  11.137  19.993  0.00  0.00    +0.000 C 
ATOM      6  C   UNL     1       1.077   9.929  19.037  0.00  0.00    +0.000 C 
ATOM      7  C   UNL     1      -0.277   9.899  18.288  0.00  0.00    +0.000 C 
ENDROOT
BRANCH   5   8
ATOM      8  C   UNL     1       1.373  12.431  19.348  0.00  0.00    +0.000 A 
ATOM      9  C   UNL     1       2.381  12.618  18.371  0.00  0.00    +0.000 A 
ATOM     10  N   UNL     1       2.515  13.892  17.995  0.00  0.00    +0.000 NA
ATOM     11  N   UNL     1       1.601  14.539  18.737  0.00  0.00    +0.000 N 
ATOM     12  C   UNL     1       1.418  15.964  18.604  0.00  0.00    +0.000 C 
ATOM     13  C   UNL     1       0.901  13.715  19.567  0.00  0.00    +0.000 A 
ENDBRANCH   5   8
BRANCH   6  14
ATOM     14  N   UNL     1       1.361   8.665  19.719  0.00  0.00    +0.000 N 
ATOM     15  C   UNL     1       2.240   7.781  19.158  0.00  0.00    +0.000 C 
ATOM     16  O   UNL     1       2.775   7.972  18.073  0.00  0.00    +0.000 OA
ATOM     17  H   UNL     1       1.018   8.454  20.648  0.00  0.00    +0.000 HD
BRANCH  15  18
ATOM     18  O   UNL     1       2.401   6.693  19.951  0.00  0.00    +0.000 OA
BRANCH  18  19
ATOM     19  C   UNL     1       2.863   5.452  19.343  0.00  0.00    +0.000 C 
ATOM     20  C   UNL     1       4.372   5.484  19.062  0.00  0.00    +0.000 C 
ATOM     21  C   UNL     1       2.597   4.343  20.375  0.00  0.00    +0.000 C 
ATOM     22  C   UNL     1       2.046   5.128  18.084  0.00  0.00    +0.000 C 
ENDBRANCH  18  19
ENDBRANCH  15  18
ENDBRANCH   6  14
BRANCH   1  24
ATOM     23  C   UNL     1      -4.525  10.637  17.564  0.00  0.00    +0.000 C 
ATOM     24  C   UNL     1      -3.008  10.592  17.399  0.00  0.00    +0.000 C 
ATOM     25  C   UNL     1      -2.593  11.271  16.095  0.00  0.00    +0.000 C 
ENDBRANCH   1  24
TORSDOF 5
ENDMDL
MODEL 5
REMARK VINA RESULT:      -6.1      3.432      7.089
REMARK  Name = 
REMARK  11 active torsions:
REMARK  status: ('A' for Active; 'I' for Inactive)
REMARK    1  A    between atoms: C_1  and  C_2
REMARK    2  A    between atoms: C_2  and  C_3
REMARK    3  A    between atoms: C_2  and  C_4
REMARK    4  A    between atoms: C_8  and  C_9
REMARK    5  A    between atoms: N_12  and  C_13
REMARK    6  A    between atoms: C_15  and  N_16
REMARK    7  A    between atoms: C_17  and  O_19
REMARK    8  A    between atoms: O_19  and  C_20
REMARK    9  A    between atoms: C_20  and  C_21
REMARK   10  A    between atoms: C_20  and  C_22
REMARK   11  A    between atoms: C_20  and  C_23
REMARK                            x       y       z     vdW  Elec       q    Type
REMARK                         _______ _______ _______ _____ _____    ______ ____
ROOT
ATOM      1  C   UNL     1       3.763   5.170  19.172  0.00  0.00    +0.000 C 
ATOM      2  O   UNL     1       4.121   4.991  20.337  0.00  0.00    +0.000 OA
ATOM      3  N   UNL     1       4.560   4.811  18.101  0.00  0.00    +0.000 N 
ATOM      4  C   UNL     1       5.860   4.180  18.268  0.00  0.00    +0.000 C 
ATOM      5  C   UNL     1       6.765   4.880  17.242  0.00  0.00    +0.000 C 
ATOM      6  C   UNL     1       5.792   5.107  16.061  0.00  0.00    +0.000 C 
ATOM      7  C   UNL     1       4.429   5.348  16.753  0.00  0.00    +0.000 C 
ENDROOT
BRANCH   5   8
ATOM      8  C   UNL     1       7.358   6.171  17.752  0.00  0.00    +0.000 A 
ATOM      9  C   UNL     1       8.100   6.376  18.941  0.00  0.00    +0.000 A 
ATOM     10  N   UNL     1       8.495   7.641  19.099  0.00  0.00    +0.000 NA
ATOM     11  N   UNL     1       7.999   8.265  18.018  0.00  0.00    +0.000 N 
ATOM     12  C   UNL     1       8.233   9.674  17.807  0.00  0.00    +0.000 C 
ATOM     13  C   UNL     1       7.305   7.435  17.189  0.00  0.00    +0.000 A 
ENDBRANCH   5   8
BRANCH   6  14
ATOM     14  N   UNL     1       5.742   3.993  15.113  0.00  0.00    +0.000 N 
ATOM     15  C   UNL     1       6.510   4.036  13.983  0.00  0.00    +0.000 C 
ATOM     16  O   UNL     1       7.214   4.995  13.693  0.00  0.00    +0.000 OA
ATOM     17  H   UNL     1       5.242   3.133  15.303  0.00  0.00    +0.000 HD
BRANCH  15  18
ATOM     18  O   UNL     1       6.358   2.903  13.253  0.00  0.00    +0.000 OA
BRANCH  18  19
ATOM     19  C   UNL     1       6.011   3.026  11.844  0.00  0.00    +0.000 C 
ATOM     20  C   UNL     1       6.991   3.940  11.095  0.00  0.00    +0.000 C 
ATOM     21  C   UNL     1       6.131   1.614  11.247  0.00  0.00    +0.000 C 
ATOM     22  C   UNL     1       4.554   3.483  11.682  0.00  0.00    +0.000 C 
ENDBRANCH  18  19
ENDBRANCH  15  18
ENDBRANCH   6  14
BRANCH   1  24
ATOM     23  C   UNL     1       2.510   7.089  18.227  0.00  0.00    +0.000 C 
ATOM     24  C   UNL     1       2.361   5.696  18.834  0.00  0.00    +0.000 C 
ATOM     25  C   UNL     1       1.602   4.776  17.880  0.00  0.00    +0.000 C 
ENDBRANCH   1  24
TORSDOF 5
ENDMDL
MODEL 6
REMARK VINA RESULT:      -6.1      0.801      1.038
REMARK  Name = 
REMARK  11 active torsions:
REMARK  status: ('A' for Active; 'I' for Inactive)
REMARK    1  A    between atoms: C_1  and  C_2
REMARK    2  A    between atoms: C_2  and  C_3
REMARK    3  A    between atoms: C_2  and  C_4
REMARK    4  A    between atoms: C_8  and  C_9
REMARK    5  A    between atoms: N_12  and  C_13
REMARK    6  A    between atoms: C_15  and  N_16
REMARK    7  A    between atoms: C_17  and  O_19
REMARK    8  A    between atoms: O_19  and  C_20
REMARK    9  A    between atoms: C_20  and  C_21
REMARK   10  A    between atoms: C_20  and  C_22
REMARK   11  A    between atoms: C_20  and  C_23
REMARK                            x       y       z     vdW  Elec       q    Type
REMARK                         _______ _______ _______ _____ _____    ______ ____
ROOT
ATOM      1  C   UNL     1       2.770   3.229  19.508  0.00  0.00    +0.000 C 
ATOM      2  O   UNL     1       2.584   2.414  18.603  0.00  0.00    +0.000 OA
ATOM      3  N   UNL     1       2.497   4.575  19.345  0.00  0.00    +0.000 N 
ATOM      4  C   UNL     1       1.951   5.121  18.112  0.00  0.00    +0.000 C 
ATOM      5  C   UNL     1       2.739   6.418  17.881  0.00  0.00    +0.000 C 
ATOM      6  C   UNL     1       2.932   6.936  19.326  0.00  0.00    +0.000 C 
ATOM      7  C   UNL     1       3.060   5.641  20.163  0.00  0.00    +0.000 C 
ENDROOT
BRANCH   5   8
ATOM      8  C   UNL     1       4.054   6.201  17.170  0.00  0.00    +0.000 A 
ATOM      9  C   UNL     1       5.045   7.165  16.864  0.00  0.00    +0.000 A 
ATOM     10  N   UNL     1       6.102   6.647  16.236  0.00  0.00    +0.000 NA
ATOM     11  N   UNL     1       5.794   5.344  16.120  0.00  0.00    +0.000 N 
ATOM     12  C   UNL     1       6.714   4.421  15.500  0.00  0.00    +0.000 C 
ATOM     13  C   UNL     1       4.580   5.029  16.653  0.00  0.00    +0.000 A 
ENDBRANCH   5   8
BRANCH   6  14
ATOM     14  N   UNL     1       1.844   7.794  19.797  0.00  0.00    +0.000 N 
ATOM     15  C   UNL     1       1.576   8.963  19.140  0.00  0.00    +0.000 C 
ATOM     16  O   UNL     1       2.239   9.360  18.191  0.00  0.00    +0.000 OA
ATOM     17  H   UNL     1       1.202   7.514  20.529  0.00  0.00    +0.000 HD
BRANCH  15  18
ATOM     18  O   UNL     1       0.514   9.596  19.698  0.00  0.00    +0.000 OA
BRANCH  18  19
ATOM     19  C   UNL     1      -0.155  10.638  18.930  0.00  0.00    +0.000 C 
ATOM     20  C   UNL     1      -0.825  10.073  17.670  0.00  0.00    +0.000 C 
ATOM     21  C   UNL     1      -1.258  11.203  19.840  0.00  0.00    +0.000 C 
ATOM     22  C   UNL     1       0.818  11.782  18.604  0.00  0.00    +0.000 C 
ENDBRANCH  18  19
ENDBRANCH  15  18
ENDBRANCH   6  14
BRANCH   1  24
ATOM     23  C   UNL     1       1.982   2.240  21.640  0.00  0.00    +0.000 C 
ATOM     24  C   UNL     1       3.208   2.786  20.911  0.00  0.00    +0.000 C 
ATOM     25  C   UNL     1       4.320   1.740  20.878  0.00  0.00    +0.000 C 
ENDBRANCH   1  24
TORSDOF 5
ENDMDL
MODEL 7
REMARK VINA RESULT:      -6.1      1.694      4.325
REMARK  Name = 
REMARK  11 active torsions:
REMARK  status: ('A' for Active; 'I' for Inactive)
REMARK    1  A    between atoms: C_1  and  C_2
REMARK    2  A    between atoms: C_2  and  C_3
REMARK    3  A    between atoms: C_2  and  C_4
REMARK    4  A    between atoms: C_8  and  C_9
REMARK    5  A    between atoms: N_12  and  C_13
REMARK    6  A    between atoms: C_15  and  N_16
REMARK    7  A    between atoms: C_17  and  O_19
REMARK    8  A    between atoms: O_19  and  C_20
REMARK    9  A    between atoms: C_20  and  C_21
REMARK   10  A    between atoms: C_20  and  C_22
REMARK   11  A    between atoms: C_20  and  C_23
REMARK                            x       y       z     vdW  Elec       q    Type
REMARK                         _______ _______ _______ _____ _____    ______ ____
ROOT
ATOM      1  C   UNL     1       5.559   5.042  17.550  0.00  0.00    +0.000 C 
ATOM      2  O   UNL     1       6.197   4.316  18.314  0.00  0.00    +0.000 OA
ATOM      3  N   UNL     1       4.676   5.997  18.019  0.00  0.00    +0.000 N 
ATOM      4  C   UNL     1       4.454   6.231  19.438  0.00  0.00    +0.000 C 
ATOM      5  C   UNL     1       2.934   6.404  19.568  0.00  0.00    +0.000 C 
ATOM      6  C   UNL     1       2.584   7.150  18.258  0.00  0.00    +0.000 C 
ATOM      7  C   UNL     1       3.599   6.586  17.236  0.00  0.00    +0.000 C 
ENDROOT
BRANCH   5   8
ATOM      8  C   UNL     1       2.192   5.095  19.696  0.00  0.00    +0.000 A 
ATOM      9  C   UNL     1       1.738   4.466  20.881  0.00  0.00    +0.000 A 
ATOM     10  N   UNL     1       1.103   3.315  20.652  0.00  0.00    +0.000 NA
ATOM     11  N   UNL     1       1.153   3.186  19.315  0.00  0.00    +0.000 N 
ATOM     12  C   UNL     1       0.544   2.054  18.660  0.00  0.00    +0.000 C 
ATOM     13  C   UNL     1       1.800   4.216  18.700  0.00  0.00    +0.000 A 
ENDBRANCH   5   8
BRANCH   6  14
ATOM     14  N   UNL     1       2.662   8.608  18.370  0.00  0.00    +0.000 N 
ATOM     15  C   UNL     1       1.586   9.369  18.010  0.00  0.00    +0.000 C 
ATOM     16  O   UNL     1       0.558   8.892  17.545  0.00  0.00    +0.000 OA
ATOM     17  H   UNL     1       3.444   9.084  18.805  0.00  0.00    +0.000 HD
BRANCH  15  18
ATOM     18  O   UNL     1       1.835  10.686  18.219  0.00  0.00    +0.000 OA
BRANCH  18  19
ATOM     19  C   UNL     1       1.021  11.401  19.193  0.00  0.00    +0.000 C 
ATOM     20  C   UNL     1       0.789  10.566  20.461  0.00  0.00    +0.000 C 
ATOM     21  C   UNL     1       1.824  12.650  19.590  0.00  0.00    +0.000 C 
ATOM     22  C   UNL     1      -0.297  11.869  18.560  0.00  0.00    +0.000 C 
ENDBRANCH  18  19
ENDBRANCH  15  18
ENDBRANCH   6  14
BRANCH   1  24
ATOM     23  C   UNL     1       7.294   5.095  15.780  0.00  0.00    +0.000 C 
ATOM     24  C   UNL     1       5.790   5.011  16.033  0.00  0.00    +0.000 C 
ATOM     25  C   UNL     1       5.207   3.763  15.374  0.00  0.00    +0.000 C 
ENDBRANCH   1  24
TORSDOF 5
ENDMDL
MODEL 8
REMARK VINA RESULT:      -6.1      5.230      8.765
REMARK  Name = 
REMARK  11 active torsions:
REMARK  status: ('A' for Active; 'I' for Inactive)
REMARK    1  A    between atoms: C_1  and  C_2
REMARK    2  A    between atoms: C_2  and  C_3
REMARK    3  A    between atoms: C_2  and  C_4
REMARK    4  A    between atoms: C_8  and  C_9
REMARK    5  A    between atoms: N_12  and  C_13
REMARK    6  A    between atoms: C_15  and  N_16
REMARK    7  A    between atoms: C_17  and  O_19
REMARK    8  A    between atoms: O_19  and  C_20
REMARK    9  A    between atoms: C_20  and  C_21
REMARK   10  A    between atoms: C_20  and  C_22
REMARK   11  A    between atoms: C_20  and  C_23
REMARK                            x       y       z     vdW  Elec       q    Type
REMARK                         _______ _______ _______ _____ _____    ______ ____
ROOT
ATOM      1  C   UNL     1       0.996  14.374  19.756  0.00  0.00    +0.000 C 
ATOM      2  O   UNL     1       1.285  14.749  20.893  0.00  0.00    +0.000 OA
ATOM      3  N   UNL     1      -0.174  13.685  19.490  0.00  0.00    +0.000 N 
ATOM      4  C   UNL     1      -1.151  13.374  20.522  0.00  0.00    +0.000 C 
ATOM      5  C   UNL     1      -1.574  11.926  20.230  0.00  0.00    +0.000 C 
ATOM      6  C   UNL     1      -1.553  11.893  18.683  0.00  0.00    +0.000 C 
ATOM      7  C   UNL     1      -0.399  12.856  18.315  0.00  0.00    +0.000 C 
ENDROOT
BRANCH   5   8
ATOM      8  C   UNL     1      -0.648  10.900  20.838  0.00  0.00    +0.000 A 
ATOM      9  C   UNL     1      -0.155  10.852  22.164  0.00  0.00    +0.000 A 
ATOM     10  N   UNL     1       0.639   9.804  22.390  0.00  0.00    +0.000 NA
ATOM     11  N   UNL     1       0.675   9.172  21.204  0.00  0.00    +0.000 N 
ATOM     12  C   UNL     1       1.429   7.953  21.040  0.00  0.00    +0.000 C 
ATOM     13  C   UNL     1      -0.069   9.791  20.244  0.00  0.00    +0.000 A 
ENDBRANCH   5   8
BRANCH   6  14
ATOM     14  N   UNL     1      -2.821  12.286  18.066  0.00  0.00    +0.000 N 
ATOM     15  C   UNL     1      -3.736  11.324  17.739  0.00  0.00    +0.000 C 
ATOM     16  O   UNL     1      -3.528  10.127  17.894  0.00  0.00    +0.000 OA
ATOM     17  H   UNL     1      -3.105  13.252  17.964  0.00  0.00    +0.000 HD
BRANCH  15  18
ATOM     18  O   UNL     1      -4.856  11.883  17.217  0.00  0.00    +0.000 OA
BRANCH  18  19
ATOM     19  C   UNL     1      -6.008  12.073  18.088  0.00  0.00    +0.000 C 
ATOM     20  C   UNL     1      -5.628  12.810  19.379  0.00  0.00    +0.000 C 
ATOM     21  C   UNL     1      -6.994  12.960  17.309  0.00  0.00    +0.000 C 
ATOM     22  C   UNL     1      -6.703  10.732  18.370  0.00  0.00    +0.000 C 
ENDBRANCH  18  19
ENDBRANCH  15  18
ENDBRANCH   6  14
BRANCH   1  24
ATOM     23  C   UNL     1       2.056  16.264  18.552  0.00  0.00    +0.000 C 
ATOM     24  C   UNL     1       1.857  14.750  18.542  0.00  0.00    +0.000 C 
ATOM     25  C   UNL     1       3.207  14.034  18.534  0.00  0.00    +0.000 C 
ENDBRANCH   1  24
TORSDOF 5
ENDMDL
MODEL 9
REMARK VINA RESULT:      -6.0      2.042      4.650
REMARK  Name = 
REMARK  11 active torsions:
REMARK  status: ('A' for Active; 'I' for Inactive)
REMARK    1  A    between atoms: C_1  and  C_2
REMARK    2  A    between atoms: C_2  and  C_3
REMARK    3  A    between atoms: C_2  and  C_4
REMARK    4  A    between atoms: C_8  and  C_9
REMARK    5  A    between atoms: N_12  and  C_13
REMARK    6  A    between atoms: C_15  and  N_16
REMARK    7  A    between atoms: C_17  and  O_19
REMARK    8  A    between atoms: O_19  and  C_20
REMARK    9  A    between atoms: C_20  and  C_21
REMARK   10  A    between atoms: C_20  and  C_22
REMARK   11  A    between atoms: C_20  and  C_23
REMARK                            x       y       z     vdW  Elec       q    Type
REMARK                         _______ _______ _______ _____ _____    ______ ____
ROOT
ATOM      1  C   UNL     1       6.630   5.094  16.094  0.00  0.00    +0.000 C 
ATOM      2  O   UNL     1       7.576   4.508  16.625  0.00  0.00    +0.000 OA
ATOM      3  N   UNL     1       5.742   5.859  16.828  0.00  0.00    +0.000 N 
ATOM      4  C   UNL     1       5.870   6.046  18.266  0.00  0.00    +0.000 C 
ATOM      5  C   UNL     1       4.436   5.918  18.802  0.00  0.00    +0.000 C 
ATOM      6  C   UNL     1       3.612   6.579  17.672  0.00  0.00    +0.000 C 
ATOM      7  C   UNL     1       4.402   6.224  16.389  0.00  0.00    +0.000 C 
ENDROOT
BRANCH   5   8
ATOM      8  C   UNL     1       4.018   4.489  19.054  0.00  0.00    +0.000 A 
ATOM      9  C   UNL     1       4.842   3.392  19.404  0.00  0.00    +0.000 A 
ATOM     10  N   UNL     1       4.161   2.257  19.568  0.00  0.00    +0.000 NA
ATOM     11  N   UNL     1       2.890   2.611  19.312  0.00  0.00    +0.000 N 
ATOM     12  C   UNL     1       1.822   1.645  19.406  0.00  0.00    +0.000 C 
ATOM     13  C   UNL     1       2.754   3.929  18.991  0.00  0.00    +0.000 A 
ENDBRANCH   5   8
BRANCH   6  14
ATOM     14  N   UNL     1       3.441   8.024  17.833  0.00  0.00    +0.000 N 
ATOM     15  C   UNL     1       2.184   8.561  17.795  0.00  0.00    +0.000 C 
ATOM     16  O   UNL     1       1.181   7.892  17.582  0.00  0.00    +0.000 OA
ATOM     17  H   UNL     1       4.204   8.643  18.080  0.00  0.00    +0.000 HD
BRANCH  15  18
ATOM     18  O   UNL     1       2.226   9.901  18.001  0.00  0.00    +0.000 OA
BRANCH  18  19
ATOM     19  C   UNL     1       1.171  10.515  18.796  0.00  0.00    +0.000 C 
ATOM     20  C   UNL     1      -0.207  10.344  18.140  0.00  0.00    +0.000 C 
ATOM     21  C   UNL     1       1.152   9.764  20.138  0.00  0.00    +0.000 C 
ATOM     22  C   UNL     1       1.496  11.987  19.085  0.00  0.00    +0.000 C 
ENDBRANCH  18  19
ENDBRANCH  15  18
ENDBRANCH   6  14
BRANCH   1  24
ATOM     23  C   UNL     1       7.816   5.312  13.928  0.00  0.00    +0.000 C 
ATOM     24  C   UNL     1       6.446   5.107  14.571  0.00  0.00    +0.000 C 
ATOM     25  C   UNL     1       5.797   3.827  14.046  0.00  0.00    +0.000 C 
ENDBRANCH   1  24
TORSDOF 5
ENDMDL
