MODEL 1
REMARK VINA RESULT:      -8.4      0.000      0.000
REMARK  Name = 
REMARK  9 active torsions:
REMARK  status: ('A' for Active; 'I' for Inactive)
REMARK    1  A    between atoms: C_1  and  C_2
REMARK    2  A    between atoms: C_5  and  C_6
REMARK    3  A    between atoms: N_8  and  C_9
REMARK    4  A    between atoms: N_8  and  C_15
REMARK    5  A    between atoms: N_18  and  C_19
REMARK    6  A    between atoms: C_19  and  C_20
REMARK    7  A    between atoms: C_20  and  C_21
REMARK    8  A    between atoms: C_21  and  C_22
REMARK    9  A    between atoms: C_21  and  C_23
REMARK                            x       y       z     vdW  Elec       q    Type
REMARK                         _______ _______ _______ _____ _____    ______ ____
ROOT
ATOM      1  C   UNL     1       2.432   5.893  19.158  0.00  0.00    +0.000 C 
ATOM      2  O   UNL     1       1.494   5.152  19.468  0.00  0.00    +0.000 OA
ATOM      3  N   UNL     1       3.733   5.419  18.869  0.00  0.00    +0.000 N 
ENDROOT
BRANCH   1   8
ATOM      4  C   UNL     1       0.537  11.343  18.898  0.00  0.00    +0.000 C 
ATOM      5  C   UNL     1       1.190   9.996  19.011  0.00  0.00    +0.000 A 
ATOM      6  C   UNL     1       1.671   9.344  17.871  0.00  0.00    +0.000 A 
ATOM      7  C   UNL     1       2.127   8.026  17.953  0.00  0.00    +0.000 A 
ATOM      8  C   UNL     1       2.112   7.344  19.180  0.00  0.00    +0.000 A 
ATOM      9  C   UNL     1       1.769   8.037  20.344  0.00  0.00    +0.000 A 
ATOM     10  C   UNL     1       1.257   9.339  20.248  0.00  0.00    +0.000 A 
ENDBRANCH   1   8
BRANCH   3  11
ATOM     11  C   UNL     1       3.859   3.983  18.790  0.00  0.00    +0.000 A 
ATOM     12  C   UNL     1       4.385   3.236  19.845  0.00  0.00    +0.000 A 
ATOM     13  C   UNL     1       4.368   1.836  19.797  0.00  0.00    +0.000 A 
ATOM     14  C   UNL     1       3.816   1.178  18.698  0.00  0.00    +0.000 A 
ATOM     15  C   UNL     1       3.316   1.916  17.628  0.00  0.00    +0.000 A 
ATOM     16  C   UNL     1       3.366   3.314  17.660  0.00  0.00    +0.000 A 
ENDBRANCH   3  11
BRANCH   3  17
ATOM     17  C   UNL     1       4.976   6.230  18.543  0.00  0.00    +0.000 C 
ATOM     18  C   UNL     1       4.989   6.891  17.140  0.00  0.00    +0.000 C 
ATOM     19  C   UNL     1       5.122   5.854  16.013  0.00  0.00    +0.000 C 
ATOM     20  N   UNL     1       6.255   4.935  16.179  0.00  0.00    +0.000 NA
ATOM     21  C   UNL     1       6.319   4.359  17.517  0.00  0.00    +0.000 C 
ATOM     22  C   UNL     1       6.314   5.460  18.558  0.00  0.00    +0.000 C 
BRANCH  20  23
ATOM     23  C   UNL     1       6.220   3.844  15.193  0.00  0.00    +0.000 C 
BRANCH  23  24
ATOM     24  C   UNL     1       5.582   4.253  13.863  0.00  0.00    +0.000 C 
BRANCH  24  25
ATOM     25  C   UNL     1       6.060   3.424  12.659  0.00  0.00    +0.000 C 
ATOM     26  C   UNL     1       4.907   3.062  11.721  0.00  0.00    +0.000 C 
ATOM     27  C   UNL     1       7.139   4.202  11.907  0.00  0.00    +0.000 C 
ENDBRANCH  24  25
ENDBRANCH  23  24
ENDBRANCH  20  23
ENDBRANCH   3  17
TORSDOF 6
ENDMDL
MODEL 2
REMARK VINA RESULT:      -7.1      0.360      1.359
REMARK  Name = 
REMARK  9 active torsions:
REMARK  status: ('A' for Active; 'I' for Inactive)
REMARK    1  A    between atoms: C_1  and  C_2
REMARK    2  A    between atoms: C_5  and  C_6
REMARK    3  A    between atoms: N_8  and  C_9
REMARK    4  A    between atoms: N_8  and  C_15
REMARK    5  A    between atoms: N_18  and  C_19
REMARK    6  A    between atoms: C_19  and  C_20
REMARK    7  A    between atoms: C_20  and  C_21
REMARK    8  A    between atoms: C_21  and  C_22
REMARK    9  A    between atoms: C_21  and  C_23
REMARK                            x       y       z     vdW  Elec       q    Type
REMARK                         _______ _______ _______ _____ _____    ______ ____
ROOT
ATOM      1  C   UNL     1       2.253   5.922  19.065  0.00  0.00    +0.000 C 
ATOM      2  O   UNL     1       1.294   5.202  19.359  0.00  0.00    +0.000 OA
ATOM      3  N   UNL     1       3.573   5.435  18.917  0.00  0.00    +0.000 N 
ENDROOT
BRANCH   1   8
ATOM      4  C   UNL     1       1.668  11.667  18.952  0.00  0.00    +0.000 C 
ATOM      5  C   UNL     1       1.646  10.166  18.931  0.00  0.00    +0.000 A 
ATOM      6  C   UNL     1       1.455   9.445  20.115  0.00  0.00    +0.000 A 
ATOM      7  C   UNL     1       1.599   8.055  20.122  0.00  0.00    +0.000 A 
ATOM      8  C   UNL     1       1.932   7.368  18.945  0.00  0.00    +0.000 A 
ATOM      9  C   UNL     1       1.982   8.067  17.736  0.00  0.00    +0.000 A 
ATOM     10  C   UNL     1       1.896   9.467  17.741  0.00  0.00    +0.000 A 
ENDBRANCH   1   8
BRANCH   3  11
ATOM     11  C   UNL     1       3.706   3.998  18.963  0.00  0.00    +0.000 A 
ATOM     12  C   UNL     1       3.378   3.199  17.867  0.00  0.00    +0.000 A 
ATOM     13  C   UNL     1       3.646   1.824  17.890  0.00  0.00    +0.000 A 
ATOM     14  C   UNL     1       4.251   1.245  19.005  0.00  0.00    +0.000 A 
ATOM     15  C   UNL     1       4.555   2.031  20.114  0.00  0.00    +0.000 A 
ATOM     16  C   UNL     1       4.254   3.397  20.106  0.00  0.00    +0.000 A 
ENDBRANCH   3  11
BRANCH   3  17
ATOM     17  C   UNL     1       4.838   6.225  18.625  0.00  0.00    +0.000 C 
ATOM     18  C   UNL     1       4.896   6.891  17.225  0.00  0.00    +0.000 C 
ATOM     19  C   UNL     1       5.039   5.856  16.098  0.00  0.00    +0.000 C 
ATOM     20  N   UNL     1       6.152   4.916  16.288  0.00  0.00    +0.000 NA
ATOM     21  C   UNL     1       6.173   4.335  17.625  0.00  0.00    +0.000 C 
ATOM     22  C   UNL     1       6.161   5.432  18.669  0.00  0.00    +0.000 C 
BRANCH  20  23
ATOM     23  C   UNL     1       6.122   3.830  15.297  0.00  0.00    +0.000 C 
BRANCH  23  24
ATOM     24  C   UNL     1       5.654   4.288  13.913  0.00  0.00    +0.000 C 
BRANCH  24  25
ATOM     25  C   UNL     1       6.301   3.520  12.748  0.00  0.00    +0.000 C 
ATOM     26  C   UNL     1       5.254   2.919  11.808  0.00  0.00    +0.000 C 
ATOM     27  C   UNL     1       7.233   4.458  11.982  0.00  0.00    +0.000 C 
ENDBRANCH  24  25
ENDBRANCH  23  24
ENDBRANCH  20  23
ENDBRANCH   3  17
TORSDOF 6
ENDMDL
MODEL 3
REMARK VINA RESULT:      -7.0      1.827      6.512
REMARK  Name = 
REMARK  9 active torsions:
REMARK  status: ('A' for Active; 'I' for Inactive)
REMARK    1  A    between atoms: C_1  and  C_2
REMARK    2  A    between atoms: C_5  and  C_6
REMARK    3  A    between atoms: N_8  and  C_9
REMARK    4  A    between atoms: N_8  and  C_15
REMARK    5  A    between atoms: N_18  and  C_19
REMARK    6  A    between atoms: C_19  and  C_20
REMARK    7  A    between atoms: C_20  and  C_21
REMARK    8  A    between atoms: C_21  and  C_22
REMARK    9  A    between atoms: C_21  and  C_23
REMARK                            x       y       z     vdW  Elec       q    Type
REMARK                         _______ _______ _______ _____ _____    ______ ____
ROOT
ATOM      1  C   UNL     1       4.330   3.489  17.053  0.00  0.00    +0.000 C 
ATOM      2  O   UNL     1       3.671   2.490  16.751  0.00  0.00    +0.000 OA
ATOM      3  N   UNL     1       4.074   4.271  18.204  0.00  0.00    +0.000 N 
ENDROOT
BRANCH   1   8
ATOM      4  C   UNL     1       8.001   5.552  13.098  0.00  0.00    +0.000 C 
ATOM      5  C   UNL     1       7.140   4.861  14.116  0.00  0.00    +0.000 A 
ATOM      6  C   UNL     1       5.924   4.281  13.739  0.00  0.00    +0.000 A 
ATOM      7  C   UNL     1       5.050   3.786  14.710  0.00  0.00    +0.000 A 
ATOM      8  C   UNL     1       5.382   3.860  16.071  0.00  0.00    +0.000 A 
ATOM      9  C   UNL     1       6.654   4.306  16.441  0.00  0.00    +0.000 A 
ATOM     10  C   UNL     1       7.504   4.856  15.470  0.00  0.00    +0.000 A 
ENDBRANCH   1   8
BRANCH   3  11
ATOM     11  C   UNL     1       3.091   3.725  19.109  0.00  0.00    +0.000 A 
ATOM     12  C   UNL     1       3.463   3.073  20.285  0.00  0.00    +0.000 A 
ATOM     13  C   UNL     1       2.489   2.676  21.212  0.00  0.00    +0.000 A 
ATOM     14  C   UNL     1       1.141   2.939  20.969  0.00  0.00    +0.000 A 
ATOM     15  C   UNL     1       0.760   3.562  19.784  0.00  0.00    +0.000 A 
ATOM     16  C   UNL     1       1.728   3.926  18.842  0.00  0.00    +0.000 A 
ENDBRANCH   3  11
BRANCH   3  17
ATOM     17  C   UNL     1       4.768   5.549  18.643  0.00  0.00    +0.000 C 
ATOM     18  C   UNL     1       4.105   6.288  19.835  0.00  0.00    +0.000 C 
ATOM     19  C   UNL     1       2.754   6.912  19.450  0.00  0.00    +0.000 C 
ATOM     20  N   UNL     1       2.810   7.768  18.257  0.00  0.00    +0.000 NA
ATOM     21  C   UNL     1       3.501   7.131  17.142  0.00  0.00    +0.000 C 
ATOM     22  C   UNL     1       4.874   6.664  17.581  0.00  0.00    +0.000 C 
BRANCH  20  23
ATOM     23  C   UNL     1       1.467   8.173  17.815  0.00  0.00    +0.000 C 
BRANCH  23  24
ATOM     24  C   UNL     1       1.231   9.683  17.906  0.00  0.00    +0.000 C 
BRANCH  24  25
ATOM     25  C   UNL     1      -0.013  10.073  18.723  0.00  0.00    +0.000 C 
ATOM     26  C   UNL     1       0.178  11.403  19.455  0.00  0.00    +0.000 C 
ATOM     27  C   UNL     1      -1.224  10.141  17.795  0.00  0.00    +0.000 C 
ENDBRANCH  24  25
ENDBRANCH  23  24
ENDBRANCH  20  23
ENDBRANCH   3  17
TORSDOF 6
ENDMDL
MODEL 4
REMARK VINA RESULT:      -7.0      2.711      4.748
REMARK  Name = 
REMARK  9 active torsions:
REMARK  status: ('A' for Active; 'I' for Inactive)
REMARK    1  A    between atoms: C_1  and  C_2
REMARK    2  A    between atoms: C_5  and  C_6
REMARK    3  A    between atoms: N_8  and  C_9
REMARK    4  A    between atoms: N_8  and  C_15
REMARK    5  A    between atoms: N_18  and  C_19
REMARK    6  A    between atoms: C_19  and  C_20
REMARK    7  A    between atoms: C_20  and  C_21
REMARK    8  A    between atoms: C_21  and  C_22
REMARK    9  A    between atoms: C_21  and  C_23
REMARK                            x       y       z     vdW  Elec       q    Type
REMARK                         _______ _______ _______ _____ _____    ______ ____
ROOT
ATOM      1  C   UNL     1       4.377   6.124  18.564  0.00  0.00    +0.000 C 
ATOM      2  O   UNL     1       4.044   7.305  18.702  0.00  0.00    +0.000 OA
ATOM      3  N   UNL     1       5.668   5.725  18.145  0.00  0.00    +0.000 N 
ENDROOT
BRANCH   1   8
ATOM      4  C   UNL     1       0.465   1.890  18.932  0.00  0.00    +0.000 C 
ATOM      5  C   UNL     1       1.373   3.086  18.945  0.00  0.00    +0.000 A 
ATOM      6  C   UNL     1       1.333   4.016  17.901  0.00  0.00    +0.000 A 
ATOM      7  C   UNL     1       2.287   5.035  17.830  0.00  0.00    +0.000 A 
ATOM      8  C   UNL     1       3.291   5.138  18.805  0.00  0.00    +0.000 A 
ATOM      9  C   UNL     1       3.248   4.301  19.923  0.00  0.00    +0.000 A 
ATOM     10  C   UNL     1       2.326   3.244  19.961  0.00  0.00    +0.000 A 
ENDBRANCH   1   8
BRANCH   3  11
ATOM     11  C   UNL     1       6.638   6.789  18.051  0.00  0.00    +0.000 A 
ATOM     12  C   UNL     1       6.419   7.909  17.248  0.00  0.00    +0.000 A 
ATOM     13  C   UNL     1       7.311   8.989  17.282  0.00  0.00    +0.000 A 
ATOM     14  C   UNL     1       8.420   8.957  18.127  0.00  0.00    +0.000 A 
ATOM     15  C   UNL     1       8.662   7.831  18.909  0.00  0.00    +0.000 A 
ATOM     16  C   UNL     1       7.791   6.738  18.849  0.00  0.00    +0.000 A 
ENDBRANCH   3  11
BRANCH   3  17
ATOM     17  C   UNL     1       6.174   4.317  17.877  0.00  0.00    +0.000 C 
ATOM     18  C   UNL     1       7.497   4.230  17.073  0.00  0.00    +0.000 C 
ATOM     19  C   UNL     1       7.316   4.663  15.609  0.00  0.00    +0.000 C 
ATOM     20  N   UNL     1       6.223   3.970  14.913  0.00  0.00    +0.000 NA
ATOM     21  C   UNL     1       4.984   3.964  15.682  0.00  0.00    +0.000 C 
ATOM     22  C   UNL     1       5.234   3.400  17.066  0.00  0.00    +0.000 C 
BRANCH  20  23
ATOM     23  C   UNL     1       5.960   4.559  13.591  0.00  0.00    +0.000 C 
BRANCH  23  24
ATOM     24  C   UNL     1       6.446   3.685  12.433  0.00  0.00    +0.000 C 
BRANCH  24  25
ATOM     25  C   UNL     1       5.443   2.599  12.006  0.00  0.00    +0.000 C 
ATOM     26  C   UNL     1       4.269   3.183  11.218  0.00  0.00    +0.000 C 
ATOM     27  C   UNL     1       6.170   1.539  11.178  0.00  0.00    +0.000 C 
ENDBRANCH  24  25
ENDBRANCH  23  24
ENDBRANCH  20  23
ENDBRANCH   3  17
TORSDOF 6
ENDMDL
MODEL 5
REMARK VINA RESULT:      -6.8      4.587     10.687
REMARK  Name = 
REMARK  9 active torsions:
REMARK  status: ('A' for Active; 'I' for Inactive)
REMARK    1  A    between atoms: C_1  and  C_2
REMARK    2  A    between atoms: C_5  and  C_6
REMARK    3  A    between atoms: N_8  and  C_9
REMARK    4  A    between atoms: N_8  and  C_15
REMARK    5  A    between atoms: N_18  and  C_19
REMARK    6  A    between atoms: C_19  and  C_20
REMARK    7  A    between atoms: C_20  and  C_21
REMARK    8  A    between atoms: C_21  and  C_22
REMARK    9  A    between atoms: C_21  and  C_23
REMARK                            x       y       z     vdW  Elec       q    Type
REMARK                         _______ _______ _______ _____ _____    ______ ____
ROOT
ATOM      1  C   UNL     1      -0.477  10.412  19.771  0.00  0.00    +0.000 C 
ATOM      2  O   UNL     1      -1.585   9.979  19.442  0.00  0.00    +0.000 OA
ATOM      3  N   UNL     1      -0.294  11.628  20.471  0.00  0.00    +0.000 N 
ENDROOT
BRANCH   1   8
ATOM      4  C   UNL     1       3.501   6.638  17.955  0.00  0.00    +0.000 C 
ATOM      5  C   UNL     1       2.605   7.731  18.463  0.00  0.00    +0.000 A 
ATOM      6  C   UNL     1       2.136   7.706  19.781  0.00  0.00    +0.000 A 
ATOM      7  C   UNL     1       1.175   8.629  20.203  0.00  0.00    +0.000 A 
ATOM      8  C   UNL     1       0.673   9.591  19.312  0.00  0.00    +0.000 A 
ATOM      9  C   UNL     1       1.242   9.709  18.042  0.00  0.00    +0.000 A 
ATOM     10  C   UNL     1       2.163   8.746  17.603  0.00  0.00    +0.000 A 
ENDBRANCH   1   8
BRANCH   3  11
ATOM     11  C   UNL     1      -1.508  12.257  20.935  0.00  0.00    +0.000 A 
ATOM     12  C   UNL     1      -2.337  12.972  20.069  0.00  0.00    +0.000 A 
ATOM     13  C   UNL     1      -3.575  13.453  20.514  0.00  0.00    +0.000 A 
ATOM     14  C   UNL     1      -3.993  13.213  21.822  0.00  0.00    +0.000 A 
ATOM     15  C   UNL     1      -3.159  12.526  22.701  0.00  0.00    +0.000 A 
ATOM     16  C   UNL     1      -1.907  12.077  22.268  0.00  0.00    +0.000 A 
ENDBRANCH   3  11
BRANCH   3  17
ATOM     17  C   UNL     1       1.012  12.293  20.870  0.00  0.00    +0.000 C 
ATOM     18  C   UNL     1       0.868  13.639  21.628  0.00  0.00    +0.000 C 
ATOM     19  C   UNL     1       0.337  14.760  20.722  0.00  0.00    +0.000 C 
ATOM     20  N   UNL     1       1.097  14.930  19.476  0.00  0.00    +0.000 NA
ATOM     21  C   UNL     1       1.322  13.669  18.779  0.00  0.00    +0.000 C 
ATOM     22  C   UNL     1       1.966  12.666  19.715  0.00  0.00    +0.000 C 
BRANCH  20  23
ATOM     23  C   UNL     1       0.434  15.869  18.558  0.00  0.00    +0.000 C 
BRANCH  23  24
ATOM     24  C   UNL     1      -0.877  16.430  19.112  0.00  0.00    +0.000 C 
BRANCH  24  25
ATOM     25  C   UNL     1      -1.131  17.903  18.748  0.00  0.00    +0.000 C 
ATOM     26  C   UNL     1      -0.675  18.228  17.325  0.00  0.00    +0.000 C 
ATOM     27  C   UNL     1      -2.617  18.217  18.920  0.00  0.00    +0.000 C 
ENDBRANCH  24  25
ENDBRANCH  23  24
ENDBRANCH  20  23
ENDBRANCH   3  17
TORSDOF 6
ENDMDL
MODEL 6
REMARK VINA RESULT:      -6.8      8.704     11.453
REMARK  Name = 
REMARK  9 active torsions:
REMARK  status: ('A' for Active; 'I' for Inactive)
REMARK    1  A    between atoms: C_1  and  C_2
REMARK    2  A    between atoms: C_5  and  C_6
REMARK    3  A    between atoms: N_8  and  C_9
REMARK    4  A    between atoms: N_8  and  C_15
REMARK    5  A    between atoms: N_18  and  C_19
REMARK    6  A    between atoms: C_19  and  C_20
REMARK    7  A    between atoms: C_20  and  C_21
REMARK    8  A    between atoms: C_21  and  C_22
REMARK    9  A    between atoms: C_21  and  C_23
REMARK                            x       y       z     vdW  Elec       q    Type
REMARK                         _______ _______ _______ _____ _____    ______ ____
ROOT
ATOM      1  C   UNL     1      -3.456  12.091  19.467  0.00  0.00    +0.000 C 
ATOM      2  O   UNL     1      -4.591  12.443  19.803  0.00  0.00    +0.000 OA
ATOM      3  N   UNL     1      -2.290  12.428  20.194  0.00  0.00    +0.000 N 
ENDROOT
BRANCH   1   8
ATOM      4  C   UNL     1      -2.893   9.790  14.198  0.00  0.00    +0.000 C 
ATOM      5  C   UNL     1      -3.144  10.246  15.607  0.00  0.00    +0.000 A 
ATOM      6  C   UNL     1      -4.138  11.191  15.878  0.00  0.00    +0.000 A 
ATOM      7  C   UNL     1      -4.261  11.735  17.160  0.00  0.00    +0.000 A 
ATOM      8  C   UNL     1      -3.392  11.337  18.187  0.00  0.00    +0.000 A 
ATOM      9  C   UNL     1      -2.494  10.292  17.957  0.00  0.00    +0.000 A 
ATOM     10  C   UNL     1      -2.334   9.790  16.657  0.00  0.00    +0.000 A 
ENDBRANCH   1   8
BRANCH   3  11
ATOM     11  C   UNL     1      -2.526  13.072  21.464  0.00  0.00    +0.000 A 
ATOM     12  C   UNL     1      -2.752  14.446  21.555  0.00  0.00    +0.000 A 
ATOM     13  C   UNL     1      -3.114  15.023  22.780  0.00  0.00    +0.000 A 
ATOM     14  C   UNL     1      -3.260  14.227  23.915  0.00  0.00    +0.000 A 
ATOM     15  C   UNL     1      -3.008  12.859  23.839  0.00  0.00    +0.000 A 
ATOM     16  C   UNL     1      -2.611  12.289  22.625  0.00  0.00    +0.000 A 
ENDBRANCH   3  11
BRANCH   3  17
ATOM     17  C   UNL     1      -0.845  12.113  19.848  0.00  0.00    +0.000 C 
ATOM     18  C   UNL     1       0.203  12.575  20.894  0.00  0.00    +0.000 C 
ATOM     19  C   UNL     1       0.336  14.105  20.944  0.00  0.00    +0.000 C 
ATOM     20  N   UNL     1       0.579  14.727  19.635  0.00  0.00    +0.000 NA
ATOM     21  C   UNL     1      -0.340  14.250  18.609  0.00  0.00    +0.000 C 
ATOM     22  C   UNL     1      -0.307  12.737  18.543  0.00  0.00    +0.000 C 
BRANCH  20  23
ATOM     23  C   UNL     1       0.495  16.194  19.705  0.00  0.00    +0.000 C 
BRANCH  23  24
ATOM     24  C   UNL     1       1.170  16.894  18.523  0.00  0.00    +0.000 C 
BRANCH  24  25
ATOM     25  C   UNL     1       0.409  18.127  18.009  0.00  0.00    +0.000 C 
ATOM     26  C   UNL     1       0.772  18.461  16.561  0.00  0.00    +0.000 C 
ATOM     27  C   UNL     1      -1.094  17.885  18.143  0.00  0.00    +0.000 C 
ENDBRANCH  24  25
ENDBRANCH  23  24
ENDBRANCH  20  23
ENDBRANCH   3  17
TORSDOF 6
ENDMDL
MODEL 7
REMARK VINA RESULT:      -6.8      2.895      7.906
REMARK  Name = 
REMARK  9 active torsions:
REMARK  status: ('A' for Active; 'I' for Inactive)
REMARK    1  A    between atoms: C_1  and  C_2
REMARK    2  A    between atoms: C_5  and  C_6
REMARK    3  A    between atoms: N_8  and  C_9
REMARK    4  A    between atoms: N_8  and  C_15
REMARK    5  A    between atoms: N_18  and  C_19
REMARK    6  A    between atoms: C_19  and  C_20
REMARK    7  A    between atoms: C_20  and  C_21
REMARK    8  A    between atoms: C_21  and  C_22
REMARK    9  A    between atoms: C_21  and  C_23
REMARK                            x       y       z     vdW  Elec       q    Type
REMARK                         _______ _______ _______ _____ _____    ______ ____
ROOT
ATOM      1  C   UNL     1       1.995   6.720  19.866  0.00  0.00    +0.000 C 
ATOM      2  O   UNL     1       1.628   5.967  20.773  0.00  0.00    +0.000 OA
ATOM      3  N   UNL     1       1.698   8.103  19.838  0.00  0.00    +0.000 N 
ENDROOT
BRANCH   1   8
ATOM      4  C   UNL     1       5.287   3.858  16.080  0.00  0.00    +0.000 C 
ATOM      5  C   UNL     1       4.354   4.682  16.921  0.00  0.00    +0.000 A 
ATOM      6  C   UNL     1       4.789   5.883  17.491  0.00  0.00    +0.000 A 
ATOM      7  C   UNL     1       3.977   6.562  18.404  0.00  0.00    +0.000 A 
ATOM      8  C   UNL     1       2.719   6.050  18.755  0.00  0.00    +0.000 A 
ATOM      9  C   UNL     1       2.224   4.931  18.081  0.00  0.00    +0.000 A 
ATOM     10  C   UNL     1       3.063   4.219  17.211  0.00  0.00    +0.000 A 
ENDBRANCH   1   8
BRANCH   3  11
ATOM     11  C   UNL     1       1.079   8.622  21.034  0.00  0.00    +0.000 A 
ATOM     12  C   UNL     1      -0.302   8.569  21.224  0.00  0.00    +0.000 A 
ATOM     13  C   UNL     1      -0.862   8.952  22.450  0.00  0.00    +0.000 A 
ATOM     14  C   UNL     1      -0.042   9.381  23.493  0.00  0.00    +0.000 A 
ATOM     15  C   UNL     1       1.335   9.465  23.302  0.00  0.00    +0.000 A 
ATOM     16  C   UNL     1       1.891   9.116  22.066  0.00  0.00    +0.000 A 
ENDBRANCH   3  11
BRANCH   3  17
ATOM     17  C   UNL     1       2.033   9.112  18.753  0.00  0.00    +0.000 C 
ATOM     18  C   UNL     1       1.817  10.599  19.139  0.00  0.00    +0.000 C 
ATOM     19  C   UNL     1       0.328  10.948  19.287  0.00  0.00    +0.000 C 
ATOM     20  N   UNL     1      -0.491  10.574  18.126  0.00  0.00    +0.000 NA
ATOM     21  C   UNL     1      -0.250   9.205  17.686  0.00  0.00    +0.000 C 
ATOM     22  C   UNL     1       1.230   8.992  17.440  0.00  0.00    +0.000 C 
BRANCH  20  23
ATOM     23  C   UNL     1      -1.928  10.741  18.397  0.00  0.00    +0.000 C 
BRANCH  23  24
ATOM     24  C   UNL     1      -2.820  10.021  17.383  0.00  0.00    +0.000 C 
BRANCH  24  25
ATOM     25  C   UNL     1      -3.308  10.918  16.232  0.00  0.00    +0.000 C 
ATOM     26  C   UNL     1      -3.416  10.149  14.914  0.00  0.00    +0.000 C 
ATOM     27  C   UNL     1      -4.657  11.531  16.608  0.00  0.00    +0.000 C 
ENDBRANCH  24  25
ENDBRANCH  23  24
ENDBRANCH  20  23
ENDBRANCH   3  17
TORSDOF 6
ENDMDL
MODEL 8
REMARK VINA RESULT:      -6.7      8.974     11.332
REMARK  Name = 
REMARK  9 active torsions:
REMARK  status: ('A' for Active; 'I' for Inactive)
REMARK    1  A    between atoms: C_1  and  C_2
REMARK    2  A    between atoms: C_5  and  C_6
REMARK    3  A    between atoms: N_8  and  C_9
REMARK    4  A    between atoms: N_8  and  C_15
REMARK    5  A    between atoms: N_18  and  C_19
REMARK    6  A    between atoms: C_19  and  C_20
REMARK    7  A    between atoms: C_20  and  C_21
REMARK    8  A    between atoms: C_21  and  C_22
REMARK    9  A    between atoms: C_21  and  C_23
REMARK                            x       y       z     vdW  Elec       q    Type
REMARK                         _______ _______ _______ _____ _____    ______ ____
ROOT
ATOM      1  C   UNL     1       9.323  11.675  21.315  0.00  0.00    +0.000 C 
ATOM      2  O   UNL     1       8.988  10.499  21.486  0.00  0.00    +0.000 OA
ATOM      3  N   UNL     1       8.870  12.739  22.131  0.00  0.00    +0.000 N 
ENDROOT
BRANCH   1   8
ATOM      4  C   UNL     1      12.319  13.238  16.630  0.00  0.00    +0.000 C 
ATOM      5  C   UNL     1      11.616  12.668  17.829  0.00  0.00    +0.000 A 
ATOM      6  C   UNL     1      10.303  12.197  17.721  0.00  0.00    +0.000 A 
ATOM      7  C   UNL     1       9.595  11.821  18.866  0.00  0.00    +0.000 A 
ATOM      8  C   UNL     1      10.192  11.909  20.133  0.00  0.00    +0.000 A 
ATOM      9  C   UNL     1      11.546  12.242  20.229  0.00  0.00    +0.000 A 
ATOM     10  C   UNL     1      12.236  12.675  19.087  0.00  0.00    +0.000 A 
ENDBRANCH   1   8
BRANCH   3  11
ATOM     11  C   UNL     1       8.117  12.339  23.296  0.00  0.00    +0.000 A 
ATOM     12  C   UNL     1       8.651  12.443  24.581  0.00  0.00    +0.000 A 
ATOM     13  C   UNL     1       7.852  12.180  25.702  0.00  0.00    +0.000 A 
ATOM     14  C   UNL     1       6.514  11.822  25.541  0.00  0.00    +0.000 A 
ATOM     15  C   UNL     1       5.982  11.687  24.261  0.00  0.00    +0.000 A 
ATOM     16  C   UNL     1       6.789  11.915  23.142  0.00  0.00    +0.000 A 
ENDBRANCH   3  11
BRANCH   3  17
ATOM     17  C   UNL     1       9.156  14.223  21.982  0.00  0.00    +0.000 C 
ATOM     18  C   UNL     1       8.283  15.159  22.858  0.00  0.00    +0.000 C 
ATOM     19  C   UNL     1       6.818  15.187  22.394  0.00  0.00    +0.000 C 
ATOM     20  N   UNL     1       6.650  15.486  20.965  0.00  0.00    +0.000 NA
ATOM     21  C   UNL     1       7.519  14.678  20.118  0.00  0.00    +0.000 C 
ATOM     22  C   UNL     1       8.959  14.815  20.570  0.00  0.00    +0.000 C 
BRANCH  20  23
ATOM     23  C   UNL     1       5.257  15.301  20.531  0.00  0.00    +0.000 C 
BRANCH  23  24
ATOM     24  C   UNL     1       4.966  15.917  19.160  0.00  0.00    +0.000 C 
BRANCH  24  25
ATOM     25  C   UNL     1       3.483  16.255  18.928  0.00  0.00    +0.000 C 
ATOM     26  C   UNL     1       3.191  16.572  17.461  0.00  0.00    +0.000 C 
ATOM     27  C   UNL     1       2.619  15.089  19.407  0.00  0.00    +0.000 C 
ENDBRANCH  24  25
ENDBRANCH  23  24
ENDBRANCH  20  23
ENDBRANCH   3  17
TORSDOF 6
ENDMDL
MODEL 9
REMARK VINA RESULT:      -6.7      8.994     11.325
REMARK  Name = 
REMARK  9 active torsions:
REMARK  status: ('A' for Active; 'I' for Inactive)
REMARK    1  A    between atoms: C_1  and  C_2
REMARK    2  A    between atoms: C_5  and  C_6
REMARK    3  A    between atoms: N_8  and  C_9
REMARK    4  A    between atoms: N_8  and  C_15
REMARK    5  A    between atoms: N_18  and  C_19
REMARK    6  A    between atoms: C_19  and  C_20
REMARK    7  A    between atoms: C_20  and  C_21
REMARK    8  A    between atoms: C_21  and  C_22
REMARK    9  A    between atoms: C_21  and  C_23
REMARK                            x       y       z     vdW  Elec       q    Type
REMARK                         _______ _______ _______ _____ _____    ______ ____
ROOT
ATOM      1  C   UNL     1       9.272  11.881  21.269  0.00  0.00    +0.000 C 
ATOM      2  O   UNL     1       8.990  10.704  21.514  0.00  0.00    +0.000 OA
ATOM      3  N   UNL     1       8.755  12.974  22.004  0.00  0.00    +0.000 N 
ENDROOT
BRANCH   1   8
ATOM      4  C   UNL     1      12.333  13.312  16.584  0.00  0.00    +0.000 C 
ATOM      5  C   UNL     1      11.605  12.773  17.782  0.00  0.00    +0.000 A 
ATOM      6  C   UNL     1      10.271  12.366  17.675  0.00  0.00    +0.000 A 
ATOM      7  C   UNL     1       9.547  12.021  18.820  0.00  0.00    +0.000 A 
ATOM      8  C   UNL     1      10.150  12.077  20.086  0.00  0.00    +0.000 A 
ATOM      9  C   UNL     1      11.518  12.344  20.181  0.00  0.00    +0.000 A 
ATOM     10  C   UNL     1      12.226  12.746  19.039  0.00  0.00    +0.000 A 
ENDBRANCH   1   8
BRANCH   3  11
ATOM     11  C   UNL     1       8.002  12.618  23.183  0.00  0.00    +0.000 A 
ATOM     12  C   UNL     1       6.694  12.140  23.097  0.00  0.00    +0.000 A 
ATOM     13  C   UNL     1       6.036  11.673  24.243  0.00  0.00    +0.000 A 
ATOM     14  C   UNL     1       6.687  11.672  25.475  0.00  0.00    +0.000 A 
ATOM     15  C   UNL     1       7.982  12.174  25.574  0.00  0.00    +0.000 A 
ATOM     16  C   UNL     1       8.627  12.674  24.438  0.00  0.00    +0.000 A 
ENDBRANCH   3  11
BRANCH   3  17
ATOM     17  C   UNL     1       8.974  14.457  21.759  0.00  0.00    +0.000 C 
ATOM     18  C   UNL     1       8.279  15.407  22.769  0.00  0.00    +0.000 C 
ATOM     19  C   UNL     1       6.750  15.399  22.614  0.00  0.00    +0.000 C 
ATOM     20  N   UNL     1       6.288  15.650  21.242  0.00  0.00    +0.000 NA
ATOM     21  C   UNL     1       6.982  14.829  20.257  0.00  0.00    +0.000 C 
ATOM     22  C   UNL     1       8.481  15.001  20.401  0.00  0.00    +0.000 C 
BRANCH  20  23
ATOM     23  C   UNL     1       4.840  15.432  21.107  0.00  0.00    +0.000 C 
BRANCH  23  24
ATOM     24  C   UNL     1       4.453  14.739  19.798  0.00  0.00    +0.000 C 
BRANCH  24  25
ATOM     25  C   UNL     1       3.359  15.472  19.002  0.00  0.00    +0.000 C 
ATOM     26  C   UNL     1       3.725  15.614  17.524  0.00  0.00    +0.000 C 
ATOM     27  C   UNL     1       2.036  14.722  19.157  0.00  0.00    +0.000 C 
ENDBRANCH  24  25
ENDBRANCH  23  24
ENDBRANCH  20  23
ENDBRANCH   3  17
TORSDOF 6
ENDMDL
