MODEL 1
REMARK VINA RESULT:      -7.1      0.000      0.000
REMARK  Name = 
REMARK  6 active torsions:
REMARK  status: ('A' for Active; 'I' for Inactive)
REMARK    1  A    between atoms: C_2  and  C_3
REMARK    2  A    between atoms: C_3  and  C_4
REMARK    3  A    between atoms: C_4  and  C_5
REMARK    4  A    between atoms: C_5  and  O_6
REMARK    5  A    between atoms: O_6  and  C_7
REMARK    6  A    between atoms: N_14  and  C_15
REMARK                            x       y       z     vdW  Elec       q    Type
REMARK                         _______ _______ _______ _____ _____    ______ ____
ROOT
ATOM      1  O   UNL     1       5.639   6.953  16.120  0.00  0.00    +0.000 OA
ATOM      2  C   UNL     1       6.727   6.514  16.472  0.00  0.00    +0.000 C 
ATOM      3  N   UNL     1       7.426   5.489  15.847  0.00  0.00    +0.000 N 
ATOM      4  H   UNL     1       8.214   5.093  16.347  0.00  0.00    +0.000 HD
ENDROOT
BRANCH   3   5
ATOM      5  C   UNL     1       7.072   4.881  14.619  0.00  0.00    +0.000 A 
ATOM      6  C   UNL     1       6.193   3.803  14.533  0.00  0.00    +0.000 A 
ATOM      7  C   UNL     1       5.895   3.282  13.286  0.00  0.00    +0.000 A 
ATOM      8  N   UNL     1       6.406   3.756  12.134  0.00  0.00    +0.000 NA
ATOM      9  C   UNL     1       7.249   4.801  12.244  0.00  0.00    +0.000 A 
ATOM     10  F   UNL     1       7.778   5.286  11.112  0.00  0.00    +0.000 F 
ATOM     11  C   UNL     1       7.606   5.399  13.444  0.00  0.00    +0.000 A 
ENDBRANCH   3   5
BRANCH   2  12
ATOM     12  C   UNL     1       7.455   7.067  17.681  0.00  0.00    +0.000 C 
BRANCH  12  13
ATOM     13  C   UNL     1       7.848   5.958  18.661  0.00  0.00    +0.000 C 
BRANCH  13  14
ATOM     14  C   UNL     1       6.617   5.389  19.352  0.00  0.00    +0.000 C 
BRANCH  14  15
ATOM     15  O   UNL     1       6.182   4.210  18.673  0.00  0.00    +0.000 OA
BRANCH  15  16
ATOM     16  C   UNL     1       4.826   4.130  18.473  0.00  0.00    +0.000 A 
ATOM     17  C   UNL     1       4.221   3.469  17.400  0.00  0.00    +0.000 A 
ATOM     18  C   UNL     1       2.830   3.446  17.277  0.00  0.00    +0.000 A 
ATOM     19  C   UNL     1       2.035   4.076  18.232  0.00  0.00    +0.000 A 
ATOM     20  C   UNL     1       2.638   4.713  19.315  0.00  0.00    +0.000 A 
ATOM     21 BR   UNL     1       1.552   5.558  20.614  0.00  0.00    +0.000 Br
ATOM     22  C   UNL     1       4.027   4.737  19.446  0.00  0.00    +0.000 A 
ENDBRANCH  15  16
ENDBRANCH  14  15
ENDBRANCH  13  14
ENDBRANCH  12  13
ENDBRANCH   2  12
TORSDOF 6
ENDMDL
MODEL 2
REMARK VINA RESULT:      -7.1      4.964      7.654
REMARK  Name = 
REMARK  6 active torsions:
REMARK  status: ('A' for Active; 'I' for Inactive)
REMARK    1  A    between atoms: C_2  and  C_3
REMARK    2  A    between atoms: C_3  and  C_4
REMARK    3  A    between atoms: C_4  and  C_5
REMARK    4  A    between atoms: C_5  and  O_6
REMARK    5  A    between atoms: O_6  and  C_7
REMARK    6  A    between atoms: N_14  and  C_15
REMARK                            x       y       z     vdW  Elec       q    Type
REMARK                         _______ _______ _______ _____ _____    ______ ____
ROOT
ATOM      1  O   UNL     1       7.113   5.232  20.094  0.00  0.00    +0.000 OA
ATOM      2  C   UNL     1       7.001   5.855  19.045  0.00  0.00    +0.000 C 
ATOM      3  N   UNL     1       5.904   5.811  18.193  0.00  0.00    +0.000 N 
ATOM      4  H   UNL     1       6.018   6.217  17.271  0.00  0.00    +0.000 HD
ENDROOT
BRANCH   3   5
ATOM      5  C   UNL     1       4.679   5.156  18.461  0.00  0.00    +0.000 A 
ATOM      6  C   UNL     1       3.814   5.553  19.479  0.00  0.00    +0.000 A 
ATOM      7  C   UNL     1       2.630   4.858  19.658  0.00  0.00    +0.000 A 
ATOM      8  N   UNL     1       2.255   3.810  18.902  0.00  0.00    +0.000 NA
ATOM      9  C   UNL     1       3.106   3.449  17.923  0.00  0.00    +0.000 A 
ATOM     10  F   UNL     1       2.758   2.402  17.161  0.00  0.00    +0.000 F 
ATOM     11  C   UNL     1       4.311   4.082  17.657  0.00  0.00    +0.000 A 
ENDBRANCH   3   5
BRANCH   2  12
ATOM     12  C   UNL     1       8.094   6.779  18.546  0.00  0.00    +0.000 C 
BRANCH  12  13
ATOM     13  C   UNL     1       7.571   7.755  17.489  0.00  0.00    +0.000 C 
BRANCH  13  14
ATOM     14  C   UNL     1       8.025   9.175  17.795  0.00  0.00    +0.000 C 
BRANCH  14  15
ATOM     15  O   UNL     1       8.827   9.183  18.978  0.00  0.00    +0.000 OA
BRANCH  15  16
ATOM     16  C   UNL     1       9.403  10.394  19.273  0.00  0.00    +0.000 A 
ATOM     17  C   UNL     1       9.480  10.943  20.555  0.00  0.00    +0.000 A 
ATOM     18  C   UNL     1      10.083  12.187  20.757  0.00  0.00    +0.000 A 
ATOM     19  C   UNL     1      10.620  12.884  19.678  0.00  0.00    +0.000 A 
ATOM     20  C   UNL     1      10.565  12.325  18.403  0.00  0.00    +0.000 A 
ATOM     21 BR   UNL     1      11.307  13.272  16.943  0.00  0.00    +0.000 Br
ATOM     22  C   UNL     1       9.968  11.080  18.195  0.00  0.00    +0.000 A 
ENDBRANCH  15  16
ENDBRANCH  14  15
ENDBRANCH  13  14
ENDBRANCH  12  13
ENDBRANCH   2  12
TORSDOF 6
ENDMDL
MODEL 3
REMARK VINA RESULT:      -6.9      4.656      6.744
REMARK  Name = 
REMARK  6 active torsions:
REMARK  status: ('A' for Active; 'I' for Inactive)
REMARK    1  A    between atoms: C_2  and  C_3
REMARK    2  A    between atoms: C_3  and  C_4
REMARK    3  A    between atoms: C_4  and  C_5
REMARK    4  A    between atoms: C_5  and  O_6
REMARK    5  A    between atoms: O_6  and  C_7
REMARK    6  A    between atoms: N_14  and  C_15
REMARK                            x       y       z     vdW  Elec       q    Type
REMARK                         _______ _______ _______ _____ _____    ______ ____
ROOT
ATOM      1  O   UNL     1       0.617   4.541  20.313  0.00  0.00    +0.000 OA
ATOM      2  C   UNL     1       1.734   4.657  20.803  0.00  0.00    +0.000 C 
ATOM      3  N   UNL     1       2.617   5.703  20.563  0.00  0.00    +0.000 N 
ATOM      4  H   UNL     1       3.574   5.582  20.873  0.00  0.00    +0.000 HD
ENDROOT
BRANCH   3   5
ATOM      5  C   UNL     1       2.321   6.878  19.831  0.00  0.00    +0.000 A 
ATOM      6  C   UNL     1       2.708   7.062  18.504  0.00  0.00    +0.000 A 
ATOM      7  C   UNL     1       2.361   8.241  17.867  0.00  0.00    +0.000 A 
ATOM      8  N   UNL     1       1.665   9.233  18.451  0.00  0.00    +0.000 NA
ATOM      9  C   UNL     1       1.300   9.029  19.731  0.00  0.00    +0.000 A 
ATOM     10  F   UNL     1       0.613  10.006  20.339  0.00  0.00    +0.000 F 
ATOM     11  C   UNL     1       1.591   7.883  20.457  0.00  0.00    +0.000 A 
ENDBRANCH   3   5
BRANCH   2  12
ATOM     12  C   UNL     1       2.294   3.627  21.763  0.00  0.00    +0.000 C 
BRANCH  12  13
ATOM     13  C   UNL     1       2.699   2.340  21.038  0.00  0.00    +0.000 C 
BRANCH  13  14
ATOM     14  C   UNL     1       3.956   2.562  20.209  0.00  0.00    +0.000 C 
BRANCH  14  15
ATOM     15  O   UNL     1       3.614   2.651  18.825  0.00  0.00    +0.000 OA
BRANCH  15  16
ATOM     16  C   UNL     1       4.381   3.530  18.101  0.00  0.00    +0.000 A 
ATOM     17  C   UNL     1       4.163   3.849  16.757  0.00  0.00    +0.000 A 
ATOM     18  C   UNL     1       5.002   4.754  16.101  0.00  0.00    +0.000 A 
ATOM     19  C   UNL     1       6.055   5.352  16.787  0.00  0.00    +0.000 A 
ATOM     20  C   UNL     1       6.255   5.054  18.134  0.00  0.00    +0.000 A 
ATOM     21 BR   UNL     1       7.682   5.878  19.063  0.00  0.00    +0.000 Br
ATOM     22  C   UNL     1       5.420   4.153  18.797  0.00  0.00    +0.000 A 
ENDBRANCH  15  16
ENDBRANCH  14  15
ENDBRANCH  13  14
ENDBRANCH  12  13
ENDBRANCH   2  12
TORSDOF 6
ENDMDL
MODEL 4
REMARK VINA RESULT:      -6.8      5.115      7.679
REMARK  Name = 
REMARK  6 active torsions:
REMARK  status: ('A' for Active; 'I' for Inactive)
REMARK    1  A    between atoms: C_2  and  C_3
REMARK    2  A    between atoms: C_3  and  C_4
REMARK    3  A    between atoms: C_4  and  C_5
REMARK    4  A    between atoms: C_5  and  O_6
REMARK    5  A    between atoms: O_6  and  C_7
REMARK    6  A    between atoms: N_14  and  C_15
REMARK                            x       y       z     vdW  Elec       q    Type
REMARK                         _______ _______ _______ _____ _____    ______ ____
ROOT
ATOM      1  O   UNL     1       6.599   4.511  16.857  0.00  0.00    +0.000 OA
ATOM      2  C   UNL     1       6.472   5.145  17.897  0.00  0.00    +0.000 C 
ATOM      3  N   UNL     1       5.329   5.181  18.687  0.00  0.00    +0.000 N 
ATOM      4  H   UNL     1       5.287   5.891  19.409  0.00  0.00    +0.000 HD
ENDROOT
BRANCH   3   5
ATOM      5  C   UNL     1       4.176   4.381  18.502  0.00  0.00    +0.000 A 
ATOM      6  C   UNL     1       4.103   3.051  18.911  0.00  0.00    +0.000 A 
ATOM      7  C   UNL     1       2.927   2.352  18.700  0.00  0.00    +0.000 A 
ATOM      8  N   UNL     1       1.834   2.881  18.119  0.00  0.00    +0.000 NA
ATOM      9  C   UNL     1       1.929   4.169  17.737  0.00  0.00    +0.000 A 
ATOM     10  F   UNL     1       0.857   4.717  17.148  0.00  0.00    +0.000 F 
ATOM     11  C   UNL     1       3.058   4.957  17.909  0.00  0.00    +0.000 A 
ENDBRANCH   3   5
BRANCH   2  12
ATOM     12  C   UNL     1       7.596   5.995  18.455  0.00  0.00    +0.000 C 
BRANCH  12  13
ATOM     13  C   UNL     1       7.595   7.402  17.850  0.00  0.00    +0.000 C 
BRANCH  13  14
ATOM     14  C   UNL     1       8.503   8.330  18.643  0.00  0.00    +0.000 C 
BRANCH  14  15
ATOM     15  O   UNL     1       8.572   9.605  18.002  0.00  0.00    +0.000 OA
BRANCH  15  16
ATOM     16  C   UNL     1       9.388  10.517  18.625  0.00  0.00    +0.000 A 
ATOM     17  C   UNL     1       9.447  10.712  20.007  0.00  0.00    +0.000 A 
ATOM     18  C   UNL     1      10.308  11.670  20.550  0.00  0.00    +0.000 A 
ATOM     19  C   UNL     1      11.121  12.430  19.714  0.00  0.00    +0.000 A 
ATOM     20  C   UNL     1      11.080  12.217  18.337  0.00  0.00    +0.000 A 
ATOM     21 BR   UNL     1      12.195  13.246  17.207  0.00  0.00    +0.000 Br
ATOM     22  C   UNL     1      10.225  11.259  17.788  0.00  0.00    +0.000 A 
ENDBRANCH  15  16
ENDBRANCH  14  15
ENDBRANCH  13  14
ENDBRANCH  12  13
ENDBRANCH   2  12
TORSDOF 6
ENDMDL
MODEL 5
REMARK VINA RESULT:      -6.8      1.250      1.612
REMARK  Name = 
REMARK  6 active torsions:
REMARK  status: ('A' for Active; 'I' for Inactive)
REMARK    1  A    between atoms: C_2  and  C_3
REMARK    2  A    between atoms: C_3  and  C_4
REMARK    3  A    between atoms: C_4  and  C_5
REMARK    4  A    between atoms: C_5  and  O_6
REMARK    5  A    between atoms: O_6  and  C_7
REMARK    6  A    between atoms: N_14  and  C_15
REMARK                            x       y       z     vdW  Elec       q    Type
REMARK                         _______ _______ _______ _____ _____    ______ ____
ROOT
ATOM      1  O   UNL     1       5.538   6.714  15.869  0.00  0.00    +0.000 OA
ATOM      2  C   UNL     1       6.635   6.316  16.244  0.00  0.00    +0.000 C 
ATOM      3  N   UNL     1       7.449   5.425  15.556  0.00  0.00    +0.000 N 
ATOM      4  H   UNL     1       8.234   5.030  16.061  0.00  0.00    +0.000 HD
ENDROOT
BRANCH   3   5
ATOM      5  C   UNL     1       7.217   4.942  14.246  0.00  0.00    +0.000 A 
ATOM      6  C   UNL     1       7.896   5.425  13.128  0.00  0.00    +0.000 A 
ATOM      7  C   UNL     1       7.611   4.880  11.888  0.00  0.00    +0.000 A 
ATOM      8  N   UNL     1       6.709   3.901  11.688  0.00  0.00    +0.000 NA
ATOM      9  C   UNL     1       6.071   3.449  12.784  0.00  0.00    +0.000 A 
ATOM     10  F   UNL     1       5.161   2.479  12.611  0.00  0.00    +0.000 F 
ATOM     11  C   UNL     1       6.288   3.922  14.070  0.00  0.00    +0.000 A 
ENDBRANCH   3   5
BRANCH   2  12
ATOM     12  C   UNL     1       7.243   6.774  17.555  0.00  0.00    +0.000 C 
BRANCH  12  13
ATOM     13  C   UNL     1       7.683   5.588  18.418  0.00  0.00    +0.000 C 
BRANCH  13  14
ATOM     14  C   UNL     1       6.656   5.301  19.503  0.00  0.00    +0.000 C 
BRANCH  14  15
ATOM     15  O   UNL     1       5.910   4.130  19.166  0.00  0.00    +0.000 OA
BRANCH  15  16
ATOM     16  C   UNL     1       4.640   4.372  18.703  0.00  0.00    +0.000 A 
ATOM     17  C   UNL     1       3.854   3.437  18.024  0.00  0.00    +0.000 A 
ATOM     18  C   UNL     1       2.572   3.778  17.585  0.00  0.00    +0.000 A 
ATOM     19  C   UNL     1       2.066   5.051  17.832  0.00  0.00    +0.000 A 
ATOM     20  C   UNL     1       2.841   5.974  18.532  0.00  0.00    +0.000 A 
ATOM     21 BR   UNL     1       2.143   7.699  18.873  0.00  0.00    +0.000 Br
ATOM     22  C   UNL     1       4.121   5.640  18.976  0.00  0.00    +0.000 A 
ENDBRANCH  15  16
ENDBRANCH  14  15
ENDBRANCH  13  14
ENDBRANCH  12  13
ENDBRANCH   2  12
TORSDOF 6
ENDMDL
MODEL 6
REMARK VINA RESULT:      -6.8      4.585      6.714
REMARK  Name = 
REMARK  6 active torsions:
REMARK  status: ('A' for Active; 'I' for Inactive)
REMARK    1  A    between atoms: C_2  and  C_3
REMARK    2  A    between atoms: C_3  and  C_4
REMARK    3  A    between atoms: C_4  and  C_5
REMARK    4  A    between atoms: C_5  and  O_6
REMARK    5  A    between atoms: O_6  and  C_7
REMARK    6  A    between atoms: N_14  and  C_15
REMARK                            x       y       z     vdW  Elec       q    Type
REMARK                         _______ _______ _______ _____ _____    ______ ____
ROOT
ATOM      1  O   UNL     1       0.950   3.879  18.742  0.00  0.00    +0.000 OA
ATOM      2  C   UNL     1       1.706   3.884  19.706  0.00  0.00    +0.000 C 
ATOM      3  N   UNL     1       2.387   4.993  20.193  0.00  0.00    +0.000 N 
ATOM      4  H   UNL     1       3.125   4.824  20.867  0.00  0.00    +0.000 HD
ENDROOT
BRANCH   3   5
ATOM      5  C   UNL     1       2.211   6.326  19.753  0.00  0.00    +0.000 A 
ATOM      6  C   UNL     1       2.654   6.780  18.511  0.00  0.00    +0.000 A 
ATOM      7  C   UNL     1       2.424   8.099  18.162  0.00  0.00    +0.000 A 
ATOM      8  N   UNL     1       1.790   8.985  18.954  0.00  0.00    +0.000 NA
ATOM      9  C   UNL     1       1.368   8.520  20.145  0.00  0.00    +0.000 A 
ATOM     10  F   UNL     1       0.742   9.385  20.956  0.00  0.00    +0.000 F 
ATOM     11  C   UNL     1       1.543   7.217  20.587  0.00  0.00    +0.000 A 
ENDBRANCH   3   5
BRANCH   2  12
ATOM     12  C   UNL     1       1.992   2.625  20.501  0.00  0.00    +0.000 C 
BRANCH  12  13
ATOM     13  C   UNL     1       3.470   2.523  20.886  0.00  0.00    +0.000 C 
BRANCH  13  14
ATOM     14  C   UNL     1       4.344   2.409  19.645  0.00  0.00    +0.000 C 
BRANCH  14  15
ATOM     15  O   UNL     1       5.351   3.421  19.667  0.00  0.00    +0.000 OA
BRANCH  15  16
ATOM     16  C   UNL     1       5.420   4.187  18.529  0.00  0.00    +0.000 A 
ATOM     17  C   UNL     1       4.701   3.931  17.358  0.00  0.00    +0.000 A 
ATOM     18  C   UNL     1       4.840   4.766  16.246  0.00  0.00    +0.000 A 
ATOM     19  C   UNL     1       5.690   5.867  16.304  0.00  0.00    +0.000 A 
ATOM     20  C   UNL     1       6.387   6.137  17.480  0.00  0.00    +0.000 A 
ATOM     21 BR   UNL     1       7.532   7.641  17.555  0.00  0.00    +0.000 Br
ATOM     22  C   UNL     1       6.250   5.309  18.596  0.00  0.00    +0.000 A 
ENDBRANCH  15  16
ENDBRANCH  14  15
ENDBRANCH  13  14
ENDBRANCH  12  13
ENDBRANCH   2  12
TORSDOF 6
ENDMDL
MODEL 7
REMARK VINA RESULT:      -6.7      4.833      7.108
REMARK  Name = 
REMARK  6 active torsions:
REMARK  status: ('A' for Active; 'I' for Inactive)
REMARK    1  A    between atoms: C_2  and  C_3
REMARK    2  A    between atoms: C_3  and  C_4
REMARK    3  A    between atoms: C_4  and  C_5
REMARK    4  A    between atoms: C_5  and  O_6
REMARK    5  A    between atoms: O_6  and  C_7
REMARK    6  A    between atoms: N_14  and  C_15
REMARK                            x       y       z     vdW  Elec       q    Type
REMARK                         _______ _______ _______ _____ _____    ______ ____
ROOT
ATOM      1  O   UNL     1       0.686   4.859  20.406  0.00  0.00    +0.000 OA
ATOM      2  C   UNL     1       1.884   4.966  20.639  0.00  0.00    +0.000 C 
ATOM      3  N   UNL     1       2.680   6.052  20.297  0.00  0.00    +0.000 N 
ATOM      4  H   UNL     1       3.684   5.933  20.371  0.00  0.00    +0.000 HD
ENDROOT
BRANCH   3   5
ATOM      5  C   UNL     1       2.216   7.274  19.755  0.00  0.00    +0.000 A 
ATOM      6  C   UNL     1       2.456   7.659  18.437  0.00  0.00    +0.000 A 
ATOM      7  C   UNL     1       1.950   8.868  17.993  0.00  0.00    +0.000 A 
ATOM      8  N   UNL     1       1.230   9.708  18.760  0.00  0.00    +0.000 NA
ATOM      9  C   UNL     1       1.009   9.311  20.028  0.00  0.00    +0.000 A 
ATOM     10  F   UNL     1       0.302  10.133  20.816  0.00  0.00    +0.000 F 
ATOM     11  C   UNL     1       1.466   8.117  20.568  0.00  0.00    +0.000 A 
ENDBRANCH   3   5
BRANCH   2  12
ATOM     12  C   UNL     1       2.657   3.876  21.355  0.00  0.00    +0.000 C 
BRANCH  12  13
ATOM     13  C   UNL     1       2.563   2.538  20.617  0.00  0.00    +0.000 C 
BRANCH  13  14
ATOM     14  C   UNL     1       3.650   2.430  19.557  0.00  0.00    +0.000 C 
BRANCH  14  15
ATOM     15  O   UNL     1       3.487   3.468  18.589  0.00  0.00    +0.000 OA
BRANCH  15  16
ATOM     16  C   UNL     1       4.661   3.960  18.073  0.00  0.00    +0.000 A 
ATOM     17  C   UNL     1       5.660   4.579  18.829  0.00  0.00    +0.000 A 
ATOM     18  C   UNL     1       6.821   5.054  18.213  0.00  0.00    +0.000 A 
ATOM     19  C   UNL     1       6.993   4.903  16.840  0.00  0.00    +0.000 A 
ATOM     20  C   UNL     1       6.007   4.264  16.090  0.00  0.00    +0.000 A 
ATOM     21 BR   UNL     1       6.251   4.054  14.226  0.00  0.00    +0.000 Br
ATOM     22  C   UNL     1       4.847   3.784  16.700  0.00  0.00    +0.000 A 
ENDBRANCH  15  16
ENDBRANCH  14  15
ENDBRANCH  13  14
ENDBRANCH  12  13
ENDBRANCH   2  12
TORSDOF 6
ENDMDL
MODEL 8
REMARK VINA RESULT:      -6.7      5.230      7.742
REMARK  Name = 
REMARK  6 active torsions:
REMARK  status: ('A' for Active; 'I' for Inactive)
REMARK    1  A    between atoms: C_2  and  C_3
REMARK    2  A    between atoms: C_3  and  C_4
REMARK    3  A    between atoms: C_4  and  C_5
REMARK    4  A    between atoms: C_5  and  O_6
REMARK    5  A    between atoms: O_6  and  C_7
REMARK    6  A    between atoms: N_14  and  C_15
REMARK                            x       y       z     vdW  Elec       q    Type
REMARK                         _______ _______ _______ _____ _____    ______ ____
ROOT
ATOM      1  O   UNL     1       6.058   5.568  19.001  0.00  0.00    +0.000 OA
ATOM      2  C   UNL     1       5.543   6.076  18.012  0.00  0.00    +0.000 C 
ATOM      3  N   UNL     1       4.409   5.608  17.360  0.00  0.00    +0.000 N 
ATOM      4  H   UNL     1       4.203   6.001  16.449  0.00  0.00    +0.000 HD
ENDROOT
BRANCH   3   5
ATOM      5  C   UNL     1       3.575   4.557  17.812  0.00  0.00    +0.000 A 
ATOM      6  C   UNL     1       3.773   3.225  17.454  0.00  0.00    +0.000 A 
ATOM      7  C   UNL     1       2.912   2.264  17.957  0.00  0.00    +0.000 A 
ATOM      8  N   UNL     1       1.883   2.537  18.781  0.00  0.00    +0.000 NA
ATOM      9  C   UNL     1       1.717   3.831  19.115  0.00  0.00    +0.000 A 
ATOM     10  F   UNL     1       0.693   4.129  19.928  0.00  0.00    +0.000 F 
ATOM     11  C   UNL     1       2.526   4.867  18.671  0.00  0.00    +0.000 A 
ENDBRANCH   3   5
BRANCH   2  12
ATOM     12  C   UNL     1       6.118   7.321  17.366  0.00  0.00    +0.000 C 
BRANCH  12  13
ATOM     13  C   UNL     1       7.626   7.436  17.603  0.00  0.00    +0.000 C 
BRANCH  13  14
ATOM     14  C   UNL     1       8.023   8.884  17.852  0.00  0.00    +0.000 C 
BRANCH  14  15
ATOM     15  O   UNL     1       8.858   8.965  19.009  0.00  0.00    +0.000 OA
BRANCH  15  16
ATOM     16  C   UNL     1       9.332  10.224  19.287  0.00  0.00    +0.000 A 
ATOM     17  C   UNL     1       9.323  10.810  20.556  0.00  0.00    +0.000 A 
ATOM     18  C   UNL     1       9.824  12.101  20.741  0.00  0.00    +0.000 A 
ATOM     19  C   UNL     1      10.345  12.808  19.661  0.00  0.00    +0.000 A 
ATOM     20  C   UNL     1      10.376  12.213  18.401  0.00  0.00    +0.000 A 
ATOM     21 BR   UNL     1      11.095  13.176  16.939  0.00  0.00    +0.000 Br
ATOM     22  C   UNL     1       9.881  10.922  18.209  0.00  0.00    +0.000 A 
ENDBRANCH  15  16
ENDBRANCH  14  15
ENDBRANCH  13  14
ENDBRANCH  12  13
ENDBRANCH   2  12
TORSDOF 6
ENDMDL
MODEL 9
REMARK VINA RESULT:      -6.6      2.676      4.437
REMARK  Name = 
REMARK  6 active torsions:
REMARK  status: ('A' for Active; 'I' for Inactive)
REMARK    1  A    between atoms: C_2  and  C_3
REMARK    2  A    between atoms: C_3  and  C_4
REMARK    3  A    between atoms: C_4  and  C_5
REMARK    4  A    between atoms: C_5  and  O_6
REMARK    5  A    between atoms: O_6  and  C_7
REMARK    6  A    between atoms: N_14  and  C_15
REMARK                            x       y       z     vdW  Elec       q    Type
REMARK                         _______ _______ _______ _____ _____    ______ ____
ROOT
ATOM      1  O   UNL     1       2.905   3.229  17.028  0.00  0.00    +0.000 OA
ATOM      2  C   UNL     1       3.558   3.038  18.046  0.00  0.00    +0.000 C 
ATOM      3  N   UNL     1       4.877   3.427  18.245  0.00  0.00    +0.000 N 
ATOM      4  H   UNL     1       5.358   3.040  19.049  0.00  0.00    +0.000 HD
ENDROOT
BRANCH   3   5
ATOM      5  C   UNL     1       5.639   4.233  17.365  0.00  0.00    +0.000 A 
ATOM      6  C   UNL     1       6.191   5.455  17.744  0.00  0.00    +0.000 A 
ATOM      7  C   UNL     1       6.933   6.167  16.817  0.00  0.00    +0.000 A 
ATOM      8  N   UNL     1       7.159   5.750  15.557  0.00  0.00    +0.000 NA
ATOM      9  C   UNL     1       6.619   4.564  15.219  0.00  0.00    +0.000 A 
ATOM     10  F   UNL     1       6.823   4.130  13.967  0.00  0.00    +0.000 F 
ATOM     11  C   UNL     1       5.866   3.771  16.073  0.00  0.00    +0.000 A 
ENDBRANCH   3   5
BRANCH   2  12
ATOM     12  C   UNL     1       2.970   2.325  19.248  0.00  0.00    +0.000 C 
BRANCH  12  13
ATOM     13  C   UNL     1       1.450   2.491  19.316  0.00  0.00    +0.000 C 
BRANCH  13  14
ATOM     14  C   UNL     1       1.081   3.821  19.958  0.00  0.00    +0.000 C 
BRANCH  14  15
ATOM     15  O   UNL     1       2.259   4.598  20.173  0.00  0.00    +0.000 OA
BRANCH  15  16
ATOM     16  C   UNL     1       2.166   5.906  19.767  0.00  0.00    +0.000 A 
ATOM     17  C   UNL     1       2.473   6.360  18.481  0.00  0.00    +0.000 A 
ATOM     18  C   UNL     1       2.351   7.715  18.161  0.00  0.00    +0.000 A 
ATOM     19  C   UNL     1       1.912   8.621  19.123  0.00  0.00    +0.000 A 
ATOM     20  C   UNL     1       1.581   8.164  20.397  0.00  0.00    +0.000 A 
ATOM     21 BR   UNL     1       0.975   9.399  21.695  0.00  0.00    +0.000 Br
ATOM     22  C   UNL     1       1.697   6.811  20.722  0.00  0.00    +0.000 A 
ENDBRANCH  15  16
ENDBRANCH  14  15
ENDBRANCH  13  14
ENDBRANCH  12  13
ENDBRANCH   2  12
TORSDOF 6
ENDMDL
