MODEL 1
REMARK VINA RESULT:      -6.2      0.000      0.000
REMARK  Name = 
REMARK  8 active torsions:
REMARK  status: ('A' for Active; 'I' for Inactive)
REMARK    1  A    between atoms: C_1  and  N_2
REMARK    2  A    between atoms: N_2  and  C_3
REMARK    3  A    between atoms: C_3  and  N_8
REMARK    4  A    between atoms: C_4  and  N_5
REMARK    5  A    between atoms: N_8  and  C_9
REMARK    6  A    between atoms: C_9  and  C_10
REMARK    7  A    between atoms: C_14  and  O_15
REMARK    8  A    between atoms: O_15  and  C_16
REMARK                            x       y       z     vdW  Elec       q    Type
REMARK                         _______ _______ _______ _____ _____    ______ ____
ROOT
ATOM      1  N   UNL     1       3.969   3.223  17.275  0.00  0.00    +0.000 N 
ATOM      2  H   UNL     1       3.518   3.557  16.431  0.00  0.00    +0.000 HD
ENDROOT
BRANCH   1   3
ATOM      3  C   UNL     1       5.232   3.797  17.383  0.00  0.00    +0.000 C 
ATOM      4  C   UNL     1       5.922   4.093  16.259  0.00  0.00    +0.000 C 
BRANCH   3   6
ATOM      5  C   UNL     1       5.926   5.268  19.326  0.00  0.00    +0.000 C 
ATOM      6  N   UNL     1       5.698   3.998  18.669  0.00  0.00    +0.000 N 
ATOM      7  H   UNL     1       6.279   3.230  19.023  0.00  0.00    +0.000 HD
ENDBRANCH   3   6
BRANCH   4   8
ATOM      8  N   UNL     1       7.240   4.669  16.241  0.00  0.00    +0.000 N 
ATOM      9  O   UNL     1       8.141   4.169  16.931  0.00  0.00    +0.000 OA
ATOM     10  O   UNL     1       7.378   5.666  15.522  0.00  0.00    +0.000 OA
ENDBRANCH   4   8
ENDBRANCH   1   3
BRANCH   1  11
ATOM     11  C   UNL     1       3.065   2.942  18.388  0.00  0.00    +0.000 C 
BRANCH  11  12
ATOM     12  C   UNL     1       1.797   3.800  18.320  0.00  0.00    +0.000 C 
ATOM     13  C   UNL     1       2.067   5.283  18.142  0.00  0.00    +0.000 C 
ATOM     14  C   UNL     1       2.352   5.746  19.554  0.00  0.00    +0.000 C 
ATOM     15  O   UNL     1       1.633   4.877  20.432  0.00  0.00    +0.000 OA
ATOM     16  C   UNL     1       1.061   3.809  19.665  0.00  0.00    +0.000 C 
BRANCH  16  17
ATOM     17  O   UNL     1       1.176   2.557  20.326  0.00  0.00    +0.000 OA
ATOM     18  C   UNL     1       1.593   2.705  21.678  0.00  0.00    +0.000 C 
ENDBRANCH  16  17
ENDBRANCH  11  12
ENDBRANCH   1  11
TORSDOF 6
ENDMDL
MODEL 2
REMARK VINA RESULT:      -6.1      2.033      5.966
REMARK  Name = 
REMARK  8 active torsions:
REMARK  status: ('A' for Active; 'I' for Inactive)
REMARK    1  A    between atoms: C_1  and  N_2
REMARK    2  A    between atoms: N_2  and  C_3
REMARK    3  A    between atoms: C_3  and  N_8
REMARK    4  A    between atoms: C_4  and  N_5
REMARK    5  A    between atoms: N_8  and  C_9
REMARK    6  A    between atoms: C_9  and  C_10
REMARK    7  A    between atoms: C_14  and  O_15
REMARK    8  A    between atoms: O_15  and  C_16
REMARK                            x       y       z     vdW  Elec       q    Type
REMARK                         _______ _______ _______ _____ _____    ______ ____
ROOT
ATOM      1  N   UNL     1       5.192   3.806  19.071  0.00  0.00    +0.000 N 
ATOM      2  H   UNL     1       5.796   3.127  19.520  0.00  0.00    +0.000 HD
ENDROOT
BRANCH   1   3
ATOM      3  C   UNL     1       3.865   3.517  19.373  0.00  0.00    +0.000 C 
ATOM      4  C   UNL     1       3.574   2.868  20.522  0.00  0.00    +0.000 C 
BRANCH   3   6
ATOM      5  C   UNL     1       2.794   3.406  17.079  0.00  0.00    +0.000 C 
ATOM      6  N   UNL     1       2.931   3.906  18.431  0.00  0.00    +0.000 N 
ATOM      7  H   UNL     1       2.584   4.863  18.563  0.00  0.00    +0.000 HD
ENDBRANCH   3   6
BRANCH   4   8
ATOM      8  N   UNL     1       2.247   2.497  20.934  0.00  0.00    +0.000 N 
ATOM      9  O   UNL     1       1.914   2.619  22.123  0.00  0.00    +0.000 OA
ATOM     10  O   UNL     1       1.514   2.055  20.042  0.00  0.00    +0.000 OA
ENDBRANCH   4   8
ENDBRANCH   1   3
BRANCH   1  11
ATOM     11  C   UNL     1       5.762   5.145  18.939  0.00  0.00    +0.000 C 
BRANCH  11  12
ATOM     12  C   UNL     1       7.229   5.097  18.503  0.00  0.00    +0.000 C 
ATOM     13  C   UNL     1       7.980   6.397  18.727  0.00  0.00    +0.000 C 
ATOM     14  C   UNL     1       7.605   7.217  17.512  0.00  0.00    +0.000 C 
ATOM     15  O   UNL     1       7.334   6.296  16.453  0.00  0.00    +0.000 OA
ATOM     16  C   UNL     1       7.352   4.962  16.981  0.00  0.00    +0.000 C 
BRANCH  16  17
ATOM     17  O   UNL     1       6.307   4.163  16.446  0.00  0.00    +0.000 OA
ATOM     18  C   UNL     1       5.791   4.703  15.235  0.00  0.00    +0.000 C 
ENDBRANCH  16  17
ENDBRANCH  11  12
ENDBRANCH   1  11
TORSDOF 6
ENDMDL
MODEL 3
REMARK VINA RESULT:      -6.0      1.402      2.024
REMARK  Name = 
REMARK  8 active torsions:
REMARK  status: ('A' for Active; 'I' for Inactive)
REMARK    1  A    between atoms: C_1  and  N_2
REMARK    2  A    between atoms: N_2  and  C_3
REMARK    3  A    between atoms: C_3  and  N_8
REMARK    4  A    between atoms: C_4  and  N_5
REMARK    5  A    between atoms: N_8  and  C_9
REMARK    6  A    between atoms: C_9  and  C_10
REMARK    7  A    between atoms: C_14  and  O_15
REMARK    8  A    between atoms: O_15  and  C_16
REMARK                            x       y       z     vdW  Elec       q    Type
REMARK                         _______ _______ _______ _____ _____    ______ ____
ROOT
ATOM      1  N   UNL     1       4.616   3.610  17.475  0.00  0.00    +0.000 N 
ATOM      2  H   UNL     1       4.234   3.952  16.601  0.00  0.00    +0.000 HD
ENDROOT
BRANCH   1   3
ATOM      3  C   UNL     1       5.822   4.253  17.735  0.00  0.00    +0.000 C 
ATOM      4  C   UNL     1       5.975   4.928  18.896  0.00  0.00    +0.000 C 
BRANCH   3   6
ATOM      5  C   UNL     1       6.558   4.167  15.312  0.00  0.00    +0.000 C 
ATOM      6  N   UNL     1       6.781   4.164  16.743  0.00  0.00    +0.000 N 
ATOM      7  H   UNL     1       7.636   3.678  17.036  0.00  0.00    +0.000 HD
ENDBRANCH   3   6
BRANCH   4   8
ATOM      8  N   UNL     1       7.164   5.646  19.269  0.00  0.00    +0.000 N 
ATOM      9  O   UNL     1       7.727   5.391  20.344  0.00  0.00    +0.000 OA
ATOM     10  O   UNL     1       7.543   6.506  18.465  0.00  0.00    +0.000 OA
ENDBRANCH   4   8
ENDBRANCH   1   3
BRANCH   1  11
ATOM     11  C   UNL     1       3.621   3.230  18.476  0.00  0.00    +0.000 C 
BRANCH  11  12
ATOM     12  C   UNL     1       2.276   3.920  18.230  0.00  0.00    +0.000 C 
ATOM     13  C   UNL     1       2.371   5.429  18.109  0.00  0.00    +0.000 C 
ATOM     14  C   UNL     1       2.384   5.884  19.552  0.00  0.00    +0.000 C 
ATOM     15  O   UNL     1       1.665   4.904  20.306  0.00  0.00    +0.000 OA
ATOM     16  C   UNL     1       1.357   3.794  19.451  0.00  0.00    +0.000 C 
BRANCH  16  17
ATOM     17  O   UNL     1       1.538   2.549  20.109  0.00  0.00    +0.000 OA
ATOM     18  C   UNL     1       1.543   2.691  21.525  0.00  0.00    +0.000 C 
ENDBRANCH  16  17
ENDBRANCH  11  12
ENDBRANCH   1  11
TORSDOF 6
ENDMDL
MODEL 4
REMARK VINA RESULT:      -6.0      2.072      5.941
REMARK  Name = 
REMARK  8 active torsions:
REMARK  status: ('A' for Active; 'I' for Inactive)
REMARK    1  A    between atoms: C_1  and  N_2
REMARK    2  A    between atoms: N_2  and  C_3
REMARK    3  A    between atoms: C_3  and  N_8
REMARK    4  A    between atoms: C_4  and  N_5
REMARK    5  A    between atoms: N_8  and  C_9
REMARK    6  A    between atoms: C_9  and  C_10
REMARK    7  A    between atoms: C_14  and  O_15
REMARK    8  A    between atoms: O_15  and  C_16
REMARK                            x       y       z     vdW  Elec       q    Type
REMARK                         _______ _______ _______ _____ _____    ______ ____
ROOT
ATOM      1  N   UNL     1       4.549   4.528  18.609  0.00  0.00    +0.000 N 
ATOM      2  H   UNL     1       3.963   5.344  18.470  0.00  0.00    +0.000 HD
ENDROOT
BRANCH   1   3
ATOM      3  C   UNL     1       3.878   3.608  19.407  0.00  0.00    +0.000 C 
ATOM      4  C   UNL     1       2.921   4.043  20.257  0.00  0.00    +0.000 C 
BRANCH   3   6
ATOM      5  C   UNL     1       3.634   1.256  18.496  0.00  0.00    +0.000 C 
ATOM      6  N   UNL     1       4.277   2.291  19.279  0.00  0.00    +0.000 N 
ATOM      7  H   UNL     1       4.812   1.940  20.082  0.00  0.00    +0.000 HD
ENDBRANCH   3   6
BRANCH   4   8
ATOM      8  N   UNL     1       2.173   3.193  21.145  0.00  0.00    +0.000 N 
ATOM      9  O   UNL     1       2.766   2.536  22.014  0.00  0.00    +0.000 OA
ATOM     10  O   UNL     1       0.951   3.171  20.960  0.00  0.00    +0.000 OA
ENDBRANCH   4   8
ENDBRANCH   1   3
BRANCH   1  11
ATOM     11  C   UNL     1       5.425   4.201  17.486  0.00  0.00    +0.000 C 
BRANCH  11  12
ATOM     12  C   UNL     1       5.131   5.073  16.262  0.00  0.00    +0.000 C 
ATOM     13  C   UNL     1       5.516   4.430  14.942  0.00  0.00    +0.000 C 
ATOM     14  C   UNL     1       6.997   4.723  14.844  0.00  0.00    +0.000 C 
ATOM     15  O   UNL     1       7.233   5.936  15.563  0.00  0.00    +0.000 OA
ATOM     16  C   UNL     1       6.026   6.318  16.239  0.00  0.00    +0.000 C 
BRANCH  16  17
ATOM     17  O   UNL     1       6.280   6.797  17.552  0.00  0.00    +0.000 OA
ATOM     18  C   UNL     1       7.605   7.294  17.690  0.00  0.00    +0.000 C 
ENDBRANCH  16  17
ENDBRANCH  11  12
ENDBRANCH   1  11
TORSDOF 6
ENDMDL
MODEL 5
REMARK VINA RESULT:      -5.9      1.512      2.555
REMARK  Name = 
REMARK  8 active torsions:
REMARK  status: ('A' for Active; 'I' for Inactive)
REMARK    1  A    between atoms: C_1  and  N_2
REMARK    2  A    between atoms: N_2  and  C_3
REMARK    3  A    between atoms: C_3  and  N_8
REMARK    4  A    between atoms: C_4  and  N_5
REMARK    5  A    between atoms: N_8  and  C_9
REMARK    6  A    between atoms: C_9  and  C_10
REMARK    7  A    between atoms: C_14  and  O_15
REMARK    8  A    between atoms: O_15  and  C_16
REMARK                            x       y       z     vdW  Elec       q    Type
REMARK                         _______ _______ _______ _____ _____    ______ ____
ROOT
ATOM      1  N   UNL     1       5.361   3.666  18.943  0.00  0.00    +0.000 N 
ATOM      2  H   UNL     1       5.944   3.195  19.626  0.00  0.00    +0.000 HD
ENDROOT
BRANCH   1   3
ATOM      3  C   UNL     1       6.169   4.321  18.019  0.00  0.00    +0.000 C 
ATOM      4  C   UNL     1       5.701   4.542  16.771  0.00  0.00    +0.000 C 
BRANCH   3   6
ATOM      5  C   UNL     1       7.821   5.938  19.057  0.00  0.00    +0.000 C 
ATOM      6  N   UNL     1       7.429   4.677  18.463  0.00  0.00    +0.000 N 
ATOM      7  H   UNL     1       8.191   4.181  17.986  0.00  0.00    +0.000 HD
ENDBRANCH   3   6
BRANCH   4   8
ATOM      8  N   UNL     1       6.447   5.190  15.725  0.00  0.00    +0.000 N 
ATOM      9  O   UNL     1       5.917   6.091  15.057  0.00  0.00    +0.000 OA
ATOM     10  O   UNL     1       7.600   4.776  15.556  0.00  0.00    +0.000 OA
ENDBRANCH   4   8
ENDBRANCH   1   3
BRANCH   1  11
ATOM     11  C   UNL     1       4.097   2.996  18.644  0.00  0.00    +0.000 C 
BRANCH  11  12
ATOM     12  C   UNL     1       3.034   3.289  19.707  0.00  0.00    +0.000 C 
ATOM     13  C   UNL     1       1.986   2.200  19.846  0.00  0.00    +0.000 C 
ATOM     14  C   UNL     1       1.016   2.520  18.729  0.00  0.00    +0.000 C 
ATOM     15  O   UNL     1       1.084   3.931  18.509  0.00  0.00    +0.000 OA
ATOM     16  C   UNL     1       2.152   4.475  19.297  0.00  0.00    +0.000 C 
BRANCH  16  17
ATOM     17  O   UNL     1       2.896   5.451  18.584  0.00  0.00    +0.000 OA
ATOM     18  C   UNL     1       2.634   6.768  19.053  0.00  0.00    +0.000 C 
ENDBRANCH  16  17
ENDBRANCH  11  12
ENDBRANCH   1  11
TORSDOF 6
ENDMDL
MODEL 6
REMARK VINA RESULT:      -5.9      1.958      5.930
REMARK  Name = 
REMARK  8 active torsions:
REMARK  status: ('A' for Active; 'I' for Inactive)
REMARK    1  A    between atoms: C_1  and  N_2
REMARK    2  A    between atoms: N_2  and  C_3
REMARK    3  A    between atoms: C_3  and  N_8
REMARK    4  A    between atoms: C_4  and  N_5
REMARK    5  A    between atoms: N_8  and  C_9
REMARK    6  A    between atoms: C_9  and  C_10
REMARK    7  A    between atoms: C_14  and  O_15
REMARK    8  A    between atoms: O_15  and  C_16
REMARK                            x       y       z     vdW  Elec       q    Type
REMARK                         _______ _______ _______ _____ _____    ______ ____
ROOT
ATOM      1  N   UNL     1       4.515   3.471  17.471  0.00  0.00    +0.000 N 
ATOM      2  H   UNL     1       5.050   2.787  16.947  0.00  0.00    +0.000 HD
ENDROOT
BRANCH   1   3
ATOM      3  C   UNL     1       3.563   2.817  18.246  0.00  0.00    +0.000 C 
ATOM      4  C   UNL     1       2.278   3.234  18.207  0.00  0.00    +0.000 C 
BRANCH   3   6
ATOM      5  C   UNL     1       4.642   1.889  20.343  0.00  0.00    +0.000 C 
ATOM      6  N   UNL     1       4.031   1.782  19.034  0.00  0.00    +0.000 N 
ATOM      7  H   UNL     1       4.320   0.954  18.501  0.00  0.00    +0.000 HD
ENDBRANCH   3   6
BRANCH   4   8
ATOM      8  N   UNL     1       1.210   2.653  18.976  0.00  0.00    +0.000 N 
ATOM      9  O   UNL     1       0.297   2.043  18.399  0.00  0.00    +0.000 OA
ATOM     10  O   UNL     1       1.278   2.823  20.199  0.00  0.00    +0.000 OA
ENDBRANCH   4   8
ENDBRANCH   1   3
BRANCH   1  11
ATOM     11  C   UNL     1       5.258   4.666  17.864  0.00  0.00    +0.000 C 
BRANCH  11  12
ATOM     12  C   UNL     1       6.751   4.535  17.550  0.00  0.00    +0.000 C 
ATOM     13  C   UNL     1       7.641   5.410  18.415  0.00  0.00    +0.000 C 
ATOM     14  C   UNL     1       7.572   6.753  17.721  0.00  0.00    +0.000 C 
ATOM     15  O   UNL     1       7.329   6.495  16.335  0.00  0.00    +0.000 OA
ATOM     16  C   UNL     1       7.076   5.094  16.160  0.00  0.00    +0.000 C 
BRANCH  16  17
ATOM     17  O   UNL     1       6.017   4.855  15.245  0.00  0.00    +0.000 OA
ATOM     18  C   UNL     1       6.430   4.044  14.152  0.00  0.00    +0.000 C 
ENDBRANCH  16  17
ENDBRANCH  11  12
ENDBRANCH   1  11
TORSDOF 6
ENDMDL
MODEL 7
REMARK VINA RESULT:      -5.9      1.673      2.065
REMARK  Name = 
REMARK  8 active torsions:
REMARK  status: ('A' for Active; 'I' for Inactive)
REMARK    1  A    between atoms: C_1  and  N_2
REMARK    2  A    between atoms: N_2  and  C_3
REMARK    3  A    between atoms: C_3  and  N_8
REMARK    4  A    between atoms: C_4  and  N_5
REMARK    5  A    between atoms: N_8  and  C_9
REMARK    6  A    between atoms: C_9  and  C_10
REMARK    7  A    between atoms: C_14  and  O_15
REMARK    8  A    between atoms: O_15  and  C_16
REMARK                            x       y       z     vdW  Elec       q    Type
REMARK                         _______ _______ _______ _____ _____    ______ ____
ROOT
ATOM      1  N   UNL     1       4.969   3.368  17.036  0.00  0.00    +0.000 N 
ATOM      2  H   UNL     1       4.340   2.853  16.430  0.00  0.00    +0.000 HD
ENDROOT
BRANCH   1   3
ATOM      3  C   UNL     1       6.001   3.910  16.277  0.00  0.00    +0.000 C 
ATOM      4  C   UNL     1       5.822   4.092  14.950  0.00  0.00    +0.000 C 
BRANCH   3   6
ATOM      5  C   UNL     1       7.412   5.339  17.823  0.00  0.00    +0.000 C 
ATOM      6  N   UNL     1       7.167   4.201  16.962  0.00  0.00    +0.000 N 
ATOM      7  H   UNL     1       8.011   3.813  16.525  0.00  0.00    +0.000 HD
ENDBRANCH   3   6
BRANCH   4   8
ATOM      8  N   UNL     1       6.818   4.625  14.060  0.00  0.00    +0.000 N 
ATOM      9  O   UNL     1       7.613   5.485  14.468  0.00  0.00    +0.000 OA
ATOM     10  O   UNL     1       6.799   4.177  12.908  0.00  0.00    +0.000 OA
ENDBRANCH   4   8
ENDBRANCH   1   3
BRANCH   1  11
ATOM     11  C   UNL     1       4.332   4.006  18.186  0.00  0.00    +0.000 C 
BRANCH  11  12
ATOM     12  C   UNL     1       3.255   5.006  17.757  0.00  0.00    +0.000 C 
ATOM     13  C   UNL     1       3.157   6.228  18.652  0.00  0.00    +0.000 C 
ATOM     14  C   UNL     1       2.300   5.737  19.799  0.00  0.00    +0.000 C 
ATOM     15  O   UNL     1       1.454   4.709  19.279  0.00  0.00    +0.000 OA
ATOM     16  C   UNL     1       1.850   4.417  17.932  0.00  0.00    +0.000 C 
BRANCH  16  17
ATOM     17  O   UNL     1       1.836   3.023  17.663  0.00  0.00    +0.000 OA
ATOM     18  C   UNL     1       1.157   2.292  18.676  0.00  0.00    +0.000 C 
ENDBRANCH  16  17
ENDBRANCH  11  12
ENDBRANCH   1  11
TORSDOF 6
ENDMDL
MODEL 8
REMARK VINA RESULT:      -5.9      2.044      6.002
REMARK  Name = 
REMARK  8 active torsions:
REMARK  status: ('A' for Active; 'I' for Inactive)
REMARK    1  A    between atoms: C_1  and  N_2
REMARK    2  A    between atoms: N_2  and  C_3
REMARK    3  A    between atoms: C_3  and  N_8
REMARK    4  A    between atoms: C_4  and  N_5
REMARK    5  A    between atoms: N_8  and  C_9
REMARK    6  A    between atoms: C_9  and  C_10
REMARK    7  A    between atoms: C_14  and  O_15
REMARK    8  A    between atoms: O_15  and  C_16
REMARK                            x       y       z     vdW  Elec       q    Type
REMARK                         _______ _______ _______ _____ _____    ______ ____
ROOT
ATOM      1  N   UNL     1       5.589   3.839  18.931  0.00  0.00    +0.000 N 
ATOM      2  H   UNL     1       6.326   3.187  19.174  0.00  0.00    +0.000 HD
ENDROOT
BRANCH   1   3
ATOM      3  C   UNL     1       4.377   3.375  19.431  0.00  0.00    +0.000 C 
ATOM      4  C   UNL     1       3.461   4.263  19.877  0.00  0.00    +0.000 C 
BRANCH   3   6
ATOM      5  C   UNL     1       3.747   1.160  18.375  0.00  0.00    +0.000 C 
ATOM      6  N   UNL     1       4.218   2.002  19.454  0.00  0.00    +0.000 N 
ATOM      7  H   UNL     1       4.047   1.621  20.392  0.00  0.00    +0.000 HD
ENDBRANCH   3   6
BRANCH   4   8
ATOM      8  N   UNL     1       2.184   3.906  20.432  0.00  0.00    +0.000 N 
ATOM      9  O   UNL     1       1.285   3.484  19.689  0.00  0.00    +0.000 OA
ATOM     10  O   UNL     1       2.069   4.064  21.653  0.00  0.00    +0.000 OA
ENDBRANCH   4   8
ENDBRANCH   1   3
BRANCH   1  11
ATOM     11  C   UNL     1       6.003   5.239  18.867  0.00  0.00    +0.000 C 
BRANCH  11  12
ATOM     12  C   UNL     1       7.466   5.381  18.438  0.00  0.00    +0.000 C 
ATOM     13  C   UNL     1       8.046   6.763  18.676  0.00  0.00    +0.000 C 
ATOM     14  C   UNL     1       7.575   7.540  17.465  0.00  0.00    +0.000 C 
ATOM     15  O   UNL     1       7.426   6.600  16.398  0.00  0.00    +0.000 OA
ATOM     16  C   UNL     1       7.610   5.275  16.915  0.00  0.00    +0.000 C 
BRANCH  16  17
ATOM     17  O   UNL     1       6.675   4.356  16.369  0.00  0.00    +0.000 OA
ATOM     18  C   UNL     1       6.605   4.447  14.951  0.00  0.00    +0.000 C 
ENDBRANCH  16  17
ENDBRANCH  11  12
ENDBRANCH   1  11
TORSDOF 6
ENDMDL
MODEL 9
REMARK VINA RESULT:      -5.9      1.787      2.501
REMARK  Name = 
REMARK  8 active torsions:
REMARK  status: ('A' for Active; 'I' for Inactive)
REMARK    1  A    between atoms: C_1  and  N_2
REMARK    2  A    between atoms: N_2  and  C_3
REMARK    3  A    between atoms: C_3  and  N_8
REMARK    4  A    between atoms: C_4  and  N_5
REMARK    5  A    between atoms: N_8  and  C_9
REMARK    6  A    between atoms: C_9  and  C_10
REMARK    7  A    between atoms: C_14  and  O_15
REMARK    8  A    between atoms: O_15  and  C_16
REMARK                            x       y       z     vdW  Elec       q    Type
REMARK                         _______ _______ _______ _____ _____    ______ ____
ROOT
ATOM      1  N   UNL     1       6.046   3.889  18.196  0.00  0.00    +0.000 N 
ATOM      2  H   UNL     1       5.834   3.222  17.462  0.00  0.00    +0.000 HD
ENDROOT
BRANCH   1   3
ATOM      3  C   UNL     1       6.851   4.901  17.682  0.00  0.00    +0.000 C 
ATOM      4  C   UNL     1       6.966   6.064  18.360  0.00  0.00    +0.000 C 
BRANCH   3   6
ATOM      5  C   UNL     1       6.812   4.396  15.199  0.00  0.00    +0.000 C 
ATOM      6  N   UNL     1       7.462   4.632  16.471  0.00  0.00    +0.000 N 
ATOM      7  H   UNL     1       8.383   4.188  16.562  0.00  0.00    +0.000 HD
ENDBRANCH   3   6
BRANCH   4   8
ATOM      8  N   UNL     1       7.751   7.187  17.922  0.00  0.00    +0.000 N 
ATOM      9  O   UNL     1       7.634   7.605  16.760  0.00  0.00    +0.000 OA
ATOM     10  O   UNL     1       8.520   7.663  18.766  0.00  0.00    +0.000 OA
ENDBRANCH   4   8
ENDBRANCH   1   3
BRANCH   1  11
ATOM     11  C   UNL     1       4.994   4.064  19.194  0.00  0.00    +0.000 C 
BRANCH  11  12
ATOM     12  C   UNL     1       3.607   4.146  18.550  0.00  0.00    +0.000 C 
ATOM     13  C   UNL     1       3.244   5.531  18.046  0.00  0.00    +0.000 C 
ATOM     14  C   UNL     1       2.747   6.225  19.296  0.00  0.00    +0.000 C 
ATOM     15  O   UNL     1       2.212   5.212  20.152  0.00  0.00    +0.000 OA
ATOM     16  C   UNL     1       2.499   3.926  19.587  0.00  0.00    +0.000 C 
BRANCH  16  17
ATOM     17  O   UNL     1       2.896   2.986  20.575  0.00  0.00    +0.000 OA
ATOM     18  C   UNL     1       1.871   2.759  21.535  0.00  0.00    +0.000 C 
ENDBRANCH  16  17
ENDBRANCH  11  12
ENDBRANCH   1  11
TORSDOF 6
ENDMDL
