MODEL 1
REMARK VINA RESULT:      -7.8      0.000      0.000
REMARK  Name = 
REMARK  8 active torsions:
REMARK  status: ('A' for Active; 'I' for Inactive)
REMARK    1  A    between atoms: C_1  and  C_2
REMARK    2  A    between atoms: N_4  and  C_5
REMARK    3  A    between atoms: C_5  and  C_6
REMARK    4  A    between atoms: C_5  and  C_16
REMARK    5  A    between atoms: C_6  and  C_7
REMARK    6  A    between atoms: C_7  and  C_9
REMARK    7  A    between atoms: C_11  and  C_12
REMARK    8  A    between atoms: C_14  and  C_15
REMARK                            x       y       z     vdW  Elec       q    Type
REMARK                         _______ _______ _______ _____ _____    ______ ____
ROOT
ATOM      1  C   UNL     1       2.902   5.433  19.883  0.00  0.00    +0.000 C 
ENDROOT
BRANCH   1   2
ATOM      2  C   UNL     1       2.334   6.812  19.548  0.00  0.00    +0.000 A 
ATOM      3  C   UNL     1       1.686   7.568  20.538  0.00  0.00    +0.000 A 
ATOM      4  C   UNL     1       1.165   8.832  20.242  0.00  0.00    +0.000 A 
ATOM      5  C   UNL     1       1.284   9.349  18.955  0.00  0.00    +0.000 A 
ATOM      6 CL   UNL     1       0.634  10.900  18.589  0.00  0.00    +0.000 Cl
ATOM      7  C   UNL     1       1.922   8.617  17.959  0.00  0.00    +0.000 A 
ATOM      8  C   UNL     1       2.444   7.355  18.252  0.00  0.00    +0.000 A 
ENDBRANCH   1   2
BRANCH   1  12
ATOM      9  C   UNL     1       0.668   2.594  18.767  0.00  0.00    +0.000 C 
ATOM     10  C   UNL     1       1.338   3.533  19.732  0.00  0.00    +0.000 C 
ATOM     11  O   UNL     1       1.117   3.508  20.937  0.00  0.00    +0.000 OA
ATOM     12  N   UNL     1       2.191   4.422  19.116  0.00  0.00    +0.000 N 
ATOM     13  H   UNL     1       2.151   4.501  18.109  0.00  0.00    +0.000 HD
ENDBRANCH   1  12
BRANCH   1  14
ATOM     14  C   UNL     1       4.406   5.432  19.608  0.00  0.00    +0.000 C 
BRANCH  14  15
ATOM     15  C   UNL     1       4.949   4.163  18.960  0.00  0.00    +0.000 C 
ATOM     16  O   UNL     1       4.867   3.059  19.486  0.00  0.00    +0.000 OA
BRANCH  15  17
ATOM     17  C   UNL     1       5.578   4.352  17.641  0.00  0.00    +0.000 A 
ATOM     18  C   UNL     1       4.982   3.957  16.391  0.00  0.00    +0.000 A 
ATOM     19  C   UNL     1       5.776   4.220  15.301  0.00  0.00    +0.000 A 
ATOM     20  C   UNL     1       5.469   3.964  13.867  0.00  0.00    +0.000 C 
ATOM     21  S   UNL     1       7.255   4.926  15.765  0.00  0.00    +0.000 S 
ATOM     22  C   UNL     1       6.832   4.909  17.429  0.00  0.00    +0.000 A 
ATOM     23  C   UNL     1       7.813   5.430  18.432  0.00  0.00    +0.000 C 
ENDBRANCH  15  17
ENDBRANCH  14  15
ENDBRANCH   1  14
TORSDOF 5
ENDMDL
MODEL 2
REMARK VINA RESULT:      -7.8      0.016      1.030
REMARK  Name = 
REMARK  8 active torsions:
REMARK  status: ('A' for Active; 'I' for Inactive)
REMARK    1  A    between atoms: C_1  and  C_2
REMARK    2  A    between atoms: N_4  and  C_5
REMARK    3  A    between atoms: C_5  and  C_6
REMARK    4  A    between atoms: C_5  and  C_16
REMARK    5  A    between atoms: C_6  and  C_7
REMARK    6  A    between atoms: C_7  and  C_9
REMARK    7  A    between atoms: C_11  and  C_12
REMARK    8  A    between atoms: C_14  and  C_15
REMARK                            x       y       z     vdW  Elec       q    Type
REMARK                         _______ _______ _______ _____ _____    ______ ____
ROOT
ATOM      1  C   UNL     1       2.902   5.431  19.890  0.00  0.00    +0.000 C 
ENDROOT
BRANCH   1   2
ATOM      2  C   UNL     1       2.333   6.813  19.568  0.00  0.00    +0.000 A 
ATOM      3  C   UNL     1       2.463   7.346  18.276  0.00  0.00    +0.000 A 
ATOM      4  C   UNL     1       1.943   8.609  17.971  0.00  0.00    +0.000 A 
ATOM      5  C   UNL     1       1.293   9.350  18.954  0.00  0.00    +0.000 A 
ATOM      6 CL   UNL     1       0.663  10.907  18.581  0.00  0.00    +0.000 Cl
ATOM      7  C   UNL     1       1.155   8.840  20.241  0.00  0.00    +0.000 A 
ATOM      8  C   UNL     1       1.671   7.579  20.548  0.00  0.00    +0.000 A 
ENDBRANCH   1   2
BRANCH   1  12
ATOM      9  C   UNL     1       0.651   2.606  18.775  0.00  0.00    +0.000 C 
ATOM     10  C   UNL     1       1.329   3.540  19.740  0.00  0.00    +0.000 C 
ATOM     11  O   UNL     1       1.112   3.512  20.946  0.00  0.00    +0.000 OA
ATOM     12  N   UNL     1       2.184   4.426  19.123  0.00  0.00    +0.000 N 
ATOM     13  H   UNL     1       2.141   4.508  18.117  0.00  0.00    +0.000 HD
ENDBRANCH   1  12
BRANCH   1  14
ATOM     14  C   UNL     1       4.404   5.430  19.604  0.00  0.00    +0.000 C 
BRANCH  14  15
ATOM     15  C   UNL     1       4.943   4.159  18.955  0.00  0.00    +0.000 C 
ATOM     16  O   UNL     1       4.856   3.055  19.480  0.00  0.00    +0.000 OA
BRANCH  15  17
ATOM     17  C   UNL     1       5.573   4.347  17.636  0.00  0.00    +0.000 A 
ATOM     18  C   UNL     1       4.976   3.955  16.386  0.00  0.00    +0.000 A 
ATOM     19  C   UNL     1       5.771   4.216  15.297  0.00  0.00    +0.000 A 
ATOM     20  C   UNL     1       5.463   3.962  13.862  0.00  0.00    +0.000 C 
ATOM     21  S   UNL     1       7.253   4.916  15.762  0.00  0.00    +0.000 S 
ATOM     22  C   UNL     1       6.828   4.899  17.425  0.00  0.00    +0.000 A 
ATOM     23  C   UNL     1       7.811   5.416  18.429  0.00  0.00    +0.000 C 
ENDBRANCH  15  17
ENDBRANCH  14  15
ENDBRANCH   1  14
TORSDOF 5
ENDMDL
MODEL 3
REMARK VINA RESULT:      -7.3      1.126      1.242
REMARK  Name = 
REMARK  8 active torsions:
REMARK  status: ('A' for Active; 'I' for Inactive)
REMARK    1  A    between atoms: C_1  and  C_2
REMARK    2  A    between atoms: N_4  and  C_5
REMARK    3  A    between atoms: C_5  and  C_6
REMARK    4  A    between atoms: C_5  and  C_16
REMARK    5  A    between atoms: C_6  and  C_7
REMARK    6  A    between atoms: C_7  and  C_9
REMARK    7  A    between atoms: C_11  and  C_12
REMARK    8  A    between atoms: C_14  and  C_15
REMARK                            x       y       z     vdW  Elec       q    Type
REMARK                         _______ _______ _______ _____ _____    ______ ____
ROOT
ATOM      1  C   UNL     1       2.947   6.108  19.069  0.00  0.00    +0.000 C 
ENDROOT
BRANCH   1   2
ATOM      2  C   UNL     1       2.220   7.451  19.148  0.00  0.00    +0.000 A 
ATOM      3  C   UNL     1       1.649   7.874  20.358  0.00  0.00    +0.000 A 
ATOM      4  C   UNL     1       0.983   9.101  20.441  0.00  0.00    +0.000 A 
ATOM      5  C   UNL     1       0.881   9.914  19.316  0.00  0.00    +0.000 A 
ATOM      6 CL   UNL     1       0.054  11.420  19.416  0.00  0.00    +0.000 Cl
ATOM      7  C   UNL     1       1.439   9.514  18.106  0.00  0.00    +0.000 A 
ATOM      8  C   UNL     1       2.105   8.289  18.022  0.00  0.00    +0.000 A 
ENDBRANCH   1   2
BRANCH   1  12
ATOM      9  C   UNL     1       0.730   3.299  20.289  0.00  0.00    +0.000 C 
ATOM     10  C   UNL     1       1.805   4.349  20.364  0.00  0.00    +0.000 C 
ATOM     11  O   UNL     1       2.434   4.575  21.390  0.00  0.00    +0.000 OA
ATOM     12  N   UNL     1       1.978   5.030  19.179  0.00  0.00    +0.000 N 
ATOM     13  H   UNL     1       1.280   4.916  18.457  0.00  0.00    +0.000 HD
ENDBRANCH   1  12
BRANCH   1  14
ATOM     14  C   UNL     1       3.750   6.050  17.769  0.00  0.00    +0.000 C 
BRANCH  14  15
ATOM     15  C   UNL     1       4.664   4.839  17.621  0.00  0.00    +0.000 C 
ATOM     16  O   UNL     1       4.733   3.950  18.462  0.00  0.00    +0.000 OA
BRANCH  15  17
ATOM     17  C   UNL     1       5.462   4.803  16.383  0.00  0.00    +0.000 A 
ATOM     18  C   UNL     1       5.116   4.036  15.214  0.00  0.00    +0.000 A 
ATOM     19  C   UNL     1       6.031   4.151  14.196  0.00  0.00    +0.000 A 
ATOM     20  C   UNL     1       5.980   3.517  12.849  0.00  0.00    +0.000 C 
ATOM     21  S   UNL     1       7.328   5.163  14.637  0.00  0.00    +0.000 S 
ATOM     22  C   UNL     1       6.659   5.477  16.186  0.00  0.00    +0.000 A 
ATOM     23  C   UNL     1       7.407   6.364  17.132  0.00  0.00    +0.000 C 
ENDBRANCH  15  17
ENDBRANCH  14  15
ENDBRANCH   1  14
TORSDOF 5
ENDMDL
MODEL 4
REMARK VINA RESULT:      -7.2      1.035      1.490
REMARK  Name = 
REMARK  8 active torsions:
REMARK  status: ('A' for Active; 'I' for Inactive)
REMARK    1  A    between atoms: C_1  and  C_2
REMARK    2  A    between atoms: N_4  and  C_5
REMARK    3  A    between atoms: C_5  and  C_6
REMARK    4  A    between atoms: C_5  and  C_16
REMARK    5  A    between atoms: C_6  and  C_7
REMARK    6  A    between atoms: C_7  and  C_9
REMARK    7  A    between atoms: C_11  and  C_12
REMARK    8  A    between atoms: C_14  and  C_15
REMARK                            x       y       z     vdW  Elec       q    Type
REMARK                         _______ _______ _______ _____ _____    ______ ____
ROOT
ATOM      1  C   UNL     1       3.002   6.037  19.367  0.00  0.00    +0.000 C 
ENDROOT
BRANCH   1   2
ATOM      2  C   UNL     1       2.234   7.354  19.479  0.00  0.00    +0.000 A 
ATOM      3  C   UNL     1       2.115   8.198  18.364  0.00  0.00    +0.000 A 
ATOM      4  C   UNL     1       1.412   9.404  18.455  0.00  0.00    +0.000 A 
ATOM      5  C   UNL     1       0.825   9.777  19.661  0.00  0.00    +0.000 A 
ATOM      6 CL   UNL     1      -0.032  11.266  19.776  0.00  0.00    +0.000 Cl
ATOM      7  C   UNL     1       0.931   8.956  20.779  0.00  0.00    +0.000 A 
ATOM      8  C   UNL     1       1.632   7.750  20.689  0.00  0.00    +0.000 A 
ENDBRANCH   1   2
BRANCH   1  12
ATOM      9  C   UNL     1       0.767   3.074  20.089  0.00  0.00    +0.000 C 
ATOM     10  C   UNL     1       1.803   4.129  20.366  0.00  0.00    +0.000 C 
ATOM     11  O   UNL     1       2.338   4.254  21.461  0.00  0.00    +0.000 OA
ATOM     12  N   UNL     1       2.056   4.936  19.279  0.00  0.00    +0.000 N 
ATOM     13  H   UNL     1       1.424   4.888  18.492  0.00  0.00    +0.000 HD
ENDBRANCH   1  12
BRANCH   1  14
ATOM     14  C   UNL     1       3.941   6.106  18.163  0.00  0.00    +0.000 C 
BRANCH  14  15
ATOM     15  C   UNL     1       4.777   4.855  17.916  0.00  0.00    +0.000 C 
ATOM     16  O   UNL     1       4.832   3.923  18.710  0.00  0.00    +0.000 OA
BRANCH  15  17
ATOM     17  C   UNL     1       5.516   4.836  16.641  0.00  0.00    +0.000 A 
ATOM     18  C   UNL     1       5.148   4.040  15.499  0.00  0.00    +0.000 A 
ATOM     19  C   UNL     1       6.009   4.179  14.437  0.00  0.00    +0.000 A 
ATOM     20  C   UNL     1       5.922   3.527  13.101  0.00  0.00    +0.000 C 
ATOM     21  S   UNL     1       7.281   5.251  14.804  0.00  0.00    +0.000 S 
ATOM     22  C   UNL     1       6.672   5.558  16.381  0.00  0.00    +0.000 A 
ATOM     23  C   UNL     1       7.426   6.488  17.279  0.00  0.00    +0.000 C 
ENDBRANCH  15  17
ENDBRANCH  14  15
ENDBRANCH   1  14
TORSDOF 5
ENDMDL
MODEL 5
REMARK VINA RESULT:      -7.1      1.543      2.462
REMARK  Name = 
REMARK  8 active torsions:
REMARK  status: ('A' for Active; 'I' for Inactive)
REMARK    1  A    between atoms: C_1  and  C_2
REMARK    2  A    between atoms: N_4  and  C_5
REMARK    3  A    between atoms: C_5  and  C_6
REMARK    4  A    between atoms: C_5  and  C_16
REMARK    5  A    between atoms: C_6  and  C_7
REMARK    6  A    between atoms: C_7  and  C_9
REMARK    7  A    between atoms: C_11  and  C_12
REMARK    8  A    between atoms: C_14  and  C_15
REMARK                            x       y       z     vdW  Elec       q    Type
REMARK                         _______ _______ _______ _____ _____    ______ ____
ROOT
ATOM      1  C   UNL     1       2.748   5.275  19.241  0.00  0.00    +0.000 C 
ENDROOT
BRANCH   1   2
ATOM      2  C   UNL     1       2.271   6.728  19.248  0.00  0.00    +0.000 A 
ATOM      3  C   UNL     1       1.710   7.281  20.409  0.00  0.00    +0.000 A 
ATOM      4  C   UNL     1       1.273   8.610  20.426  0.00  0.00    +0.000 A 
ATOM      5  C   UNL     1       1.391   9.395  19.283  0.00  0.00    +0.000 A 
ATOM      6 CL   UNL     1       0.845  11.027  19.301  0.00  0.00    +0.000 Cl
ATOM      7  C   UNL     1       1.944   8.866  18.121  0.00  0.00    +0.000 A 
ATOM      8  C   UNL     1       2.382   7.540  18.102  0.00  0.00    +0.000 A 
ENDBRANCH   1   2
BRANCH   1  12
ATOM      9  C   UNL     1       1.373   2.690  21.633  0.00  0.00    +0.000 C 
ATOM     10  C   UNL     1       2.377   3.337  20.719  0.00  0.00    +0.000 C 
ATOM     11  O   UNL     1       3.502   2.883  20.548  0.00  0.00    +0.000 OA
ATOM     12  N   UNL     1       1.906   4.490  20.129  0.00  0.00    +0.000 N 
ATOM     13  H   UNL     1       1.051   4.893  20.485  0.00  0.00    +0.000 HD
ENDBRANCH   1  12
BRANCH   1  14
ATOM     14  C   UNL     1       2.739   4.753  17.804  0.00  0.00    +0.000 C 
BRANCH  14  15
ATOM     15  C   UNL     1       4.051   4.143  17.324  0.00  0.00    +0.000 C 
ATOM     16  O   UNL     1       4.112   3.059  16.753  0.00  0.00    +0.000 OA
BRANCH  15  17
ATOM     17  C   UNL     1       5.253   4.954  17.586  0.00  0.00    +0.000 A 
ATOM     18  C   UNL     1       6.125   4.775  18.717  0.00  0.00    +0.000 A 
ATOM     19  C   UNL     1       7.166   5.671  18.750  0.00  0.00    +0.000 A 
ATOM     20  C   UNL     1       8.260   5.761  19.757  0.00  0.00    +0.000 C 
ATOM     21  S   UNL     1       7.099   6.751  17.434  0.00  0.00    +0.000 S 
ATOM     22  C   UNL     1       5.689   6.009  16.796  0.00  0.00    +0.000 A 
ATOM     23  C   UNL     1       5.081   6.564  15.546  0.00  0.00    +0.000 C 
ENDBRANCH  15  17
ENDBRANCH  14  15
ENDBRANCH   1  14
TORSDOF 5
ENDMDL
MODEL 6
REMARK VINA RESULT:      -7.0      1.256      2.545
REMARK  Name = 
REMARK  8 active torsions:
REMARK  status: ('A' for Active; 'I' for Inactive)
REMARK    1  A    between atoms: C_1  and  C_2
REMARK    2  A    between atoms: N_4  and  C_5
REMARK    3  A    between atoms: C_5  and  C_6
REMARK    4  A    between atoms: C_5  and  C_16
REMARK    5  A    between atoms: C_6  and  C_7
REMARK    6  A    between atoms: C_7  and  C_9
REMARK    7  A    between atoms: C_11  and  C_12
REMARK    8  A    between atoms: C_14  and  C_15
REMARK                            x       y       z     vdW  Elec       q    Type
REMARK                         _______ _______ _______ _____ _____    ______ ____
ROOT
ATOM      1  C   UNL     1       2.680   5.052  19.371  0.00  0.00    +0.000 C 
ENDROOT
BRANCH   1   2
ATOM      2  C   UNL     1       2.247   6.518  19.346  0.00  0.00    +0.000 A 
ATOM      3  C   UNL     1       2.391   7.277  18.175  0.00  0.00    +0.000 A 
ATOM      4  C   UNL     1       1.996   8.619  18.142  0.00  0.00    +0.000 A 
ATOM      5  C   UNL     1       1.456   9.213  19.280  0.00  0.00    +0.000 A 
ATOM      6 CL   UNL     1       0.979  10.866  19.242  0.00  0.00    +0.000 Cl
ATOM      7  C   UNL     1       1.305   8.479  20.452  0.00  0.00    +0.000 A 
ATOM      8  C   UNL     1       1.698   7.139  20.486  0.00  0.00    +0.000 A 
ENDBRANCH   1   2
BRANCH   1  12
ATOM      9  C   UNL     1       1.302   2.601  21.899  0.00  0.00    +0.000 C 
ATOM     10  C   UNL     1       2.305   3.193  20.945  0.00  0.00    +0.000 C 
ATOM     11  O   UNL     1       3.423   2.720  20.788  0.00  0.00    +0.000 OA
ATOM     12  N   UNL     1       1.838   4.320  20.304  0.00  0.00    +0.000 N 
ATOM     13  H   UNL     1       0.990   4.748  20.647  0.00  0.00    +0.000 HD
ENDBRANCH   1  12
BRANCH   1  14
ATOM     14  C   UNL     1       2.616   4.488  17.951  0.00  0.00    +0.000 C 
BRANCH  14  15
ATOM     15  C   UNL     1       3.789   3.601  17.549  0.00  0.00    +0.000 C 
ATOM     16  O   UNL     1       3.668   2.406  17.307  0.00  0.00    +0.000 OA
BRANCH  15  17
ATOM     17  C   UNL     1       5.092   4.285  17.461  0.00  0.00    +0.000 A 
ATOM     18  C   UNL     1       5.847   4.747  18.596  0.00  0.00    +0.000 A 
ATOM     19  C   UNL     1       7.020   5.373  18.252  0.00  0.00    +0.000 A 
ATOM     20  C   UNL     1       8.047   5.950  19.164  0.00  0.00    +0.000 C 
ATOM     21  S   UNL     1       7.220   5.434  16.562  0.00  0.00    +0.000 S 
ATOM     22  C   UNL     1       5.748   4.597  16.279  0.00  0.00    +0.000 A 
ATOM     23  C   UNL     1       5.324   4.335  14.867  0.00  0.00    +0.000 C 
ENDBRANCH  15  17
ENDBRANCH  14  15
ENDBRANCH   1  14
TORSDOF 5
ENDMDL
MODEL 7
REMARK VINA RESULT:      -6.8      3.001      5.267
REMARK  Name = 
REMARK  8 active torsions:
REMARK  status: ('A' for Active; 'I' for Inactive)
REMARK    1  A    between atoms: C_1  and  C_2
REMARK    2  A    between atoms: N_4  and  C_5
REMARK    3  A    between atoms: C_5  and  C_6
REMARK    4  A    between atoms: C_5  and  C_16
REMARK    5  A    between atoms: C_6  and  C_7
REMARK    6  A    between atoms: C_7  and  C_9
REMARK    7  A    between atoms: C_11  and  C_12
REMARK    8  A    between atoms: C_14  and  C_15
REMARK                            x       y       z     vdW  Elec       q    Type
REMARK                         _______ _______ _______ _____ _____    ______ ____
ROOT
ATOM      1  C   UNL     1       4.874   3.896  17.837  0.00  0.00    +0.000 C 
ENDROOT
BRANCH   1   2
ATOM      2  C   UNL     1       5.812   5.103  17.894  0.00  0.00    +0.000 A 
ATOM      3  C   UNL     1       5.593   6.207  17.056  0.00  0.00    +0.000 A 
ATOM      4  C   UNL     1       6.444   7.317  17.104  0.00  0.00    +0.000 A 
ATOM      5  C   UNL     1       7.520   7.330  17.986  0.00  0.00    +0.000 A 
ATOM      6 CL   UNL     1       8.572   8.691  18.038  0.00  0.00    +0.000 Cl
ATOM      7  C   UNL     1       7.756   6.246  18.825  0.00  0.00    +0.000 A 
ATOM      8  C   UNL     1       6.906   5.137  18.780  0.00  0.00    +0.000 A 
ENDBRANCH   1   2
BRANCH   1  12
ATOM      9  C   UNL     1       3.807   2.001  20.929  0.00  0.00    +0.000 C 
ATOM     10  C   UNL     1       4.095   2.222  19.469  0.00  0.00    +0.000 C 
ATOM     11  O   UNL     1       3.984   1.333  18.634  0.00  0.00    +0.000 OA
ATOM     12  N   UNL     1       4.514   3.504  19.190  0.00  0.00    +0.000 N 
ATOM     13  H   UNL     1       4.770   4.101  19.963  0.00  0.00    +0.000 HD
ENDBRANCH   1  12
BRANCH   1  14
ATOM     14  C   UNL     1       3.658   4.249  16.980  0.00  0.00    +0.000 C 
BRANCH  14  15
ATOM     15  C   UNL     1       2.361   4.470  17.751  0.00  0.00    +0.000 C 
ATOM     16  O   UNL     1       1.504   3.602  17.877  0.00  0.00    +0.000 OA
BRANCH  15  17
ATOM     17  C   UNL     1       2.207   5.808  18.349  0.00  0.00    +0.000 A 
ATOM     18  C   UNL     1       2.251   7.041  17.606  0.00  0.00    +0.000 A 
ATOM     19  C   UNL     1       2.103   8.157  18.394  0.00  0.00    +0.000 A 
ATOM     20  C   UNL     1       2.079   9.582  17.961  0.00  0.00    +0.000 C 
ATOM     21  S   UNL     1       1.931   7.741  20.037  0.00  0.00    +0.000 S 
ATOM     22  C   UNL     1       2.025   6.059  19.701  0.00  0.00    +0.000 A 
ATOM     23  C   UNL     1       1.947   5.089  20.838  0.00  0.00    +0.000 C 
ENDBRANCH  15  17
ENDBRANCH  14  15
ENDBRANCH   1  14
TORSDOF 5
ENDMDL
MODEL 8
REMARK VINA RESULT:      -6.7      3.781      6.942
REMARK  Name = 
REMARK  8 active torsions:
REMARK  status: ('A' for Active; 'I' for Inactive)
REMARK    1  A    between atoms: C_1  and  C_2
REMARK    2  A    between atoms: N_4  and  C_5
REMARK    3  A    between atoms: C_5  and  C_6
REMARK    4  A    between atoms: C_5  and  C_16
REMARK    5  A    between atoms: C_6  and  C_7
REMARK    6  A    between atoms: C_7  and  C_9
REMARK    7  A    between atoms: C_11  and  C_12
REMARK    8  A    between atoms: C_14  and  C_15
REMARK                            x       y       z     vdW  Elec       q    Type
REMARK                         _______ _______ _______ _____ _____    ______ ____
ROOT
ATOM      1  C   UNL     1       6.456   5.809  17.112  0.00  0.00    +0.000 C 
ENDROOT
BRANCH   1   2
ATOM      2  C   UNL     1       6.429   5.153  15.731  0.00  0.00    +0.000 A 
ATOM      3  C   UNL     1       5.369   4.307  15.371  0.00  0.00    +0.000 A 
ATOM      4  C   UNL     1       5.335   3.705  14.109  0.00  0.00    +0.000 A 
ATOM      5  C   UNL     1       6.361   3.941  13.198  0.00  0.00    +0.000 A 
ATOM      6 CL   UNL     1       6.324   3.192  11.649  0.00  0.00    +0.000 Cl
ATOM      7  C   UNL     1       7.422   4.776  13.534  0.00  0.00    +0.000 A 
ATOM      8  C   UNL     1       7.457   5.379  14.794  0.00  0.00    +0.000 A 
ENDBRANCH   1   2
BRANCH   1  12
ATOM      9  C   UNL     1       8.116   9.183  17.513  0.00  0.00    +0.000 C 
ATOM     10  C   UNL     1       7.788   7.751  17.840  0.00  0.00    +0.000 C 
ATOM     11  O   UNL     1       8.312   7.152  18.771  0.00  0.00    +0.000 OA
ATOM     12  N   UNL     1       6.869   7.197  16.976  0.00  0.00    +0.000 N 
ATOM     13  H   UNL     1       6.651   7.697  16.126  0.00  0.00    +0.000 HD
ENDBRANCH   1  12
BRANCH   1  14
ATOM     14  C   UNL     1       5.078   5.665  17.760  0.00  0.00    +0.000 C 
BRANCH  14  15
ATOM     15  C   UNL     1       5.086   5.178  19.205  0.00  0.00    +0.000 C 
ATOM     16  O   UNL     1       6.116   5.043  19.857  0.00  0.00    +0.000 OA
BRANCH  15  17
ATOM     17  C   UNL     1       3.759   4.887  19.776  0.00  0.00    +0.000 A 
ATOM     18  C   UNL     1       3.407   3.653  20.429  0.00  0.00    +0.000 A 
ATOM     19  C   UNL     1       2.102   3.616  20.857  0.00  0.00    +0.000 A 
ATOM     20  C   UNL     1       1.412   2.514  21.583  0.00  0.00    +0.000 C 
ATOM     21  S   UNL     1       1.277   5.053  20.462  0.00  0.00    +0.000 S 
ATOM     22  C   UNL     1       2.670   5.747  19.738  0.00  0.00    +0.000 A 
ATOM     23  C   UNL     1       2.570   7.115  19.138  0.00  0.00    +0.000 C 
ENDBRANCH  15  17
ENDBRANCH  14  15
ENDBRANCH   1  14
TORSDOF 5
ENDMDL
MODEL 9
REMARK VINA RESULT:      -6.7      3.890      6.666
REMARK  Name = 
REMARK  8 active torsions:
REMARK  status: ('A' for Active; 'I' for Inactive)
REMARK    1  A    between atoms: C_1  and  C_2
REMARK    2  A    between atoms: N_4  and  C_5
REMARK    3  A    between atoms: C_5  and  C_6
REMARK    4  A    between atoms: C_5  and  C_16
REMARK    5  A    between atoms: C_6  and  C_7
REMARK    6  A    between atoms: C_7  and  C_9
REMARK    7  A    between atoms: C_11  and  C_12
REMARK    8  A    between atoms: C_14  and  C_15
REMARK                            x       y       z     vdW  Elec       q    Type
REMARK                         _______ _______ _______ _____ _____    ______ ____
ROOT
ATOM      1  C   UNL     1       5.707   6.090  17.033  0.00  0.00    +0.000 C 
ENDROOT
BRANCH   1   2
ATOM      2  C   UNL     1       5.984   5.348  15.724  0.00  0.00    +0.000 A 
ATOM      3  C   UNL     1       5.035   4.454  15.206  0.00  0.00    +0.000 A 
ATOM      4  C   UNL     1       5.278   3.773  14.009  0.00  0.00    +0.000 A 
ATOM      5  C   UNL     1       6.471   3.978  13.321  0.00  0.00    +0.000 A 
ATOM      6 CL   UNL     1       6.773   3.133  11.853  0.00  0.00    +0.000 Cl
ATOM      7  C   UNL     1       7.425   4.860  13.818  0.00  0.00    +0.000 A 
ATOM      8  C   UNL     1       7.184   5.542  15.013  0.00  0.00    +0.000 A 
ENDBRANCH   1   2
BRANCH   1  12
ATOM      9  C   UNL     1       8.315   8.708  17.833  0.00  0.00    +0.000 C 
ATOM     10  C   UNL     1       7.574   7.405  17.961  0.00  0.00    +0.000 C 
ATOM     11  O   UNL     1       7.905   6.535  18.757  0.00  0.00    +0.000 OA
ATOM     12  N   UNL     1       6.520   7.295  17.082  0.00  0.00    +0.000 N 
ATOM     13  H   UNL     1       6.452   7.968  16.332  0.00  0.00    +0.000 HD
ENDBRANCH   1  12
BRANCH   1  14
ATOM     14  C   UNL     1       4.210   6.382  17.135  0.00  0.00    +0.000 C 
BRANCH  14  15
ATOM     15  C   UNL     1       3.575   6.062  18.484  0.00  0.00    +0.000 C 
ATOM     16  O   UNL     1       3.152   6.927  19.243  0.00  0.00    +0.000 OA
BRANCH  15  17
ATOM     17  C   UNL     1       3.491   4.628  18.813  0.00  0.00    +0.000 A 
ATOM     18  C   UNL     1       4.461   3.918  19.606  0.00  0.00    +0.000 A 
ATOM     19  C   UNL     1       4.171   2.583  19.753  0.00  0.00    +0.000 A 
ATOM     20  C   UNL     1       4.939   1.563  20.521  0.00  0.00    +0.000 C 
ATOM     21  S   UNL     1       2.744   2.160  18.925  0.00  0.00    +0.000 S 
ATOM     22  C   UNL     1       2.488   3.770  18.385  0.00  0.00    +0.000 A 
ATOM     23  C   UNL     1       1.300   4.064  17.524  0.00  0.00    +0.000 C 
ENDBRANCH  15  17
ENDBRANCH  14  15
ENDBRANCH   1  14
TORSDOF 5
ENDMDL
