MODEL 1
REMARK VINA RESULT:      -7.5      0.000      0.000
REMARK  Name = 
REMARK  11 active torsions:
REMARK  status: ('A' for Active; 'I' for Inactive)
REMARK    1  A    between atoms: C_1  and  C_2
REMARK    2  A    between atoms: C_2  and  C_3
REMARK    3  A    between atoms: C_11  and  C_12
REMARK    4  A    between atoms: N_14  and  C_15
REMARK    5  A    between atoms: C_15  and  C_16
REMARK    6  A    between atoms: C_18  and  O_19
REMARK    7  A    between atoms: O_19  and  C_20
REMARK    8  A    between atoms: C_21  and  O_22
REMARK    9  A    between atoms: O_22  and  C_23
REMARK   10  A    between atoms: C_24  and  O_25
REMARK   11  A    between atoms: O_25  and  C_26
REMARK                            x       y       z     vdW  Elec       q    Type
REMARK                         _______ _______ _______ _____ _____    ______ ____
ROOT
ATOM      1  C   UNL     1      -5.686  13.137  19.448  0.00  0.00    +0.000 C 
ATOM      2  C   UNL     1      -4.414  13.693  20.049  0.00  0.00    +0.000 C 
ATOM      3  N   UNL     1      -4.249  13.258  21.447  0.00  0.00    +0.000 N 
ATOM      4  C   UNL     1      -3.215  12.487  21.997  0.00  0.00    +0.000 C 
ATOM      5  O   UNL     1      -3.327  11.962  23.111  0.00  0.00    +0.000 OA
ATOM      6  N   UNL     1      -2.035  12.242  21.287  0.00  0.00    +0.000 N 
ATOM      7  C   UNL     1      -1.227  11.085  21.707  0.00  0.00    +0.000 C 
ATOM      8  C   UNL     1       0.275  11.360  21.606  0.00  0.00    +0.000 C 
ATOM      9  C   UNL     1       0.679  11.830  20.208  0.00  0.00    +0.000 C 
ATOM     10  C   UNL     1      -0.147  13.043  19.829  0.00  0.00    +0.000 C 
ATOM     11  C   UNL     1      -1.635  12.824  20.018  0.00  0.00    +0.000 C 
ATOM     12  C   UNL     1      -5.478  13.519  22.190  0.00  0.00    +0.000 A 
ATOM     13  C   UNL     1      -5.545  13.570  23.588  0.00  0.00    +0.000 A 
ATOM     14  C   UNL     1      -6.756  13.845  24.245  0.00  0.00    +0.000 A 
ATOM     15  C   UNL     1      -7.916  14.099  23.519  0.00  0.00    +0.000 A 
ATOM     16  C   UNL     1      -7.877  14.055  22.134  0.00  0.00    +0.000 A 
ATOM     17  C   UNL     1      -6.682  13.749  21.480  0.00  0.00    +0.000 A 
ATOM     18  O   UNL     1      -6.825  13.658  20.115  0.00  0.00    +0.000 OA
ENDROOT
BRANCH   9  19
ATOM     19  C   UNL     1       0.551  10.727  19.156  0.00  0.00    +0.000 C 
ATOM     20  O   UNL     1      -0.523  10.366  18.687  0.00  0.00    +0.000 OA
ATOM     21  N   UNL     1       1.750  10.169  18.795  0.00  0.00    +0.000 N 
ATOM     22  H   UNL     1       2.611  10.625  19.090  0.00  0.00    +0.000 HD
BRANCH  21  23
ATOM     23  C   UNL     1       1.830   9.192  17.743  0.00  0.00    +0.000 C 
BRANCH  23  24
ATOM     24  C   UNL     1       2.522   7.933  18.197  0.00  0.00    +0.000 A 
ATOM     25  C   UNL     1       3.624   7.449  17.490  0.00  0.00    +0.000 A 
ATOM     26  C   UNL     1       4.307   6.309  17.924  0.00  0.00    +0.000 A 
ATOM     27  C   UNL     1       3.853   5.598  19.057  0.00  0.00    +0.000 A 
ATOM     28  C   UNL     1       2.705   6.045  19.744  0.00  0.00    +0.000 A 
ATOM     29  C   UNL     1       2.063   7.216  19.311  0.00  0.00    +0.000 A 
BRANCH  26  30
ATOM     30  O   UNL     1       5.422   5.826  17.275  0.00  0.00    +0.000 OA
ATOM     31  C   UNL     1       5.381   5.876  15.852  0.00  0.00    +0.000 C 
ENDBRANCH  26  30
BRANCH  27  32
ATOM     32  O   UNL     1       4.566   4.455  19.353  0.00  0.00    +0.000 OA
ATOM     33  C   UNL     1       4.149   3.248  18.725  0.00  0.00    +0.000 C 
ENDBRANCH  27  32
BRANCH  28  34
ATOM     34  O   UNL     1       2.251   5.292  20.796  0.00  0.00    +0.000 OA
ATOM     35  C   UNL     1       1.200   4.363  20.558  0.00  0.00    +0.000 C 
ENDBRANCH  28  34
ENDBRANCH  23  24
ENDBRANCH  21  23
ENDBRANCH   9  19
BRANCH   1  37
ATOM     36  C   UNL     1      -5.266  11.073  18.054  0.00  0.00    +0.000 C 
ATOM     37  C   UNL     1      -5.645  11.600  19.421  0.00  0.00    +0.000 C 
ENDBRANCH   1  37
TORSDOF 7
ENDMDL
MODEL 2
REMARK VINA RESULT:      -7.3      8.186     11.410
REMARK  Name = 
REMARK  11 active torsions:
REMARK  status: ('A' for Active; 'I' for Inactive)
REMARK    1  A    between atoms: C_1  and  C_2
REMARK    2  A    between atoms: C_2  and  C_3
REMARK    3  A    between atoms: C_11  and  C_12
REMARK    4  A    between atoms: N_14  and  C_15
REMARK    5  A    between atoms: C_15  and  C_16
REMARK    6  A    between atoms: C_18  and  O_19
REMARK    7  A    between atoms: O_19  and  C_20
REMARK    8  A    between atoms: C_21  and  O_22
REMARK    9  A    between atoms: O_22  and  C_23
REMARK   10  A    between atoms: C_24  and  O_25
REMARK   11  A    between atoms: O_25  and  C_26
REMARK                            x       y       z     vdW  Elec       q    Type
REMARK                         _______ _______ _______ _____ _____    ______ ____
ROOT
ATOM      1  C   UNL     1       5.543  14.636  23.583  0.00  0.00    +0.000 C 
ATOM      2  C   UNL     1       7.053  14.562  23.585  0.00  0.00    +0.000 C 
ATOM      3  N   UNL     1       7.523  13.242  24.041  0.00  0.00    +0.000 N 
ATOM      4  C   UNL     1       8.283  12.302  23.332  0.00  0.00    +0.000 C 
ATOM      5  O   UNL     1       8.381  11.130  23.718  0.00  0.00    +0.000 OA
ATOM      6  N   UNL     1       8.922  12.637  22.134  0.00  0.00    +0.000 N 
ATOM      7  C   UNL     1       9.290  11.530  21.235  0.00  0.00    +0.000 C 
ATOM      8  C   UNL     1      10.628  11.774  20.534  0.00  0.00    +0.000 C 
ATOM      9  C   UNL     1      10.651  13.111  19.792  0.00  0.00    +0.000 C 
ATOM     10  C   UNL     1      10.305  14.226  20.757  0.00  0.00    +0.000 C 
ATOM     11  C   UNL     1       9.033  13.957  21.537  0.00  0.00    +0.000 C 
ATOM     12  C   UNL     1       6.862  12.893  25.295  0.00  0.00    +0.000 A 
ATOM     13  C   UNL     1       7.332  11.908  26.173  0.00  0.00    +0.000 A 
ATOM     14  C   UNL     1       6.660  11.631  27.375  0.00  0.00    +0.000 A 
ATOM     15  C   UNL     1       5.523  12.348  27.736  0.00  0.00    +0.000 A 
ATOM     16  C   UNL     1       5.037  13.329  26.884  0.00  0.00    +0.000 A 
ATOM     17  C   UNL     1       5.684  13.583  25.672  0.00  0.00    +0.000 A 
ATOM     18  O   UNL     1       5.033  14.519  24.903  0.00  0.00    +0.000 OA
ENDROOT
BRANCH   9  19
ATOM     19  C   UNL     1       9.721  13.126  18.577  0.00  0.00    +0.000 C 
ATOM     20  O   UNL     1       9.897  12.423  17.588  0.00  0.00    +0.000 OA
ATOM     21  N   UNL     1       8.679  14.010  18.692  0.00  0.00    +0.000 N 
ATOM     22  H   UNL     1       8.495  14.434  19.599  0.00  0.00    +0.000 HD
BRANCH  21  23
ATOM     23  C   UNL     1       7.650  14.080  17.691  0.00  0.00    +0.000 C 
BRANCH  23  24
ATOM     24  C   UNL     1       6.532  15.005  18.099  0.00  0.00    +0.000 A 
ATOM     25  C   UNL     1       6.820  16.192  18.773  0.00  0.00    +0.000 A 
ATOM     26  C   UNL     1       5.800  17.085  19.118  0.00  0.00    +0.000 A 
ATOM     27  C   UNL     1       4.454  16.765  18.835  0.00  0.00    +0.000 A 
ATOM     28  C   UNL     1       4.146  15.541  18.207  0.00  0.00    +0.000 A 
ATOM     29  C   UNL     1       5.193  14.683  17.835  0.00  0.00    +0.000 A 
BRANCH  26  30
ATOM     30  O   UNL     1       6.051  18.284  19.748  0.00  0.00    +0.000 OA
ATOM     31  C   UNL     1       6.584  18.192  21.066  0.00  0.00    +0.000 C 
ENDBRANCH  26  30
BRANCH  27  32
ATOM     32  O   UNL     1       3.530  17.689  19.278  0.00  0.00    +0.000 OA
ATOM     33  C   UNL     1       2.890  17.425  20.521  0.00  0.00    +0.000 C 
ENDBRANCH  27  32
BRANCH  28  34
ATOM     34  O   UNL     1       2.825  15.232  18.012  0.00  0.00    +0.000 OA
ATOM     35  C   UNL     1       2.410  13.885  18.209  0.00  0.00    +0.000 C 
ENDBRANCH  28  34
ENDBRANCH  23  24
ENDBRANCH  21  23
ENDBRANCH   9  19
BRANCH   1  37
ATOM     36  C   UNL     1       4.022  14.250  21.604  0.00  0.00    +0.000 C 
ATOM     37  C   UNL     1       4.951  13.604  22.608  0.00  0.00    +0.000 C 
ENDBRANCH   1  37
TORSDOF 7
ENDMDL
MODEL 3
REMARK VINA RESULT:      -7.2      1.954      3.329
REMARK  Name = 
REMARK  11 active torsions:
REMARK  status: ('A' for Active; 'I' for Inactive)
REMARK    1  A    between atoms: C_1  and  C_2
REMARK    2  A    between atoms: C_2  and  C_3
REMARK    3  A    between atoms: C_11  and  C_12
REMARK    4  A    between atoms: N_14  and  C_15
REMARK    5  A    between atoms: C_15  and  C_16
REMARK    6  A    between atoms: C_18  and  O_19
REMARK    7  A    between atoms: O_19  and  C_20
REMARK    8  A    between atoms: C_21  and  O_22
REMARK    9  A    between atoms: O_22  and  C_23
REMARK   10  A    between atoms: C_24  and  O_25
REMARK   11  A    between atoms: O_25  and  C_26
REMARK                            x       y       z     vdW  Elec       q    Type
REMARK                         _______ _______ _______ _____ _____    ______ ____
ROOT
ATOM      1  C   UNL     1      -4.704  12.709  23.058  0.00  0.00    +0.000 C 
ATOM      2  C   UNL     1      -4.407  12.818  21.579  0.00  0.00    +0.000 C 
ATOM      3  N   UNL     1      -3.890  14.154  21.235  0.00  0.00    +0.000 N 
ATOM      4  C   UNL     1      -2.644  14.486  20.687  0.00  0.00    +0.000 C 
ATOM      5  O   UNL     1      -2.225  15.649  20.698  0.00  0.00    +0.000 OA
ATOM      6  N   UNL     1      -1.802  13.506  20.149  0.00  0.00    +0.000 N 
ATOM      7  C   UNL     1      -0.373  13.839  20.030  0.00  0.00    +0.000 C 
ATOM      8  C   UNL     1       0.252  13.261  18.759  0.00  0.00    +0.000 C 
ATOM      9  C   UNL     1       0.032  11.752  18.648  0.00  0.00    +0.000 C 
ATOM     10  C   UNL     1      -1.451  11.453  18.736  0.00  0.00    +0.000 C 
ATOM     11  C   UNL     1      -2.111  12.103  19.937  0.00  0.00    +0.000 C 
ATOM     12  C   UNL     1      -4.771  15.177  21.790  0.00  0.00    +0.000 A 
ATOM     13  C   UNL     1      -4.786  16.509  21.356  0.00  0.00    +0.000 A 
ATOM     14  C   UNL     1      -5.671  17.443  21.918  0.00  0.00    +0.000 A 
ATOM     15  C   UNL     1      -6.575  17.062  22.906  0.00  0.00    +0.000 A 
ATOM     16  C   UNL     1      -6.581  15.750  23.354  0.00  0.00    +0.000 A 
ATOM     17  C   UNL     1      -5.679  14.827  22.820  0.00  0.00    +0.000 A 
ATOM     18  O   UNL     1      -5.750  13.595  23.426  0.00  0.00    +0.000 OA
ENDROOT
BRANCH   9  19
ATOM     19  C   UNL     1       0.816  10.962  19.699  0.00  0.00    +0.000 C 
ATOM     20  O   UNL     1       1.588  11.487  20.495  0.00  0.00    +0.000 OA
ATOM     21  N   UNL     1       0.585   9.612  19.659  0.00  0.00    +0.000 N 
ATOM     22  H   UNL     1      -0.187   9.264  19.094  0.00  0.00    +0.000 HD
BRANCH  21  23
ATOM     23  C   UNL     1       1.156   8.730  20.640  0.00  0.00    +0.000 C 
BRANCH  23  24
ATOM     24  C   UNL     1       1.840   7.548  20.003  0.00  0.00    +0.000 A 
ATOM     25  C   UNL     1       1.795   6.299  20.624  0.00  0.00    +0.000 A 
ATOM     26  C   UNL     1       2.382   5.180  20.026  0.00  0.00    +0.000 A 
ATOM     27  C   UNL     1       3.080   5.315  18.804  0.00  0.00    +0.000 A 
ATOM     28  C   UNL     1       3.182   6.583  18.198  0.00  0.00    +0.000 A 
ATOM     29  C   UNL     1       2.547   7.681  18.800  0.00  0.00    +0.000 A 
BRANCH  26  30
ATOM     30  O   UNL     1       2.323   3.924  20.589  0.00  0.00    +0.000 OA
ATOM     31  C   UNL     1       1.058   3.274  20.518  0.00  0.00    +0.000 C 
ENDBRANCH  26  30
BRANCH  27  32
ATOM     32  O   UNL     1       3.673   4.158  18.341  0.00  0.00    +0.000 OA
ATOM     33  C   UNL     1       3.005   3.459  17.297  0.00  0.00    +0.000 C 
ENDBRANCH  27  32
BRANCH  28  34
ATOM     34  O   UNL     1       3.926   6.691  17.052  0.00  0.00    +0.000 OA
ATOM     35  C   UNL     1       5.329   6.893  17.173  0.00  0.00    +0.000 C 
ENDBRANCH  28  34
ENDBRANCH  23  24
ENDBRANCH  21  23
ENDBRANCH   9  19
BRANCH   1  37
ATOM     36  C   UNL     1      -2.354  11.899  23.507  0.00  0.00    +0.000 C 
ATOM     37  C   UNL     1      -3.420  12.904  23.883  0.00  0.00    +0.000 C 
ENDBRANCH   1  37
TORSDOF 7
ENDMDL
MODEL 4
REMARK VINA RESULT:      -7.2      2.115      3.545
REMARK  Name = 
REMARK  11 active torsions:
REMARK  status: ('A' for Active; 'I' for Inactive)
REMARK    1  A    between atoms: C_1  and  C_2
REMARK    2  A    between atoms: C_2  and  C_3
REMARK    3  A    between atoms: C_11  and  C_12
REMARK    4  A    between atoms: N_14  and  C_15
REMARK    5  A    between atoms: C_15  and  C_16
REMARK    6  A    between atoms: C_18  and  O_19
REMARK    7  A    between atoms: O_19  and  C_20
REMARK    8  A    between atoms: C_21  and  O_22
REMARK    9  A    between atoms: O_22  and  C_23
REMARK   10  A    between atoms: C_24  and  O_25
REMARK   11  A    between atoms: O_25  and  C_26
REMARK                            x       y       z     vdW  Elec       q    Type
REMARK                         _______ _______ _______ _____ _____    ______ ____
ROOT
ATOM      1  C   UNL     1      -4.777  13.110  22.253  0.00  0.00    +0.000 C 
ATOM      2  C   UNL     1      -4.080  13.165  20.912  0.00  0.00    +0.000 C 
ATOM      3  N   UNL     1      -3.232  14.365  20.800  0.00  0.00    +0.000 N 
ATOM      4  C   UNL     1      -1.844  14.430  20.618  0.00  0.00    +0.000 C 
ATOM      5  O   UNL     1      -1.218  15.479  20.811  0.00  0.00    +0.000 OA
ATOM      6  N   UNL     1      -1.104  13.299  20.257  0.00  0.00    +0.000 N 
ATOM      7  C   UNL     1       0.342  13.324  20.536  0.00  0.00    +0.000 C 
ATOM      8  C   UNL     1       1.155  12.636  19.438  0.00  0.00    +0.000 C 
ATOM      9  C   UNL     1       0.674  11.208  19.178  0.00  0.00    +0.000 C 
ATOM     10  C   UNL     1      -0.807  11.228  18.858  0.00  0.00    +0.000 C 
ATOM     11  C   UNL     1      -1.620  11.994  19.884  0.00  0.00    +0.000 C 
ATOM     12  C   UNL     1      -4.005  15.546  21.170  0.00  0.00    +0.000 A 
ATOM     13  C   UNL     1      -3.634  16.855  20.831  0.00  0.00    +0.000 A 
ATOM     14  C   UNL     1      -4.431  17.950  21.202  0.00  0.00    +0.000 A 
ATOM     15  C   UNL     1      -5.624  17.761  21.893  0.00  0.00    +0.000 A 
ATOM     16  C   UNL     1      -6.014  16.476  22.241  0.00  0.00    +0.000 A 
ATOM     17  C   UNL     1      -5.206  15.388  21.903  0.00  0.00    +0.000 A 
ATOM     18  O   UNL     1      -5.684  14.194  22.391  0.00  0.00    +0.000 OA
ENDROOT
BRANCH   9  19
ATOM     19  C   UNL     1       0.972  10.264  20.345  0.00  0.00    +0.000 C 
ATOM     20  O   UNL     1       1.110  10.648  21.501  0.00  0.00    +0.000 OA
ATOM     21  N   UNL     1       1.084   8.949  19.975  0.00  0.00    +0.000 N 
ATOM     22  H   UNL     1       0.793   8.678  19.038  0.00  0.00    +0.000 HD
BRANCH  21  23
ATOM     23  C   UNL     1       1.258   7.912  20.955  0.00  0.00    +0.000 C 
BRANCH  23  24
ATOM     24  C   UNL     1       1.907   6.686  20.367  0.00  0.00    +0.000 A 
ATOM     25  C   UNL     1       1.414   5.418  20.680  0.00  0.00    +0.000 A 
ATOM     26  C   UNL     1       1.973   4.271  20.108  0.00  0.00    +0.000 A 
ATOM     27  C   UNL     1       3.085   4.381  19.243  0.00  0.00    +0.000 A 
ATOM     28  C   UNL     1       3.628   5.652  18.966  0.00  0.00    +0.000 A 
ATOM     29  C   UNL     1       3.021   6.790  19.522  0.00  0.00    +0.000 A 
BRANCH  26  30
ATOM     30  O   UNL     1       1.488   3.008  20.362  0.00  0.00    +0.000 OA
ATOM     31  C   UNL     1       1.548   2.584  21.721  0.00  0.00    +0.000 C 
ENDBRANCH  26  30
BRANCH  27  32
ATOM     32  O   UNL     1       3.592   3.181  18.789  0.00  0.00    +0.000 OA
ATOM     33  C   UNL     1       3.101   2.697  17.544  0.00  0.00    +0.000 C 
ENDBRANCH  27  32
BRANCH  28  34
ATOM     34  O   UNL     1       4.749   5.716  18.180  0.00  0.00    +0.000 OA
ATOM     35  C   UNL     1       4.600   6.103  16.819  0.00  0.00    +0.000 C 
ENDBRANCH  28  34
ENDBRANCH  23  24
ENDBRANCH  21  23
ENDBRANCH   9  19
BRANCH   1  37
ATOM     36  C   UNL     1      -4.347  12.405  24.640  0.00  0.00    +0.000 C 
ATOM     37  C   UNL     1      -3.751  13.024  23.395  0.00  0.00    +0.000 C 
ENDBRANCH   1  37
TORSDOF 7
ENDMDL
MODEL 5
REMARK VINA RESULT:      -7.2      2.500      3.982
REMARK  Name = 
REMARK  11 active torsions:
REMARK  status: ('A' for Active; 'I' for Inactive)
REMARK    1  A    between atoms: C_1  and  C_2
REMARK    2  A    between atoms: C_2  and  C_3
REMARK    3  A    between atoms: C_11  and  C_12
REMARK    4  A    between atoms: N_14  and  C_15
REMARK    5  A    between atoms: C_15  and  C_16
REMARK    6  A    between atoms: C_18  and  O_19
REMARK    7  A    between atoms: O_19  and  C_20
REMARK    8  A    between atoms: C_21  and  O_22
REMARK    9  A    between atoms: O_22  and  C_23
REMARK   10  A    between atoms: C_24  and  O_25
REMARK   11  A    between atoms: O_25  and  C_26
REMARK                            x       y       z     vdW  Elec       q    Type
REMARK                         _______ _______ _______ _____ _____    ______ ____
ROOT
ATOM      1  C   UNL     1      -3.306  13.119  22.568  0.00  0.00    +0.000 C 
ATOM      2  C   UNL     1      -2.900  13.188  21.113  0.00  0.00    +0.000 C 
ATOM      3  N   UNL     1      -1.865  14.213  20.895  0.00  0.00    +0.000 N 
ATOM      4  C   UNL     1      -0.560  14.038  20.415  0.00  0.00    +0.000 C 
ATOM      5  O   UNL     1       0.294  14.925  20.533  0.00  0.00    +0.000 OA
ATOM      6  N   UNL     1      -0.158  12.835  19.826  0.00  0.00    +0.000 N 
ATOM      7  C   UNL     1       1.288  12.560  19.779  0.00  0.00    +0.000 C 
ATOM      8  C   UNL     1       1.701  11.855  18.485  0.00  0.00    +0.000 C 
ATOM      9  C   UNL     1       0.894  10.578  18.245  0.00  0.00    +0.000 C 
ATOM     10  C   UNL     1      -0.584  10.909  18.263  0.00  0.00    +0.000 C 
ATOM     11  C   UNL     1      -0.997  11.697  19.491  0.00  0.00    +0.000 C 
ATOM     12  C   UNL     1      -2.287  15.471  21.504  0.00  0.00    +0.000 A 
ATOM     13  C   UNL     1      -1.732  16.717  21.179  0.00  0.00    +0.000 A 
ATOM     14  C   UNL     1      -2.194  17.895  21.787  0.00  0.00    +0.000 A 
ATOM     15  C   UNL     1      -3.234  17.857  22.712  0.00  0.00    +0.000 A 
ATOM     16  C   UNL     1      -3.801  16.638  23.052  0.00  0.00    +0.000 A 
ATOM     17  C   UNL     1      -3.320  15.461  22.473  0.00  0.00    +0.000 A 
ATOM     18  O   UNL     1      -3.923  14.331  22.975  0.00  0.00    +0.000 OA
ENDROOT
BRANCH   9  19
ATOM     19  C   UNL     1       1.223   9.475  19.252  0.00  0.00    +0.000 C 
ATOM     20  O   UNL     1       0.984   9.567  20.452  0.00  0.00    +0.000 OA
ATOM     21  N   UNL     1       1.823   8.377  18.691  0.00  0.00    +0.000 N 
ATOM     22  H   UNL     1       1.837   8.293  17.676  0.00  0.00    +0.000 HD
BRANCH  21  23
ATOM     23  C   UNL     1       2.106   7.203  19.470  0.00  0.00    +0.000 C 
BRANCH  23  24
ATOM     24  C   UNL     1       3.265   6.421  18.908  0.00  0.00    +0.000 A 
ATOM     25  C   UNL     1       3.758   5.313  19.598  0.00  0.00    +0.000 A 
ATOM     26  C   UNL     1       4.801   4.547  19.068  0.00  0.00    +0.000 A 
ATOM     27  C   UNL     1       5.407   4.921  17.848  0.00  0.00    +0.000 A 
ATOM     28  C   UNL     1       4.956   6.073  17.173  0.00  0.00    +0.000 A 
ATOM     29  C   UNL     1       3.879   6.800  17.706  0.00  0.00    +0.000 A 
BRANCH  26  30
ATOM     30  O   UNL     1       5.287   3.424  19.701  0.00  0.00    +0.000 OA
ATOM     31  C   UNL     1       4.369   2.343  19.835  0.00  0.00    +0.000 C 
ENDBRANCH  26  30
BRANCH  27  32
ATOM     32  O   UNL     1       6.467   4.130  17.456  0.00  0.00    +0.000 OA
ATOM     33  C   UNL     1       7.774   4.581  17.791  0.00  0.00    +0.000 C 
ENDBRANCH  27  32
BRANCH  28  34
ATOM     34  O   UNL     1       5.613   6.448  16.029  0.00  0.00    +0.000 OA
ATOM     35  C   UNL     1       5.577   5.569  14.910  0.00  0.00    +0.000 C 
ENDBRANCH  28  34
ENDBRANCH  23  24
ENDBRANCH  21  23
ENDBRANCH   9  19
BRANCH   1  37
ATOM     36  C   UNL     1      -1.577  11.351  23.082  0.00  0.00    +0.000 C 
ATOM     37  C   UNL     1      -2.108  12.720  23.447  0.00  0.00    +0.000 C 
ENDBRANCH   1  37
TORSDOF 7
ENDMDL
MODEL 6
REMARK VINA RESULT:      -7.1      2.501      3.640
REMARK  Name = 
REMARK  11 active torsions:
REMARK  status: ('A' for Active; 'I' for Inactive)
REMARK    1  A    between atoms: C_1  and  C_2
REMARK    2  A    between atoms: C_2  and  C_3
REMARK    3  A    between atoms: C_11  and  C_12
REMARK    4  A    between atoms: N_14  and  C_15
REMARK    5  A    between atoms: C_15  and  C_16
REMARK    6  A    between atoms: C_18  and  O_19
REMARK    7  A    between atoms: O_19  and  C_20
REMARK    8  A    between atoms: C_21  and  O_22
REMARK    9  A    between atoms: O_22  and  C_23
REMARK   10  A    between atoms: C_24  and  O_25
REMARK   11  A    between atoms: O_25  and  C_26
REMARK                            x       y       z     vdW  Elec       q    Type
REMARK                         _______ _______ _______ _____ _____    ______ ____
ROOT
ATOM      1  C   UNL     1      -3.266  12.648  22.475  0.00  0.00    +0.000 C 
ATOM      2  C   UNL     1      -2.913  12.693  21.005  0.00  0.00    +0.000 C 
ATOM      3  N   UNL     1      -1.935  13.758  20.722  0.00  0.00    +0.000 N 
ATOM      4  C   UNL     1      -0.641  13.629  20.202  0.00  0.00    +0.000 C 
ATOM      5  O   UNL     1       0.175  14.557  20.266  0.00  0.00    +0.000 OA
ATOM      6  N   UNL     1      -0.202  12.428  19.632  0.00  0.00    +0.000 N 
ATOM      7  C   UNL     1       1.252  12.219  19.542  0.00  0.00    +0.000 C 
ATOM      8  C   UNL     1       1.654  11.496  18.255  0.00  0.00    +0.000 C 
ATOM      9  C   UNL     1       0.901  10.178  18.078  0.00  0.00    +0.000 C 
ATOM     10  C   UNL     1      -0.590  10.441  18.139  0.00  0.00    +0.000 C 
ATOM     11  C   UNL     1      -0.997  11.244  19.358  0.00  0.00    +0.000 C 
ATOM     12  C   UNL     1      -2.395  15.012  21.311  0.00  0.00    +0.000 A 
ATOM     13  C   UNL     1      -1.911  16.272  20.932  0.00  0.00    +0.000 A 
ATOM     14  C   UNL     1      -2.406  17.444  21.524  0.00  0.00    +0.000 A 
ATOM     15  C   UNL     1      -3.412  17.386  22.485  0.00  0.00    +0.000 A 
ATOM     16  C   UNL     1      -3.908  16.152  22.878  0.00  0.00    +0.000 A 
ATOM     17  C   UNL     1      -3.393  14.982  22.315  0.00  0.00    +0.000 A 
ATOM     18  O   UNL     1      -3.925  13.841  22.869  0.00  0.00    +0.000 OA
ENDROOT
BRANCH   9  19
ATOM     19  C   UNL     1       1.315   9.120  19.103  0.00  0.00    +0.000 C 
ATOM     20  O   UNL     1       1.018   9.184  20.292  0.00  0.00    +0.000 OA
ATOM     21  N   UNL     1       2.060   8.100  18.572  0.00  0.00    +0.000 N 
ATOM     22  H   UNL     1       2.126   8.018  17.559  0.00  0.00    +0.000 HD
BRANCH  21  23
ATOM     23  C   UNL     1       2.446   6.967  19.368  0.00  0.00    +0.000 C 
BRANCH  23  24
ATOM     24  C   UNL     1       3.410   6.068  18.636  0.00  0.00    +0.000 A 
ATOM     25  C   UNL     1       4.638   6.570  18.201  0.00  0.00    +0.000 A 
ATOM     26  C   UNL     1       5.564   5.739  17.563  0.00  0.00    +0.000 A 
ATOM     27  C   UNL     1       5.242   4.389  17.300  0.00  0.00    +0.000 A 
ATOM     28  C   UNL     1       3.981   3.888  17.682  0.00  0.00    +0.000 A 
ATOM     29  C   UNL     1       3.087   4.733  18.358  0.00  0.00    +0.000 A 
BRANCH  26  30
ATOM     30  O   UNL     1       6.801   6.189  17.157  0.00  0.00    +0.000 OA
ATOM     31  C   UNL     1       7.093   7.551  17.453  0.00  0.00    +0.000 C 
ENDBRANCH  26  30
BRANCH  27  32
ATOM     32  O   UNL     1       6.206   3.683  16.609  0.00  0.00    +0.000 OA
ATOM     33  C   UNL     1       6.150   3.727  15.188  0.00  0.00    +0.000 C 
ENDBRANCH  27  32
BRANCH  28  34
ATOM     34  O   UNL     1       3.675   2.594  17.348  0.00  0.00    +0.000 OA
ATOM     35  C   UNL     1       3.509   1.647  18.397  0.00  0.00    +0.000 C 
ENDBRANCH  28  34
ENDBRANCH  23  24
ENDBRANCH  21  23
ENDBRANCH   9  19
BRANCH   1  37
ATOM     36  C   UNL     1      -1.413  10.997  22.944  0.00  0.00    +0.000 C 
ATOM     37  C   UNL     1      -2.022  12.330  23.321  0.00  0.00    +0.000 C 
ENDBRANCH   1  37
TORSDOF 7
ENDMDL
MODEL 7
REMARK VINA RESULT:      -7.0      2.130      2.829
REMARK  Name = 
REMARK  11 active torsions:
REMARK  status: ('A' for Active; 'I' for Inactive)
REMARK    1  A    between atoms: C_1  and  C_2
REMARK    2  A    between atoms: C_2  and  C_3
REMARK    3  A    between atoms: C_11  and  C_12
REMARK    4  A    between atoms: N_14  and  C_15
REMARK    5  A    between atoms: C_15  and  C_16
REMARK    6  A    between atoms: C_18  and  O_19
REMARK    7  A    between atoms: O_19  and  C_20
REMARK    8  A    between atoms: C_21  and  O_22
REMARK    9  A    between atoms: O_22  and  C_23
REMARK   10  A    between atoms: C_24  and  O_25
REMARK   11  A    between atoms: O_25  and  C_26
REMARK                            x       y       z     vdW  Elec       q    Type
REMARK                         _______ _______ _______ _____ _____    ______ ____
ROOT
ATOM      1  C   UNL     1      -4.735  13.203  22.386  0.00  0.00    +0.000 C 
ATOM      2  C   UNL     1      -4.116  13.321  21.012  0.00  0.00    +0.000 C 
ATOM      3  N   UNL     1      -3.340  14.566  20.880  0.00  0.00    +0.000 N 
ATOM      4  C   UNL     1      -1.969  14.709  20.625  0.00  0.00    +0.000 C 
ATOM      5  O   UNL     1      -1.389  15.787  20.807  0.00  0.00    +0.000 OA
ATOM      6  N   UNL     1      -1.191  13.626  20.201  0.00  0.00    +0.000 N 
ATOM      7  C   UNL     1       0.264  13.724  20.403  0.00  0.00    +0.000 C 
ATOM      8  C   UNL     1       1.052  13.101  19.249  0.00  0.00    +0.000 C 
ATOM      9  C   UNL     1       0.633  11.654  18.984  0.00  0.00    +0.000 C 
ATOM     10  C   UNL     1      -0.862  11.601  18.744  0.00  0.00    +0.000 C 
ATOM     11  C   UNL     1      -1.658  12.302  19.828  0.00  0.00    +0.000 C 
ATOM     12  C   UNL     1      -4.152  15.697  21.316  0.00  0.00    +0.000 A 
ATOM     13  C   UNL     1      -3.870  17.030  20.987  0.00  0.00    +0.000 A 
ATOM     14  C   UNL     1      -4.702  18.074  21.423  0.00  0.00    +0.000 A 
ATOM     15  C   UNL     1      -5.844  17.808  22.173  0.00  0.00    +0.000 A 
ATOM     16  C   UNL     1      -6.146  16.498  22.513  0.00  0.00    +0.000 A 
ATOM     17  C   UNL     1      -5.302  15.461  22.109  0.00  0.00    +0.000 A 
ATOM     18  O   UNL     1      -5.689  14.234  22.596  0.00  0.00    +0.000 OA
ENDROOT
BRANCH   9  19
ATOM     19  C   UNL     1       1.043  10.706  20.112  0.00  0.00    +0.000 C 
ATOM     20  O   UNL     1       1.457  11.095  21.199  0.00  0.00    +0.000 OA
ATOM     21  N   UNL     1       0.918   9.380  19.791  0.00  0.00    +0.000 N 
ATOM     22  H   UNL     1       0.412   9.127  18.944  0.00  0.00    +0.000 HD
BRANCH  21  23
ATOM     23  C   UNL     1       1.158   8.351  20.766  0.00  0.00    +0.000 C 
BRANCH  23  24
ATOM     24  C   UNL     1       1.882   7.171  20.170  0.00  0.00    +0.000 A 
ATOM     25  C   UNL     1       2.536   7.300  18.944  0.00  0.00    +0.000 A 
ATOM     26  C   UNL     1       3.252   6.230  18.399  0.00  0.00    +0.000 A 
ATOM     27  C   UNL     1       3.275   4.982  19.061  0.00  0.00    +0.000 A 
ATOM     28  C   UNL     1       2.569   4.824  20.271  0.00  0.00    +0.000 A 
ATOM     29  C   UNL     1       1.893   5.927  20.816  0.00  0.00    +0.000 A 
BRANCH  26  30
ATOM     30  O   UNL     1       3.943   6.333  17.212  0.00  0.00    +0.000 OA
ATOM     31  C   UNL     1       5.316   6.693  17.324  0.00  0.00    +0.000 C 
ENDBRANCH  26  30
BRANCH  27  32
ATOM     32  O   UNL     1       3.958   3.983  18.399  0.00  0.00    +0.000 OA
ATOM     33  C   UNL     1       3.187   3.061  17.639  0.00  0.00    +0.000 C 
ENDBRANCH  27  32
BRANCH  28  34
ATOM     34  O   UNL     1       2.554   3.581  20.849  0.00  0.00    +0.000 OA
ATOM     35  C   UNL     1       1.298   2.939  21.040  0.00  0.00    +0.000 C 
ENDBRANCH  28  34
ENDBRANCH  23  24
ENDBRANCH  21  23
ENDBRANCH   9  19
BRANCH   1  37
ATOM     36  C   UNL     1      -2.718  11.971  23.276  0.00  0.00    +0.000 C 
ATOM     37  C   UNL     1      -3.645  13.152  23.469  0.00  0.00    +0.000 C 
ENDBRANCH   1  37
TORSDOF 7
ENDMDL
MODEL 8
REMARK VINA RESULT:      -7.0      2.153      3.505
REMARK  Name = 
REMARK  11 active torsions:
REMARK  status: ('A' for Active; 'I' for Inactive)
REMARK    1  A    between atoms: C_1  and  C_2
REMARK    2  A    between atoms: C_2  and  C_3
REMARK    3  A    between atoms: C_11  and  C_12
REMARK    4  A    between atoms: N_14  and  C_15
REMARK    5  A    between atoms: C_15  and  C_16
REMARK    6  A    between atoms: C_18  and  O_19
REMARK    7  A    between atoms: O_19  and  C_20
REMARK    8  A    between atoms: C_21  and  O_22
REMARK    9  A    between atoms: O_22  and  C_23
REMARK   10  A    between atoms: C_24  and  O_25
REMARK   11  A    between atoms: O_25  and  C_26
REMARK                            x       y       z     vdW  Elec       q    Type
REMARK                         _______ _______ _______ _____ _____    ______ ____
ROOT
ATOM      1  C   UNL     1      -4.543  12.971  22.157  0.00  0.00    +0.000 C 
ATOM      2  C   UNL     1      -3.906  13.249  20.814  0.00  0.00    +0.000 C 
ATOM      3  N   UNL     1      -2.880  14.301  20.917  0.00  0.00    +0.000 N 
ATOM      4  C   UNL     1      -1.510  14.204  20.641  0.00  0.00    +0.000 C 
ATOM      5  O   UNL     1      -0.713  15.070  21.023  0.00  0.00    +0.000 OA
ATOM      6  N   UNL     1      -0.981  13.100  19.964  0.00  0.00    +0.000 N 
ATOM      7  C   UNL     1       0.461  12.843  20.121  0.00  0.00    +0.000 C 
ATOM      8  C   UNL     1       1.101  12.333  18.829  0.00  0.00    +0.000 C 
ATOM      9  C   UNL     1       0.383  11.099  18.281  0.00  0.00    +0.000 C 
ATOM     10  C   UNL     1      -1.088  11.415  18.098  0.00  0.00    +0.000 C 
ATOM     11  C   UNL     1      -1.719  12.017  19.339  0.00  0.00    +0.000 C 
ATOM     12  C   UNL     1      -3.433  15.457  21.617  0.00  0.00    +0.000 A 
ATOM     13  C   UNL     1      -2.870  16.739  21.566  0.00  0.00    +0.000 A 
ATOM     14  C   UNL     1      -3.460  17.815  22.248  0.00  0.00    +0.000 A 
ATOM     15  C   UNL     1      -4.636  17.640  22.972  0.00  0.00    +0.000 A 
ATOM     16  C   UNL     1      -5.214  16.381  23.039  0.00  0.00    +0.000 A 
ATOM     17  C   UNL     1      -4.610  15.302  22.389  0.00  0.00    +0.000 A 
ATOM     18  O   UNL     1      -5.253  14.109  22.621  0.00  0.00    +0.000 OA
ENDROOT
BRANCH   9  19
ATOM     19  C   UNL     1       0.575   9.864  19.164  0.00  0.00    +0.000 C 
ATOM     20  O   UNL     1      -0.125   9.623  20.142  0.00  0.00    +0.000 OA
ATOM     21  N   UNL     1       1.611   9.059  18.768  0.00  0.00    +0.000 N 
ATOM     22  H   UNL     1       2.038   9.223  17.859  0.00  0.00    +0.000 HD
BRANCH  21  23
ATOM     23  C   UNL     1       1.869   7.804  19.419  0.00  0.00    +0.000 C 
BRANCH  23  24
ATOM     24  C   UNL     1       2.772   6.920  18.597  0.00  0.00    +0.000 A 
ATOM     25  C   UNL     1       2.474   5.564  18.451  0.00  0.00    +0.000 A 
ATOM     26  C   UNL     1       3.274   4.738  17.654  0.00  0.00    +0.000 A 
ATOM     27  C   UNL     1       4.429   5.260  17.030  0.00  0.00    +0.000 A 
ATOM     28  C   UNL     1       4.771   6.614  17.220  0.00  0.00    +0.000 A 
ATOM     29  C   UNL     1       3.928   7.430  17.991  0.00  0.00    +0.000 A 
BRANCH  26  30
ATOM     30  O   UNL     1       2.989   3.406  17.453  0.00  0.00    +0.000 OA
ATOM     31  C   UNL     1       3.276   2.540  18.548  0.00  0.00    +0.000 C 
ENDBRANCH  26  30
BRANCH  27  32
ATOM     32  O   UNL     1       5.175   4.340  16.322  0.00  0.00    +0.000 OA
ATOM     33  C   UNL     1       5.383   4.597  14.939  0.00  0.00    +0.000 C 
ENDBRANCH  27  32
BRANCH  28  34
ATOM     34  O   UNL     1       5.937   7.068  16.658  0.00  0.00    +0.000 OA
ATOM     35  C   UNL     1       7.107   7.107  17.467  0.00  0.00    +0.000 C 
ENDBRANCH  28  34
ENDBRANCH  23  24
ENDBRANCH  21  23
ENDBRANCH   9  19
BRANCH   1  37
ATOM     36  C   UNL     1      -4.043  12.403  24.567  0.00  0.00    +0.000 C 
ATOM     37  C   UNL     1      -3.494  12.458  23.158  0.00  0.00    +0.000 C 
ENDBRANCH   1  37
TORSDOF 7
ENDMDL
MODEL 9
REMARK VINA RESULT:      -6.9      6.255     11.554
REMARK  Name = 
REMARK  11 active torsions:
REMARK  status: ('A' for Active; 'I' for Inactive)
REMARK    1  A    between atoms: C_1  and  C_2
REMARK    2  A    between atoms: C_2  and  C_3
REMARK    3  A    between atoms: C_11  and  C_12
REMARK    4  A    between atoms: N_14  and  C_15
REMARK    5  A    between atoms: C_15  and  C_16
REMARK    6  A    between atoms: C_18  and  O_19
REMARK    7  A    between atoms: O_19  and  C_20
REMARK    8  A    between atoms: C_21  and  O_22
REMARK    9  A    between atoms: O_22  and  C_23
REMARK   10  A    between atoms: C_24  and  O_25
REMARK   11  A    between atoms: O_25  and  C_26
REMARK                            x       y       z     vdW  Elec       q    Type
REMARK                         _______ _______ _______ _____ _____    ______ ____
ROOT
ATOM      1  C   UNL     1       9.039  14.005  21.590  0.00  0.00    +0.000 C 
ATOM      2  C   UNL     1       8.678  14.933  20.452  0.00  0.00    +0.000 C 
ATOM      3  N   UNL     1       8.539  14.196  19.184  0.00  0.00    +0.000 N 
ATOM      4  C   UNL     1       7.401  14.073  18.375  0.00  0.00    +0.000 C 
ATOM      5  O   UNL     1       7.332  13.213  17.489  0.00  0.00    +0.000 OA
ATOM      6  N   UNL     1       6.279  14.885  18.570  0.00  0.00    +0.000 N 
ATOM      7  C   UNL     1       4.998  14.404  18.024  0.00  0.00    +0.000 C 
ATOM      8  C   UNL     1       4.143  15.543  17.466  0.00  0.00    +0.000 C 
ATOM      9  C   UNL     1       3.917  16.649  18.497  0.00  0.00    +0.000 C 
ATOM     10  C   UNL     1       5.256  17.142  19.006  0.00  0.00    +0.000 C 
ATOM     11  C   UNL     1       6.160  16.018  19.471  0.00  0.00    +0.000 C 
ATOM     12  C   UNL     1       9.712  13.353  18.977  0.00  0.00    +0.000 A 
ATOM     13  C   UNL     1      10.073  12.815  17.735  0.00  0.00    +0.000 A 
ATOM     14  C   UNL     1      11.225  12.025  17.597  0.00  0.00    +0.000 A 
ATOM     15  C   UNL     1      12.053  11.777  18.688  0.00  0.00    +0.000 A 
ATOM     16  C   UNL     1      11.719  12.298  19.929  0.00  0.00    +0.000 A 
ATOM     17  C   UNL     1      10.555  13.056  20.076  0.00  0.00    +0.000 A 
ATOM     18  O   UNL     1      10.318  13.426  21.379  0.00  0.00    +0.000 OA
ENDROOT
BRANCH   9  19
ATOM     19  C   UNL     1       3.020  16.202  19.654  0.00  0.00    +0.000 C 
ATOM     20  O   UNL     1       3.381  16.210  20.826  0.00  0.00    +0.000 OA
ATOM     21  N   UNL     1       1.779  15.778  19.256  0.00  0.00    +0.000 N 
ATOM     22  H   UNL     1       1.485  15.955  18.298  0.00  0.00    +0.000 HD
BRANCH  21  23
ATOM     23  C   UNL     1       0.771  15.421  20.217  0.00  0.00    +0.000 C 
BRANCH  23  24
ATOM     24  C   UNL     1       0.512  13.937  20.236  0.00  0.00    +0.000 A 
ATOM     25  C   UNL     1      -0.215  13.369  21.284  0.00  0.00    +0.000 A 
ATOM     26  C   UNL     1      -0.505  12.001  21.295  0.00  0.00    +0.000 A 
ATOM     27  C   UNL     1      -0.015  11.165  20.267  0.00  0.00    +0.000 A 
ATOM     28  C   UNL     1       0.770  11.718  19.235  0.00  0.00    +0.000 A 
ATOM     29  C   UNL     1       1.011  13.101  19.227  0.00  0.00    +0.000 A 
BRANCH  26  30
ATOM     30  O   UNL     1      -1.254  11.413  22.290  0.00  0.00    +0.000 OA
ATOM     31  C   UNL     1      -1.780  12.299  23.274  0.00  0.00    +0.000 C 
ENDBRANCH  26  30
BRANCH  27  32
ATOM     32  O   UNL     1      -0.309   9.825  20.415  0.00  0.00    +0.000 OA
ATOM     33  C   UNL     1       0.649   9.020  21.090  0.00  0.00    +0.000 C 
ENDBRANCH  27  32
BRANCH  28  34
ATOM     34  O   UNL     1       1.288  10.867  18.293  0.00  0.00    +0.000 OA
ATOM     35  C   UNL     1       2.612  11.101  17.826  0.00  0.00    +0.000 C 
ENDBRANCH  28  34
ENDBRANCH  23  24
ENDBRANCH  21  23
ENDBRANCH   9  19
BRANCH   1  37
ATOM     36  C   UNL     1       8.347  11.902  22.805  0.00  0.00    +0.000 C 
ATOM     37  C   UNL     1       7.928  12.965  21.813  0.00  0.00    +0.000 C 
ENDBRANCH   1  37
TORSDOF 7
ENDMDL
