MODEL 1
REMARK VINA RESULT:      -7.5      0.000      0.000
REMARK  Name = 
REMARK  12 active torsions:
REMARK  status: ('A' for Active; 'I' for Inactive)
REMARK    1  A    between atoms: C_1  and  C_2
REMARK    2  A    between atoms: C_2  and  O_3
REMARK    3  A    between atoms: O_3  and  C_4
REMARK    4  A    between atoms: C_4  and  C_6
REMARK    5  A    between atoms: C_12  and  O_13
REMARK    6  A    between atoms: O_13  and  C_14
REMARK    7  A    between atoms: C_14  and  C_15
REMARK    8  A    between atoms: C_15  and  N_16
REMARK    9  A    between atoms: N_16  and  C_17
REMARK   10  A    between atoms: C_17  and  C_18
REMARK   11  A    between atoms: C_25  and  C_26
REMARK   12  A    between atoms: C_26  and  C_27
REMARK                            x       y       z     vdW  Elec       q    Type
REMARK                         _______ _______ _______ _____ _____    ______ ____
ROOT
ATOM      1  C   UNL     1       5.150   4.580  16.114  0.00  0.00    +0.000 A 
ATOM      2  O   UNL     1       4.321   3.537  16.428  0.00  0.00    +0.000 OA
ATOM      3  C   UNL     1       3.404   3.997  17.318  0.00  0.00    +0.000 A 
ATOM      4  C   UNL     1       2.372   3.237  17.862  0.00  0.00    +0.000 A 
ATOM      5  C   UNL     1       1.516   3.894  18.749  0.00  0.00    +0.000 A 
ATOM      6  C   UNL     1       1.702   5.243  19.065  0.00  0.00    +0.000 A 
ATOM      7  C   UNL     1       2.757   5.985  18.510  0.00  0.00    +0.000 A 
ATOM      8  C   UNL     1       3.626   5.339  17.599  0.00  0.00    +0.000 A 
ATOM      9  C   UNL     1       4.760   5.720  16.812  0.00  0.00    +0.000 A 
ENDROOT
BRANCH   1  10
ATOM     10  C   UNL     1       6.204   4.405  15.138  0.00  0.00    +0.000 C 
ATOM     11  O   UNL     1       7.402   4.432  15.385  0.00  0.00    +0.000 OA
BRANCH  10  12
ATOM     12  O   UNL     1       5.682   4.320  13.880  0.00  0.00    +0.000 OA
BRANCH  12  14
ATOM     13  C   UNL     1       5.642   2.936  11.941  0.00  0.00    +0.000 C 
ATOM     14  C   UNL     1       6.532   3.670  12.928  0.00  0.00    +0.000 C 
ENDBRANCH  12  14
ENDBRANCH  10  12
ENDBRANCH   1  10
BRANCH   9  15
ATOM     15  C   UNL     1       5.399   7.069  16.714  0.00  0.00    +0.000 C 
ATOM     16  C   UNL     1       6.706   7.142  17.488  0.00  0.00    +0.000 C 
ENDBRANCH   9  15
BRANCH   7  17
ATOM     17  O   UNL     1       2.946   7.320  18.731  0.00  0.00    +0.000 OA
BRANCH  17  18
ATOM     18  C   UNL     1       2.379   8.218  17.775  0.00  0.00    +0.000 C 
BRANCH  18  19
ATOM     19  C   UNL     1       1.502   9.220  18.544  0.00  0.00    +0.000 C 
BRANCH  19  20
ATOM     20  N   UNL     1       0.322   9.687  17.797  0.00  0.00    +0.000 NA
ATOM     21  H   UNL     1      -0.171   8.859  17.449  0.00  0.00    +0.000 HD
BRANCH  20  22
ATOM     22  C   UNL     1      -0.609  10.451  18.629  0.00  0.00    +0.000 C 
BRANCH  22  23
ATOM     23  C   UNL     1      -1.916  10.674  17.921  0.00  0.00    +0.000 A 
ATOM     24  C   UNL     1      -2.185  10.094  16.680  0.00  0.00    +0.000 A 
ATOM     25  C   UNL     1      -3.404  10.333  16.055  0.00  0.00    +0.000 A 
ATOM     26  C   UNL     1      -4.319  11.152  16.695  0.00  0.00    +0.000 A 
ATOM     27  N   UNL     1      -4.098  11.736  17.893  0.00  0.00    +0.000 NA
ATOM     28  C   UNL     1      -2.906  11.481  18.478  0.00  0.00    +0.000 A 
ENDBRANCH  22  23
ENDBRANCH  20  22
ENDBRANCH  19  20
ENDBRANCH  18  19
ENDBRANCH  17  18
ENDBRANCH   7  17
TORSDOF 10
ENDMDL
MODEL 2
REMARK VINA RESULT:      -7.1      3.107      4.608
REMARK  Name = 
REMARK  12 active torsions:
REMARK  status: ('A' for Active; 'I' for Inactive)
REMARK    1  A    between atoms: C_1  and  C_2
REMARK    2  A    between atoms: C_2  and  O_3
REMARK    3  A    between atoms: O_3  and  C_4
REMARK    4  A    between atoms: C_4  and  C_6
REMARK    5  A    between atoms: C_12  and  O_13
REMARK    6  A    between atoms: O_13  and  C_14
REMARK    7  A    between atoms: C_14  and  C_15
REMARK    8  A    between atoms: C_15  and  N_16
REMARK    9  A    between atoms: N_16  and  C_17
REMARK   10  A    between atoms: C_17  and  C_18
REMARK   11  A    between atoms: C_25  and  C_26
REMARK   12  A    between atoms: C_26  and  C_27
REMARK                            x       y       z     vdW  Elec       q    Type
REMARK                         _______ _______ _______ _____ _____    ______ ____
ROOT
ATOM      1  C   UNL     1       3.510   5.496  18.712  0.00  0.00    +0.000 A 
ATOM      2  O   UNL     1       3.571   6.479  17.762  0.00  0.00    +0.000 OA
ATOM      3  C   UNL     1       2.812   7.517  18.199  0.00  0.00    +0.000 A 
ATOM      4  C   UNL     1       2.638   8.719  17.517  0.00  0.00    +0.000 A 
ATOM      5  C   UNL     1       1.832   9.676  18.138  0.00  0.00    +0.000 A 
ATOM      6  C   UNL     1       1.236   9.423  19.376  0.00  0.00    +0.000 A 
ATOM      7  C   UNL     1       1.419   8.198  20.039  0.00  0.00    +0.000 A 
ATOM      8  C   UNL     1       2.243   7.223  19.431  0.00  0.00    +0.000 A 
ATOM      9  C   UNL     1       2.702   5.909  19.768  0.00  0.00    +0.000 A 
ENDROOT
BRANCH   1  10
ATOM     10  C   UNL     1       4.271   4.276  18.547  0.00  0.00    +0.000 C 
ATOM     11  O   UNL     1       5.168   3.901  19.291  0.00  0.00    +0.000 OA
BRANCH  10  12
ATOM     12  O   UNL     1       3.932   3.655  17.380  0.00  0.00    +0.000 OA
BRANCH  12  14
ATOM     13  C   UNL     1       2.685   1.802  18.211  0.00  0.00    +0.000 C 
ATOM     14  C   UNL     1       2.623   3.071  17.379  0.00  0.00    +0.000 C 
ENDBRANCH  12  14
ENDBRANCH  10  12
ENDBRANCH   1  10
BRANCH   9  15
ATOM     15  C   UNL     1       2.413   5.125  21.009  0.00  0.00    +0.000 C 
ATOM     16  C   UNL     1       1.285   4.124  20.806  0.00  0.00    +0.000 C 
ENDBRANCH   9  15
BRANCH   7  17
ATOM     17  O   UNL     1       0.916   7.923  21.280  0.00  0.00    +0.000 OA
BRANCH  17  18
ATOM     18  C   UNL     1      -0.435   8.316  21.530  0.00  0.00    +0.000 C 
BRANCH  18  19
ATOM     19  C   UNL     1      -0.437   9.186  22.798  0.00  0.00    +0.000 C 
BRANCH  19  20
ATOM     20  N   UNL     1       0.279  10.465  22.654  0.00  0.00    +0.000 NA
ATOM     21  H   UNL     1       0.894  10.384  21.839  0.00  0.00    +0.000 HD
BRANCH  20  22
ATOM     22  C   UNL     1      -0.623  11.596  22.429  0.00  0.00    +0.000 C 
BRANCH  22  23
ATOM     23  C   UNL     1      -0.523  12.100  21.017  0.00  0.00    +0.000 A 
ATOM     24  C   UNL     1       0.540  12.905  20.600  0.00  0.00    +0.000 A 
ATOM     25  C   UNL     1       0.589  13.356  19.286  0.00  0.00    +0.000 A 
ATOM     26  C   UNL     1      -0.433  12.990  18.427  0.00  0.00    +0.000 A 
ATOM     27  N   UNL     1      -1.481  12.218  18.790  0.00  0.00    +0.000 NA
ATOM     28  C   UNL     1      -1.499  11.790  20.072  0.00  0.00    +0.000 A 
ENDBRANCH  22  23
ENDBRANCH  20  22
ENDBRANCH  19  20
ENDBRANCH  18  19
ENDBRANCH  17  18
ENDBRANCH   7  17
TORSDOF 10
ENDMDL
MODEL 3
REMARK VINA RESULT:      -7.1      3.773      5.323
REMARK  Name = 
REMARK  12 active torsions:
REMARK  status: ('A' for Active; 'I' for Inactive)
REMARK    1  A    between atoms: C_1  and  C_2
REMARK    2  A    between atoms: C_2  and  O_3
REMARK    3  A    between atoms: O_3  and  C_4
REMARK    4  A    between atoms: C_4  and  C_6
REMARK    5  A    between atoms: C_12  and  O_13
REMARK    6  A    between atoms: O_13  and  C_14
REMARK    7  A    between atoms: C_14  and  C_15
REMARK    8  A    between atoms: C_15  and  N_16
REMARK    9  A    between atoms: N_16  and  C_17
REMARK   10  A    between atoms: C_17  and  C_18
REMARK   11  A    between atoms: C_25  and  C_26
REMARK   12  A    between atoms: C_26  and  C_27
REMARK                            x       y       z     vdW  Elec       q    Type
REMARK                         _______ _______ _______ _____ _____    ______ ____
ROOT
ATOM      1  C   UNL     1       3.583   5.377  18.680  0.00  0.00    +0.000 A 
ATOM      2  O   UNL     1       3.639   6.332  17.701  0.00  0.00    +0.000 OA
ATOM      3  C   UNL     1       2.883   7.383  18.113  0.00  0.00    +0.000 A 
ATOM      4  C   UNL     1       2.706   8.565  17.397  0.00  0.00    +0.000 A 
ATOM      5  C   UNL     1       1.905   9.541  17.995  0.00  0.00    +0.000 A 
ATOM      6  C   UNL     1       1.316   9.325  19.244  0.00  0.00    +0.000 A 
ATOM      7  C   UNL     1       1.503   8.120  19.941  0.00  0.00    +0.000 A 
ATOM      8  C   UNL     1       2.322   7.126  19.356  0.00  0.00    +0.000 A 
ATOM      9  C   UNL     1       2.782   5.822  19.728  0.00  0.00    +0.000 A 
ENDROOT
BRANCH   1  10
ATOM     10  C   UNL     1       4.342   4.152  18.546  0.00  0.00    +0.000 C 
ATOM     11  O   UNL     1       5.267   3.816  19.273  0.00  0.00    +0.000 OA
BRANCH  10  12
ATOM     12  O   UNL     1       3.962   3.475  17.424  0.00  0.00    +0.000 OA
BRANCH  12  14
ATOM     13  C   UNL     1       2.637   1.706  18.314  0.00  0.00    +0.000 C 
ATOM     14  C   UNL     1       2.624   2.964  17.465  0.00  0.00    +0.000 C 
ENDBRANCH  12  14
ENDBRANCH  10  12
ENDBRANCH   1  10
BRANCH   9  15
ATOM     15  C   UNL     1       2.500   5.075  20.994  0.00  0.00    +0.000 C 
ATOM     16  C   UNL     1       1.370   4.071  20.828  0.00  0.00    +0.000 C 
ENDBRANCH   9  15
BRANCH   7  17
ATOM     17  O   UNL     1       1.008   7.881  21.193  0.00  0.00    +0.000 OA
BRANCH  17  18
ATOM     18  C   UNL     1       1.085   8.956  22.132  0.00  0.00    +0.000 C 
BRANCH  18  19
ATOM     19  C   UNL     1      -0.314   9.138  22.744  0.00  0.00    +0.000 C 
BRANCH  19  20
ATOM     20  N   UNL     1      -0.509  10.424  23.432  0.00  0.00    +0.000 NA
ATOM     21  H   UNL     1       0.362  10.646  23.924  0.00  0.00    +0.000 HD
BRANCH  20  22
ATOM     22  C   UNL     1      -0.799  11.522  22.509  0.00  0.00    +0.000 C 
BRANCH  22  23
ATOM     23  C   UNL     1      -1.715  12.535  23.137  0.00  0.00    +0.000 A 
ATOM     24  C   UNL     1      -3.037  12.224  23.465  0.00  0.00    +0.000 A 
ATOM     25  C   UNL     1      -3.852  13.193  24.038  0.00  0.00    +0.000 A 
ATOM     26  C   UNL     1      -3.319  14.450  24.263  0.00  0.00    +0.000 A 
ATOM     27  N   UNL     1      -2.048  14.795  23.957  0.00  0.00    +0.000 NA
ATOM     28  C   UNL     1      -1.278  13.830  23.406  0.00  0.00    +0.000 A 
ENDBRANCH  22  23
ENDBRANCH  20  22
ENDBRANCH  19  20
ENDBRANCH  18  19
ENDBRANCH  17  18
ENDBRANCH   7  17
TORSDOF 10
ENDMDL
MODEL 4
REMARK VINA RESULT:      -7.1      3.321      4.726
REMARK  Name = 
REMARK  12 active torsions:
REMARK  status: ('A' for Active; 'I' for Inactive)
REMARK    1  A    between atoms: C_1  and  C_2
REMARK    2  A    between atoms: C_2  and  O_3
REMARK    3  A    between atoms: O_3  and  C_4
REMARK    4  A    between atoms: C_4  and  C_6
REMARK    5  A    between atoms: C_12  and  O_13
REMARK    6  A    between atoms: O_13  and  C_14
REMARK    7  A    between atoms: C_14  and  C_15
REMARK    8  A    between atoms: C_15  and  N_16
REMARK    9  A    between atoms: N_16  and  C_17
REMARK   10  A    between atoms: C_17  and  C_18
REMARK   11  A    between atoms: C_25  and  C_26
REMARK   12  A    between atoms: C_26  and  C_27
REMARK                            x       y       z     vdW  Elec       q    Type
REMARK                         _______ _______ _______ _____ _____    ______ ____
ROOT
ATOM      1  C   UNL     1       3.529   5.265  18.743  0.00  0.00    +0.000 A 
ATOM      2  O   UNL     1       3.620   6.206  17.753  0.00  0.00    +0.000 OA
ATOM      3  C   UNL     1       2.887   7.281  18.143  0.00  0.00    +0.000 A 
ATOM      4  C   UNL     1       2.748   8.458  17.411  0.00  0.00    +0.000 A 
ATOM      5  C   UNL     1       1.966   9.461  17.989  0.00  0.00    +0.000 A 
ATOM      6  C   UNL     1       1.358   9.275  19.233  0.00  0.00    +0.000 A 
ATOM      7  C   UNL     1       1.505   8.074  19.946  0.00  0.00    +0.000 A 
ATOM      8  C   UNL     1       2.306   7.053  19.383  0.00  0.00    +0.000 A 
ATOM      9  C   UNL     1       2.727   5.742  19.776  0.00  0.00    +0.000 A 
ENDROOT
BRANCH   1  10
ATOM     10  C   UNL     1       4.258   4.019  18.632  0.00  0.00    +0.000 C 
ATOM     11  O   UNL     1       3.846   3.011  18.075  0.00  0.00    +0.000 OA
BRANCH  10  12
ATOM     12  O   UNL     1       5.424   4.084  19.338  0.00  0.00    +0.000 OA
BRANCH  12  14
ATOM     13  C   UNL     1       7.330   4.911  18.172  0.00  0.00    +0.000 C 
ATOM     14  C   UNL     1       6.191   5.272  19.108  0.00  0.00    +0.000 C 
ENDBRANCH  12  14
ENDBRANCH  10  12
ENDBRANCH   1  10
BRANCH   9  15
ATOM     15  C   UNL     1       2.412   5.018  21.047  0.00  0.00    +0.000 C 
ATOM     16  C   UNL     1       1.395   3.907  20.836  0.00  0.00    +0.000 C 
ENDBRANCH   9  15
BRANCH   7  17
ATOM     17  O   UNL     1       0.990   7.864  21.194  0.00  0.00    +0.000 OA
BRANCH  17  18
ATOM     18  C   UNL     1       1.238   8.875  22.173  0.00  0.00    +0.000 C 
BRANCH  18  19
ATOM     19  C   UNL     1      -0.123   9.316  22.738  0.00  0.00    +0.000 C 
BRANCH  19  20
ATOM     20  N   UNL     1      -0.231  10.763  22.991  0.00  0.00    +0.000 NA
ATOM     21  H   UNL     1       0.693  11.175  22.826  0.00  0.00    +0.000 HD
BRANCH  20  22
ATOM     22  C   UNL     1      -1.186  11.423  22.100  0.00  0.00    +0.000 C 
BRANCH  22  23
ATOM     23  C   UNL     1      -0.501  11.992  20.890  0.00  0.00    +0.000 A 
ATOM     24  C   UNL     1      -1.125  12.022  19.641  0.00  0.00    +0.000 A 
ATOM     25  C   UNL     1      -0.452  12.550  18.545  0.00  0.00    +0.000 A 
ATOM     26  C   UNL     1       0.832  13.030  18.733  0.00  0.00    +0.000 A 
ATOM     27  N   UNL     1       1.475  13.016  19.921  0.00  0.00    +0.000 NA
ATOM     28  C   UNL     1       0.793  12.502  20.970  0.00  0.00    +0.000 A 
ENDBRANCH  22  23
ENDBRANCH  20  22
ENDBRANCH  19  20
ENDBRANCH  18  19
ENDBRANCH  17  18
ENDBRANCH   7  17
TORSDOF 10
ENDMDL
MODEL 5
REMARK VINA RESULT:      -7.1      1.734      2.078
REMARK  Name = 
REMARK  12 active torsions:
REMARK  status: ('A' for Active; 'I' for Inactive)
REMARK    1  A    between atoms: C_1  and  C_2
REMARK    2  A    between atoms: C_2  and  O_3
REMARK    3  A    between atoms: O_3  and  C_4
REMARK    4  A    between atoms: C_4  and  C_6
REMARK    5  A    between atoms: C_12  and  O_13
REMARK    6  A    between atoms: O_13  and  C_14
REMARK    7  A    between atoms: C_14  and  C_15
REMARK    8  A    between atoms: C_15  and  N_16
REMARK    9  A    between atoms: N_16  and  C_17
REMARK   10  A    between atoms: C_17  and  C_18
REMARK   11  A    between atoms: C_25  and  C_26
REMARK   12  A    between atoms: C_26  and  C_27
REMARK                            x       y       z     vdW  Elec       q    Type
REMARK                         _______ _______ _______ _____ _____    ______ ____
ROOT
ATOM      1  C   UNL     1       5.575   4.568  18.538  0.00  0.00    +0.000 A 
ATOM      2  O   UNL     1       5.133   3.436  19.168  0.00  0.00    +0.000 OA
ATOM      3  C   UNL     1       3.910   3.711  19.692  0.00  0.00    +0.000 A 
ATOM      4  C   UNL     1       3.122   2.802  20.393  0.00  0.00    +0.000 A 
ATOM      5  C   UNL     1       1.882   3.267  20.839  0.00  0.00    +0.000 A 
ATOM      6  C   UNL     1       1.473   4.580  20.590  0.00  0.00    +0.000 A 
ATOM      7  C   UNL     1       2.291   5.480  19.889  0.00  0.00    +0.000 A 
ATOM      8  C   UNL     1       3.543   5.022  19.417  0.00  0.00    +0.000 A 
ATOM      9  C   UNL     1       4.625   5.579  18.662  0.00  0.00    +0.000 A 
ENDROOT
BRANCH   1  10
ATOM     10  C   UNL     1       6.839   4.563  17.833  0.00  0.00    +0.000 C 
ATOM     11  O   UNL     1       7.938   4.473  18.362  0.00  0.00    +0.000 OA
BRANCH  10  12
ATOM     12  O   UNL     1       6.644   4.790  16.502  0.00  0.00    +0.000 OA
BRANCH  12  14
ATOM     13  C   UNL     1       6.095   3.965  14.334  0.00  0.00    +0.000 C 
ATOM     14  C   UNL     1       5.906   3.763  15.827  0.00  0.00    +0.000 C 
ENDBRANCH  12  14
ENDBRANCH  10  12
ENDBRANCH   1  10
BRANCH   9  15
ATOM     15  C   UNL     1       4.729   6.954  18.083  0.00  0.00    +0.000 C 
ATOM     16  C   UNL     1       4.075   7.051  16.713  0.00  0.00    +0.000 C 
ENDBRANCH   9  15
BRANCH   7  17
ATOM     17  O   UNL     1       1.914   6.752  19.559  0.00  0.00    +0.000 OA
BRANCH  17  18
ATOM     18  C   UNL     1       1.584   7.627  20.639  0.00  0.00    +0.000 C 
BRANCH  18  19
ATOM     19  C   UNL     1       1.510   9.055  20.072  0.00  0.00    +0.000 C 
BRANCH  19  20
ATOM     20  N   UNL     1       0.139   9.556  19.878  0.00  0.00    +0.000 NA
ATOM     21  H   UNL     1      -0.174   9.953  20.769  0.00  0.00    +0.000 HD
BRANCH  20  22
ATOM     22  C   UNL     1       0.059  10.607  18.862  0.00  0.00    +0.000 C 
BRANCH  22  23
ATOM     23  C   UNL     1      -1.312  10.672  18.251  0.00  0.00    +0.000 A 
ATOM     24  C   UNL     1      -1.684   9.836  17.195  0.00  0.00    +0.000 A 
ATOM     25  C   UNL     1      -2.961   9.934  16.654  0.00  0.00    +0.000 A 
ATOM     26  C   UNL     1      -3.829  10.872  17.186  0.00  0.00    +0.000 A 
ATOM     27  N   UNL     1      -3.509  11.702  18.203  0.00  0.00    +0.000 NA
ATOM     28  C   UNL     1      -2.262  11.579  18.712  0.00  0.00    +0.000 A 
ENDBRANCH  22  23
ENDBRANCH  20  22
ENDBRANCH  19  20
ENDBRANCH  18  19
ENDBRANCH  17  18
ENDBRANCH   7  17
TORSDOF 10
ENDMDL
MODEL 6
REMARK VINA RESULT:      -7.1      2.932      4.927
REMARK  Name = 
REMARK  12 active torsions:
REMARK  status: ('A' for Active; 'I' for Inactive)
REMARK    1  A    between atoms: C_1  and  C_2
REMARK    2  A    between atoms: C_2  and  O_3
REMARK    3  A    between atoms: O_3  and  C_4
REMARK    4  A    between atoms: C_4  and  C_6
REMARK    5  A    between atoms: C_12  and  O_13
REMARK    6  A    between atoms: O_13  and  C_14
REMARK    7  A    between atoms: C_14  and  C_15
REMARK    8  A    between atoms: C_15  and  N_16
REMARK    9  A    between atoms: N_16  and  C_17
REMARK   10  A    between atoms: C_17  and  C_18
REMARK   11  A    between atoms: C_25  and  C_26
REMARK   12  A    between atoms: C_26  and  C_27
REMARK                            x       y       z     vdW  Elec       q    Type
REMARK                         _______ _______ _______ _____ _____    ______ ____
ROOT
ATOM      1  C   UNL     1       4.115   3.612  19.097  0.00  0.00    +0.000 A 
ATOM      2  O   UNL     1       4.761   3.309  17.929  0.00  0.00    +0.000 OA
ATOM      3  C   UNL     1       4.830   4.449  17.194  0.00  0.00    +0.000 A 
ATOM      4  C   UNL     1       5.437   4.555  15.944  0.00  0.00    +0.000 A 
ATOM      5  C   UNL     1       5.423   5.819  15.351  0.00  0.00    +0.000 A 
ATOM      6  C   UNL     1       4.823   6.909  15.988  0.00  0.00    +0.000 A 
ATOM      7  C   UNL     1       4.209   6.773  17.244  0.00  0.00    +0.000 A 
ATOM      8  C   UNL     1       4.227   5.503  17.866  0.00  0.00    +0.000 A 
ATOM      9  C   UNL     1       3.764   4.959  19.108  0.00  0.00    +0.000 A 
ENDROOT
BRANCH   1  10
ATOM     10  C   UNL     1       3.937   2.598  20.115  0.00  0.00    +0.000 C 
ATOM     11  O   UNL     1       4.845   2.053  20.729  0.00  0.00    +0.000 OA
BRANCH  10  12
ATOM     12  O   UNL     1       2.623   2.246  20.215  0.00  0.00    +0.000 OA
BRANCH  12  14
ATOM     13  C   UNL     1       0.625   2.350  18.921  0.00  0.00    +0.000 C 
ATOM     14  C   UNL     1       2.036   1.794  18.988  0.00  0.00    +0.000 C 
ENDBRANCH  12  14
ENDBRANCH  10  12
ENDBRANCH   1  10
BRANCH   9  15
ATOM     15  C   UNL     1       3.071   5.676  20.223  0.00  0.00    +0.000 C 
ATOM     16  C   UNL     1       1.561   5.505  20.163  0.00  0.00    +0.000 C 
ENDBRANCH   9  15
BRANCH   7  17
ATOM     17  O   UNL     1       3.669   7.816  17.942  0.00  0.00    +0.000 OA
BRANCH  17  18
ATOM     18  C   UNL     1       2.290   8.107  17.703  0.00  0.00    +0.000 C 
BRANCH  18  19
ATOM     19  C   UNL     1       2.091   9.617  17.915  0.00  0.00    +0.000 C 
BRANCH  19  20
ATOM     20  N   UNL     1       0.810   9.974  18.546  0.00  0.00    +0.000 NA
ATOM     21  H   UNL     1       0.480   9.153  19.062  0.00  0.00    +0.000 HD
BRANCH  20  22
ATOM     22  C   UNL     1       0.935  11.082  19.494  0.00  0.00    +0.000 C 
BRANCH  22  23
ATOM     23  C   UNL     1       0.455  10.686  20.863  0.00  0.00    +0.000 A 
ATOM     24  C   UNL     1      -0.678  11.266  21.437  0.00  0.00    +0.000 A 
ATOM     25  C   UNL     1      -1.084  10.876  22.708  0.00  0.00    +0.000 A 
ATOM     26  C   UNL     1      -0.337   9.917  23.370  0.00  0.00    +0.000 A 
ATOM     27  N   UNL     1       0.767   9.334  22.854  0.00  0.00    +0.000 NA
ATOM     28  C   UNL     1       1.134   9.730  21.614  0.00  0.00    +0.000 A 
ENDBRANCH  22  23
ENDBRANCH  20  22
ENDBRANCH  19  20
ENDBRANCH  18  19
ENDBRANCH  17  18
ENDBRANCH   7  17
TORSDOF 10
ENDMDL
MODEL 7
REMARK VINA RESULT:      -7.0      2.058      2.603
REMARK  Name = 
REMARK  12 active torsions:
REMARK  status: ('A' for Active; 'I' for Inactive)
REMARK    1  A    between atoms: C_1  and  C_2
REMARK    2  A    between atoms: C_2  and  O_3
REMARK    3  A    between atoms: O_3  and  C_4
REMARK    4  A    between atoms: C_4  and  C_6
REMARK    5  A    between atoms: C_12  and  O_13
REMARK    6  A    between atoms: O_13  and  C_14
REMARK    7  A    between atoms: C_14  and  C_15
REMARK    8  A    between atoms: C_15  and  N_16
REMARK    9  A    between atoms: N_16  and  C_17
REMARK   10  A    between atoms: C_17  and  C_18
REMARK   11  A    between atoms: C_25  and  C_26
REMARK   12  A    between atoms: C_26  and  C_27
REMARK                            x       y       z     vdW  Elec       q    Type
REMARK                         _______ _______ _______ _____ _____    ______ ____
ROOT
ATOM      1  C   UNL     1       5.520   4.561  15.932  0.00  0.00    +0.000 A 
ATOM      2  O   UNL     1       4.709   3.487  16.184  0.00  0.00    +0.000 OA
ATOM      3  C   UNL     1       3.734   3.902  17.034  0.00  0.00    +0.000 A 
ATOM      4  C   UNL     1       2.700   3.100  17.510  0.00  0.00    +0.000 A 
ATOM      5  C   UNL     1       1.779   3.713  18.363  0.00  0.00    +0.000 A 
ATOM      6  C   UNL     1       1.907   5.060  18.714  0.00  0.00    +0.000 A 
ATOM      7  C   UNL     1       2.965   5.844  18.227  0.00  0.00    +0.000 A 
ATOM      8  C   UNL     1       3.898   5.243  17.351  0.00  0.00    +0.000 A 
ATOM      9  C   UNL     1       5.058   5.674  16.630  0.00  0.00    +0.000 A 
ENDROOT
BRANCH   1  10
ATOM     10  C   UNL     1       6.627   4.437  15.009  0.00  0.00    +0.000 C 
ATOM     11  O   UNL     1       7.606   5.171  14.984  0.00  0.00    +0.000 OA
BRANCH  10  12
ATOM     12  O   UNL     1       6.376   3.460  14.091  0.00  0.00    +0.000 OA
BRANCH  12  14
ATOM     13  C   UNL     1       5.520   3.047  11.905  0.00  0.00    +0.000 C 
ATOM     14  C   UNL     1       6.481   3.888  12.727  0.00  0.00    +0.000 C 
ENDBRANCH  12  14
ENDBRANCH  10  12
ENDBRANCH   1  10
BRANCH   9  15
ATOM     15  C   UNL     1       5.659   7.044  16.590  0.00  0.00    +0.000 C 
ATOM     16  C   UNL     1       6.843   7.179  17.536  0.00  0.00    +0.000 C 
ENDBRANCH   9  15
BRANCH   7  17
ATOM     17  O   UNL     1       3.100   7.180  18.482  0.00  0.00    +0.000 OA
BRANCH  17  18
ATOM     18  C   UNL     1       2.254   8.066  17.746  0.00  0.00    +0.000 C 
BRANCH  18  19
ATOM     19  C   UNL     1       2.013   9.309  18.619  0.00  0.00    +0.000 C 
BRANCH  19  20
ATOM     20  N   UNL     1       0.689   9.348  19.261  0.00  0.00    +0.000 NA
ATOM     21  H   UNL     1       0.188   8.497  18.988  0.00  0.00    +0.000 HD
BRANCH  20  22
ATOM     22  C   UNL     1       0.768   9.377  20.722  0.00  0.00    +0.000 C 
BRANCH  22  23
ATOM     23  C   UNL     1      -0.218  10.351  21.303  0.00  0.00    +0.000 A 
ATOM     24  C   UNL     1      -0.547  10.339  22.660  0.00  0.00    +0.000 A 
ATOM     25  C   UNL     1      -1.470  11.253  23.155  0.00  0.00    +0.000 A 
ATOM     26  C   UNL     1      -2.041  12.152  22.271  0.00  0.00    +0.000 A 
ATOM     27  N   UNL     1      -1.756  12.195  20.951  0.00  0.00    +0.000 NA
ATOM     28  C   UNL     1      -0.850  11.298  20.500  0.00  0.00    +0.000 A 
ENDBRANCH  22  23
ENDBRANCH  20  22
ENDBRANCH  19  20
ENDBRANCH  18  19
ENDBRANCH  17  18
ENDBRANCH   7  17
TORSDOF 10
ENDMDL
MODEL 8
REMARK VINA RESULT:      -7.0      1.349      1.638
REMARK  Name = 
REMARK  12 active torsions:
REMARK  status: ('A' for Active; 'I' for Inactive)
REMARK    1  A    between atoms: C_1  and  C_2
REMARK    2  A    between atoms: C_2  and  O_3
REMARK    3  A    between atoms: O_3  and  C_4
REMARK    4  A    between atoms: C_4  and  C_6
REMARK    5  A    between atoms: C_12  and  O_13
REMARK    6  A    between atoms: O_13  and  C_14
REMARK    7  A    between atoms: C_14  and  C_15
REMARK    8  A    between atoms: C_15  and  N_16
REMARK    9  A    between atoms: N_16  and  C_17
REMARK   10  A    between atoms: C_17  and  C_18
REMARK   11  A    between atoms: C_25  and  C_26
REMARK   12  A    between atoms: C_26  and  C_27
REMARK                            x       y       z     vdW  Elec       q    Type
REMARK                         _______ _______ _______ _____ _____    ______ ____
ROOT
ATOM      1  C   UNL     1       5.067   4.395  16.259  0.00  0.00    +0.000 A 
ATOM      2  O   UNL     1       4.182   3.353  16.337  0.00  0.00    +0.000 OA
ATOM      3  C   UNL     1       3.323   3.624  17.353  0.00  0.00    +0.000 A 
ATOM      4  C   UNL     1       2.259   2.809  17.735  0.00  0.00    +0.000 A 
ATOM      5  C   UNL     1       1.473   3.268  18.794  0.00  0.00    +0.000 A 
ATOM      6  C   UNL     1       1.755   4.480  19.430  0.00  0.00    +0.000 A 
ATOM      7  C   UNL     1       2.839   5.278  19.032  0.00  0.00    +0.000 A 
ATOM      8  C   UNL     1       3.638   4.836  17.952  0.00  0.00    +0.000 A 
ATOM      9  C   UNL     1       4.771   5.341  17.237  0.00  0.00    +0.000 A 
ENDROOT
BRANCH   1  10
ATOM     10  C   UNL     1       6.080   4.413  15.225  0.00  0.00    +0.000 C 
ATOM     11  O   UNL     1       7.282   4.531  15.421  0.00  0.00    +0.000 OA
BRANCH  10  12
ATOM     12  O   UNL     1       5.501   4.400  13.989  0.00  0.00    +0.000 OA
BRANCH  12  14
ATOM     13  C   UNL     1       5.228   3.165  11.969  0.00  0.00    +0.000 C 
ATOM     14  C   UNL     1       6.226   3.653  13.004  0.00  0.00    +0.000 C 
ENDBRANCH  12  14
ENDBRANCH  10  12
ENDBRANCH   1  10
BRANCH   9  15
ATOM     15  C   UNL     1       5.493   6.633  17.452  0.00  0.00    +0.000 C 
ATOM     16  C   UNL     1       6.808   6.439  18.192  0.00  0.00    +0.000 C 
ENDBRANCH   9  15
BRANCH   7  17
ATOM     17  O   UNL     1       3.120   6.502  19.572  0.00  0.00    +0.000 OA
BRANCH  17  18
ATOM     18  C   UNL     1       2.120   7.514  19.431  0.00  0.00    +0.000 C 
BRANCH  18  19
ATOM     19  C   UNL     1       1.732   7.982  20.844  0.00  0.00    +0.000 C 
BRANCH  19  20
ATOM     20  N   UNL     1       0.476   8.746  20.902  0.00  0.00    +0.000 NA
ATOM     21  H   UNL     1       0.079   8.618  21.838  0.00  0.00    +0.000 HD
BRANCH  20  22
ATOM     22  C   UNL     1       0.676  10.181  20.690  0.00  0.00    +0.000 C 
BRANCH  22  23
ATOM     23  C   UNL     1      -0.256  10.711  19.636  0.00  0.00    +0.000 A 
ATOM     24  C   UNL     1      -0.678   9.920  18.565  0.00  0.00    +0.000 A 
ATOM     25  C   UNL     1      -1.535  10.452  17.609  0.00  0.00    +0.000 A 
ATOM     26  C   UNL     1      -1.942  11.767  17.752  0.00  0.00    +0.000 A 
ATOM     27  N   UNL     1      -1.555  12.568  18.769  0.00  0.00    +0.000 NA
ATOM     28  C   UNL     1      -0.726  12.021  19.687  0.00  0.00    +0.000 A 
ENDBRANCH  22  23
ENDBRANCH  20  22
ENDBRANCH  19  20
ENDBRANCH  18  19
ENDBRANCH  17  18
ENDBRANCH   7  17
TORSDOF 10
ENDMDL
MODEL 9
REMARK VINA RESULT:      -7.0      2.900      3.126
REMARK  Name = 
REMARK  12 active torsions:
REMARK  status: ('A' for Active; 'I' for Inactive)
REMARK    1  A    between atoms: C_1  and  C_2
REMARK    2  A    between atoms: C_2  and  O_3
REMARK    3  A    between atoms: O_3  and  C_4
REMARK    4  A    between atoms: C_4  and  C_6
REMARK    5  A    between atoms: C_12  and  O_13
REMARK    6  A    between atoms: O_13  and  C_14
REMARK    7  A    between atoms: C_14  and  C_15
REMARK    8  A    between atoms: C_15  and  N_16
REMARK    9  A    between atoms: N_16  and  C_17
REMARK   10  A    between atoms: C_17  and  C_18
REMARK   11  A    between atoms: C_25  and  C_26
REMARK   12  A    between atoms: C_26  and  C_27
REMARK                            x       y       z     vdW  Elec       q    Type
REMARK                         _______ _______ _______ _____ _____    ______ ____
ROOT
ATOM      1  C   UNL     1       5.152   4.135  16.377  0.00  0.00    +0.000 A 
ATOM      2  O   UNL     1       4.662   2.913  16.754  0.00  0.00    +0.000 OA
ATOM      3  C   UNL     1       3.579   3.134  17.544  0.00  0.00    +0.000 A 
ATOM      4  C   UNL     1       2.791   2.135  18.110  0.00  0.00    +0.000 A 
ATOM      5  C   UNL     1       1.705   2.560  18.879  0.00  0.00    +0.000 A 
ATOM      6  C   UNL     1       1.441   3.920  19.065  0.00  0.00    +0.000 A 
ATOM      7  C   UNL     1       2.258   4.907  18.491  0.00  0.00    +0.000 A 
ATOM      8  C   UNL     1       3.354   4.495  17.697  0.00  0.00    +0.000 A 
ATOM      9  C   UNL     1       4.375   5.147  16.934  0.00  0.00    +0.000 A 
ENDROOT
BRANCH   1  10
ATOM     10  C   UNL     1       6.284   4.221  15.479  0.00  0.00    +0.000 C 
ATOM     11  O   UNL     1       7.428   4.492  15.816  0.00  0.00    +0.000 OA
BRANCH  10  12
ATOM     12  O   UNL     1       5.879   4.072  14.185  0.00  0.00    +0.000 OA
BRANCH  12  14
ATOM     13  C   UNL     1       6.393   3.446  11.943  0.00  0.00    +0.000 C 
ATOM     14  C   UNL     1       6.948   4.026  13.231  0.00  0.00    +0.000 C 
ENDBRANCH  12  14
ENDBRANCH  10  12
ENDBRANCH   1  10
BRANCH   9  15
ATOM     15  C   UNL     1       4.573   6.616  16.731  0.00  0.00    +0.000 C 
ATOM     16  C   UNL     1       5.884   7.106  17.328  0.00  0.00    +0.000 C 
ENDBRANCH   9  15
BRANCH   7  17
ATOM     17  O   UNL     1       2.008   6.248  18.583  0.00  0.00    +0.000 OA
BRANCH  17  18
ATOM     18  C   UNL     1       2.620   6.944  19.672  0.00  0.00    +0.000 C 
BRANCH  18  19
ATOM     19  C   UNL     1       1.612   6.962  20.834  0.00  0.00    +0.000 C 
BRANCH  19  20
ATOM     20  N   UNL     1       1.495   8.264  21.511  0.00  0.00    +0.000 NA
ATOM     21  H   UNL     1       2.435   8.546  21.804  0.00  0.00    +0.000 HD
BRANCH  20  22
ATOM     22  C   UNL     1       0.962   9.310  20.636  0.00  0.00    +0.000 C 
BRANCH  22  23
ATOM     23  C   UNL     1       0.252  10.373  21.427  0.00  0.00    +0.000 A 
ATOM     24  C   UNL     1      -0.714  10.052  22.383  0.00  0.00    +0.000 A 
ATOM     25  C   UNL     1      -1.352  11.067  23.088  0.00  0.00    +0.000 A 
ATOM     26  C   UNL     1      -1.004  12.377  22.810  0.00  0.00    +0.000 A 
ATOM     27  N   UNL     1      -0.079  12.732  21.891  0.00  0.00    +0.000 NA
ATOM     28  C   UNL     1       0.528  11.723  21.226  0.00  0.00    +0.000 A 
ENDBRANCH  22  23
ENDBRANCH  20  22
ENDBRANCH  19  20
ENDBRANCH  18  19
ENDBRANCH  17  18
ENDBRANCH   7  17
TORSDOF 10
ENDMDL
