MODEL 1
REMARK VINA RESULT:      -7.4      0.000      0.000
REMARK  Name = 
REMARK  7 active torsions:
REMARK  status: ('A' for Active; 'I' for Inactive)
REMARK    1  A    between atoms: C_1  and  C_2
REMARK    2  A    between atoms: C_2  and  O_3
REMARK    3  A    between atoms: O_3  and  C_4
REMARK    4  A    between atoms: C_6  and  N_7
REMARK    5  A    between atoms: C_8  and  C_10
REMARK    6  A    between atoms: C_13  and  C_14
REMARK    7  A    between atoms: C_17  and  C_18
REMARK                            x       y       z     vdW  Elec       q    Type
REMARK                         _______ _______ _______ _____ _____    ______ ____
ROOT
ATOM      1  C   UNL     1       3.121   6.145  19.019  0.00  0.00    +0.000 A 
ATOM      2  C   UNL     1       3.400   7.097  18.032  0.00  0.00    +0.000 A 
ATOM      3  C   UNL     1       4.271   6.786  16.983  0.00  0.00    +0.000 A 
ATOM      4  C   UNL     1       4.887   5.528  16.906  0.00  0.00    +0.000 A 
ATOM      5  C   UNL     1       4.619   4.591  17.916  0.00  0.00    +0.000 A 
ATOM      6  C   UNL     1       3.748   4.899  18.968  0.00  0.00    +0.000 A 
ENDROOT
BRANCH   4   7
ATOM      7  C   UNL     1       5.782   5.227  15.788  0.00  0.00    +0.000 A 
ATOM      8  N   UNL     1       7.024   5.638  15.617  0.00  0.00    +0.000 NA
ATOM      9  N   UNL     1       7.495   5.137  14.422  0.00  0.00    +0.000 NA
ATOM     10  C   UNL     1       6.532   4.428  13.878  0.00  0.00    +0.000 A 
ATOM     11  C   UNL     1       6.537   3.701  12.594  0.00  0.00    +0.000 C 
ATOM     12  N   UNL     1       5.446   4.454  14.705  0.00  0.00    +0.000 N 
ATOM     13  H   UNL     1       4.564   3.999  14.541  0.00  0.00    +0.000 HD
ENDBRANCH   4   7
BRANCH   1  15
ATOM     14  N   UNL     1       2.038   7.764  20.471  0.00  0.00    +0.000 N 
ATOM     15  C   UNL     1       2.181   6.430  20.136  0.00  0.00    +0.000 C 
ATOM     16  O   UNL     1       1.564   5.520  20.676  0.00  0.00    +0.000 OA
ATOM     17  H   UNL     1       2.417   8.458  19.835  0.00  0.00    +0.000 HD
BRANCH  14  20
ATOM     18  C   UNL     1      -0.209   9.686  20.686  0.00  0.00    +0.000 C 
ATOM     19  C   UNL     1      -0.367   8.206  21.117  0.00  0.00    +0.000 C 
ATOM     20  C   UNL     1       1.117   8.215  21.534  0.00  0.00    +0.000 C 
ATOM     21  C   UNL     1       1.004   9.753  21.648  0.00  0.00    +0.000 C 
BRANCH  18  22
ATOM     22  O   UNL     1       0.123   9.955  19.302  0.00  0.00    +0.000 OA
BRANCH  22  24
ATOM     23  C   UNL     1      -1.953  10.757  18.434  0.00  0.00    +0.000 C 
ATOM     24  C   UNL     1      -0.499  11.089  18.704  0.00  0.00    +0.000 C 
ENDBRANCH  22  24
ENDBRANCH  18  22
ENDBRANCH  14  20
ENDBRANCH   1  15
TORSDOF 5
ENDMDL
MODEL 2
REMARK VINA RESULT:      -7.4      0.314      1.069
REMARK  Name = 
REMARK  7 active torsions:
REMARK  status: ('A' for Active; 'I' for Inactive)
REMARK    1  A    between atoms: C_1  and  C_2
REMARK    2  A    between atoms: C_2  and  O_3
REMARK    3  A    between atoms: O_3  and  C_4
REMARK    4  A    between atoms: C_6  and  N_7
REMARK    5  A    between atoms: C_8  and  C_10
REMARK    6  A    between atoms: C_13  and  C_14
REMARK    7  A    between atoms: C_17  and  C_18
REMARK                            x       y       z     vdW  Elec       q    Type
REMARK                         _______ _______ _______ _____ _____    ______ ____
ROOT
ATOM      1  C   UNL     1       3.082   6.090  19.001  0.00  0.00    +0.000 A 
ATOM      2  C   UNL     1       3.556   4.793  18.782  0.00  0.00    +0.000 A 
ATOM      3  C   UNL     1       4.425   4.533  17.717  0.00  0.00    +0.000 A 
ATOM      4  C   UNL     1       4.824   5.558  16.847  0.00  0.00    +0.000 A 
ATOM      5  C   UNL     1       4.321   6.851  17.062  0.00  0.00    +0.000 A 
ATOM      6  C   UNL     1       3.451   7.114  18.126  0.00  0.00    +0.000 A 
ENDROOT
BRANCH   4   7
ATOM      7  C   UNL     1       5.746   5.259  15.750  0.00  0.00    +0.000 A 
ATOM      8  N   UNL     1       6.978   5.702  15.588  0.00  0.00    +0.000 NA
ATOM      9  N   UNL     1       7.482   5.189  14.413  0.00  0.00    +0.000 NA
ATOM     10  C   UNL     1       6.549   4.441  13.870  0.00  0.00    +0.000 A 
ATOM     11  C   UNL     1       6.596   3.686  12.602  0.00  0.00    +0.000 C 
ATOM     12  N   UNL     1       5.449   4.453  14.679  0.00  0.00    +0.000 N 
ATOM     13  H   UNL     1       4.584   3.969  14.511  0.00  0.00    +0.000 HD
ENDBRANCH   4   7
BRANCH   1  15
ATOM     14  N   UNL     1       2.019   7.756  20.415  0.00  0.00    +0.000 N 
ATOM     15  C   UNL     1       2.177   6.410  20.138  0.00  0.00    +0.000 C 
ATOM     16  O   UNL     1       1.599   5.516  20.743  0.00  0.00    +0.000 OA
ATOM     17  H   UNL     1       2.361   8.426  19.734  0.00  0.00    +0.000 HD
BRANCH  14  20
ATOM     18  C   UNL     1      -0.172   9.739  20.651  0.00  0.00    +0.000 C 
ATOM     19  C   UNL     1      -0.363   8.267  21.096  0.00  0.00    +0.000 C 
ATOM     20  C   UNL     1       1.128   8.240  21.490  0.00  0.00    +0.000 C 
ATOM     21  C   UNL     1       1.058   9.781  21.592  0.00  0.00    +0.000 C 
BRANCH  18  22
ATOM     22  O   UNL     1       0.144   9.989  19.259  0.00  0.00    +0.000 OA
BRANCH  22  24
ATOM     23  C   UNL     1      -1.613  11.567  18.902  0.00  0.00    +0.000 C 
ATOM     24  C   UNL     1      -0.950  10.300  18.401  0.00  0.00    +0.000 C 
ENDBRANCH  22  24
ENDBRANCH  18  22
ENDBRANCH  14  20
ENDBRANCH   1  15
TORSDOF 5
ENDMDL
MODEL 3
REMARK VINA RESULT:      -7.1      4.505      6.854
REMARK  Name = 
REMARK  7 active torsions:
REMARK  status: ('A' for Active; 'I' for Inactive)
REMARK    1  A    between atoms: C_1  and  C_2
REMARK    2  A    between atoms: C_2  and  O_3
REMARK    3  A    between atoms: O_3  and  C_4
REMARK    4  A    between atoms: C_6  and  N_7
REMARK    5  A    between atoms: C_8  and  C_10
REMARK    6  A    between atoms: C_13  and  C_14
REMARK    7  A    between atoms: C_17  and  C_18
REMARK                            x       y       z     vdW  Elec       q    Type
REMARK                         _______ _______ _______ _____ _____    ______ ____
ROOT
ATOM      1  C   UNL     1       6.571   6.000  17.473  0.00  0.00    +0.000 A 
ATOM      2  C   UNL     1       7.657   5.971  18.355  0.00  0.00    +0.000 A 
ATOM      3  C   UNL     1       8.338   7.151  18.670  0.00  0.00    +0.000 A 
ATOM      4  C   UNL     1       7.958   8.376  18.102  0.00  0.00    +0.000 A 
ATOM      5  C   UNL     1       6.884   8.388  17.199  0.00  0.00    +0.000 A 
ATOM      6  C   UNL     1       6.200   7.209  16.880  0.00  0.00    +0.000 A 
ENDROOT
BRANCH   4   7
ATOM      7  C   UNL     1       8.681   9.597  18.462  0.00  0.00    +0.000 A 
ATOM      8  N   UNL     1       8.973  10.620  17.682  0.00  0.00    +0.000 NA
ATOM      9  N   UNL     1       9.677  11.550  18.418  0.00  0.00    +0.000 NA
ATOM     10  C   UNL     1       9.808  11.079  19.637  0.00  0.00    +0.000 A 
ATOM     11  C   UNL     1      10.493  11.692  20.791  0.00  0.00    +0.000 C 
ATOM     12  N   UNL     1       9.192   9.862  19.708  0.00  0.00    +0.000 N 
ATOM     13  H   UNL     1       9.137   9.271  20.520  0.00  0.00    +0.000 HD
ENDBRANCH   4   7
BRANCH   1  15
ATOM     14  N   UNL     1       4.497   4.740  17.577  0.00  0.00    +0.000 N 
ATOM     15  C   UNL     1       5.807   4.770  17.133  0.00  0.00    +0.000 C 
ATOM     16  O   UNL     1       6.324   3.880  16.470  0.00  0.00    +0.000 OA
ATOM     17  H   UNL     1       4.092   5.602  17.926  0.00  0.00    +0.000 HD
BRANCH  14  20
ATOM     18  C   UNL     1       2.547   3.118  19.110  0.00  0.00    +0.000 C 
ATOM     19  C   UNL     1       2.151   3.820  17.787  0.00  0.00    +0.000 C 
ATOM     20  C   UNL     1       3.595   3.605  17.292  0.00  0.00    +0.000 C 
ATOM     21  C   UNL     1       3.701   2.454  18.319  0.00  0.00    +0.000 C 
BRANCH  18  22
ATOM     22  O   UNL     1       2.990   3.949  20.211  0.00  0.00    +0.000 OA
BRANCH  22  24
ATOM     23  C   UNL     1       1.374   2.699  21.449  0.00  0.00    +0.000 C 
ATOM     24  C   UNL     1       2.141   4.003  21.354  0.00  0.00    +0.000 C 
ENDBRANCH  22  24
ENDBRANCH  18  22
ENDBRANCH  14  20
ENDBRANCH   1  15
TORSDOF 5
ENDMDL
MODEL 4
REMARK VINA RESULT:      -7.0      2.656      8.175
REMARK  Name = 
REMARK  7 active torsions:
REMARK  status: ('A' for Active; 'I' for Inactive)
REMARK    1  A    between atoms: C_1  and  C_2
REMARK    2  A    between atoms: C_2  and  O_3
REMARK    3  A    between atoms: O_3  and  C_4
REMARK    4  A    between atoms: C_6  and  N_7
REMARK    5  A    between atoms: C_8  and  C_10
REMARK    6  A    between atoms: C_13  and  C_14
REMARK    7  A    between atoms: C_17  and  C_18
REMARK                            x       y       z     vdW  Elec       q    Type
REMARK                         _______ _______ _______ _____ _____    ______ ____
ROOT
ATOM      1  C   UNL     1       2.654   6.024  18.811  0.00  0.00    +0.000 A 
ATOM      2  C   UNL     1       2.545   7.343  18.360  0.00  0.00    +0.000 A 
ATOM      3  C   UNL     1       1.963   8.319  19.177  0.00  0.00    +0.000 A 
ATOM      4  C   UNL     1       1.469   7.993  20.448  0.00  0.00    +0.000 A 
ATOM      5  C   UNL     1       1.561   6.661  20.879  0.00  0.00    +0.000 A 
ATOM      6  C   UNL     1       2.142   5.681  20.065  0.00  0.00    +0.000 A 
ENDROOT
BRANCH   4   7
ATOM      7  C   UNL     1       0.879   9.039  21.286  0.00  0.00    +0.000 A 
ATOM      8  N   UNL     1       1.177   9.334  22.537  0.00  0.00    +0.000 NA
ATOM      9  N   UNL     1       0.372  10.374  22.950  0.00  0.00    +0.000 NA
ATOM     10  C   UNL     1      -0.409  10.699  21.945  0.00  0.00    +0.000 A 
ATOM     11  C   UNL     1      -1.454  11.740  21.891  0.00  0.00    +0.000 C 
ATOM     12  N   UNL     1      -0.118   9.891  20.883  0.00  0.00    +0.000 N 
ATOM     13  H   UNL     1      -0.563   9.913  19.981  0.00  0.00    +0.000 HD
ENDBRANCH   4   7
BRANCH   1  15
ATOM     14  N   UNL     1       4.244   5.402  17.083  0.00  0.00    +0.000 N 
ATOM     15  C   UNL     1       3.289   4.964  17.982  0.00  0.00    +0.000 C 
ATOM     16  O   UNL     1       2.987   3.788  18.140  0.00  0.00    +0.000 OA
ATOM     17  H   UNL     1       4.581   6.355  17.171  0.00  0.00    +0.000 HD
BRANCH  14  20
ATOM     18  C   UNL     1       6.879   5.387  15.725  0.00  0.00    +0.000 C 
ATOM     19  C   UNL     1       6.445   4.231  16.661  0.00  0.00    +0.000 C 
ATOM     20  C   UNL     1       4.990   4.472  16.211  0.00  0.00    +0.000 C 
ATOM     21  C   UNL     1       5.566   5.138  14.940  0.00  0.00    +0.000 C 
BRANCH  18  22
ATOM     22  O   UNL     1       6.980   6.716  16.294  0.00  0.00    +0.000 OA
BRANCH  22  24
ATOM     23  C   UNL     1       7.960   8.273  17.817  0.00  0.00    +0.000 C 
ATOM     24  C   UNL     1       7.607   6.820  17.569  0.00  0.00    +0.000 C 
ENDBRANCH  22  24
ENDBRANCH  18  22
ENDBRANCH  14  20
ENDBRANCH   1  15
TORSDOF 5
ENDMDL
MODEL 5
REMARK VINA RESULT:      -7.0      2.976      8.311
REMARK  Name = 
REMARK  7 active torsions:
REMARK  status: ('A' for Active; 'I' for Inactive)
REMARK    1  A    between atoms: C_1  and  C_2
REMARK    2  A    between atoms: C_2  and  O_3
REMARK    3  A    between atoms: O_3  and  C_4
REMARK    4  A    between atoms: C_6  and  N_7
REMARK    5  A    between atoms: C_8  and  C_10
REMARK    6  A    between atoms: C_13  and  C_14
REMARK    7  A    between atoms: C_17  and  C_18
REMARK                            x       y       z     vdW  Elec       q    Type
REMARK                         _______ _______ _______ _____ _____    ______ ____
ROOT
ATOM      1  C   UNL     1       2.350   6.966  18.674  0.00  0.00    +0.000 A 
ATOM      2  C   UNL     1       2.069   6.949  20.045  0.00  0.00    +0.000 A 
ATOM      3  C   UNL     1       1.479   8.061  20.655  0.00  0.00    +0.000 A 
ATOM      4  C   UNL     1       1.171   9.211  19.912  0.00  0.00    +0.000 A 
ATOM      5  C   UNL     1       1.481   9.225  18.544  0.00  0.00    +0.000 A 
ATOM      6  C   UNL     1       2.073   8.114  17.930  0.00  0.00    +0.000 A 
ENDROOT
BRANCH   4   7
ATOM      7  C   UNL     1       0.540  10.353  20.575  0.00  0.00    +0.000 A 
ATOM      8  N   UNL     1       0.966  11.002  21.643  0.00  0.00    +0.000 NA
ATOM      9  N   UNL     1       0.064  12.000  21.942  0.00  0.00    +0.000 NA
ATOM     10  C   UNL     1      -0.903  11.947  21.055  0.00  0.00    +0.000 A 
ATOM     11  C   UNL     1      -2.107  12.793  20.953  0.00  0.00    +0.000 C 
ATOM     12  N   UNL     1      -0.638  10.934  20.177  0.00  0.00    +0.000 N 
ATOM     13  H   UNL     1      -1.209  10.661  19.396  0.00  0.00    +0.000 HD
ENDBRANCH   4   7
BRANCH   1  15
ATOM     14  N   UNL     1       4.204   6.004  17.434  0.00  0.00    +0.000 N 
ATOM     15  C   UNL     1       2.954   5.793  17.986  0.00  0.00    +0.000 C 
ATOM     16  O   UNL     1       2.368   4.718  17.961  0.00  0.00    +0.000 OA
ATOM     17  H   UNL     1       4.700   6.852  17.688  0.00  0.00    +0.000 HD
BRANCH  14  20
ATOM     18  C   UNL     1       6.921   5.681  16.295  0.00  0.00    +0.000 C 
ATOM     19  C   UNL     1       6.356   4.679  17.333  0.00  0.00    +0.000 C 
ATOM     20  C   UNL     1       4.953   4.932  16.747  0.00  0.00    +0.000 C 
ATOM     21  C   UNL     1       5.654   5.397  15.450  0.00  0.00    +0.000 C 
BRANCH  18  22
ATOM     22  O   UNL     1       7.062   7.065  16.698  0.00  0.00    +0.000 OA
BRANCH  22  24
ATOM     23  C   UNL     1       8.144   8.796  17.938  0.00  0.00    +0.000 C 
ATOM     24  C   UNL     1       7.825   7.315  17.874  0.00  0.00    +0.000 C 
ENDBRANCH  22  24
ENDBRANCH  18  22
ENDBRANCH  14  20
ENDBRANCH   1  15
TORSDOF 5
ENDMDL
MODEL 6
REMARK VINA RESULT:      -7.0      3.017      8.278
REMARK  Name = 
REMARK  7 active torsions:
REMARK  status: ('A' for Active; 'I' for Inactive)
REMARK    1  A    between atoms: C_1  and  C_2
REMARK    2  A    between atoms: C_2  and  O_3
REMARK    3  A    between atoms: O_3  and  C_4
REMARK    4  A    between atoms: C_6  and  N_7
REMARK    5  A    between atoms: C_8  and  C_10
REMARK    6  A    between atoms: C_13  and  C_14
REMARK    7  A    between atoms: C_17  and  C_18
REMARK                            x       y       z     vdW  Elec       q    Type
REMARK                         _______ _______ _______ _____ _____    ______ ____
ROOT
ATOM      1  C   UNL     1       2.312   7.109  18.714  0.00  0.00    +0.000 A 
ATOM      2  C   UNL     1       2.005   8.244  17.955  0.00  0.00    +0.000 A 
ATOM      3  C   UNL     1       1.424   9.360  18.565  0.00  0.00    +0.000 A 
ATOM      4  C   UNL     1       1.128   9.360  19.936  0.00  0.00    +0.000 A 
ATOM      5  C   UNL     1       1.417   8.206  20.681  0.00  0.00    +0.000 A 
ATOM      6  C   UNL     1       1.998   7.086  20.074  0.00  0.00    +0.000 A 
ENDROOT
BRANCH   4   7
ATOM      7  C   UNL     1       0.532  10.548  20.549  0.00  0.00    +0.000 A 
ATOM      8  N   UNL     1       1.034  11.294  21.515  0.00  0.00    +0.000 NA
ATOM      9  N   UNL     1       0.141  12.304  21.803  0.00  0.00    +0.000 NA
ATOM     10  C   UNL     1      -0.896  12.160  21.010  0.00  0.00    +0.000 A 
ATOM     11  C   UNL     1      -2.122  12.978  20.940  0.00  0.00    +0.000 C 
ATOM     12  N   UNL     1      -0.687  11.076  20.205  0.00  0.00    +0.000 N 
ATOM     13  H   UNL     1      -1.317  10.729  19.502  0.00  0.00    +0.000 HD
ENDBRANCH   4   7
BRANCH   1  15
ATOM     14  N   UNL     1       4.108   6.156  17.383  0.00  0.00    +0.000 N 
ATOM     15  C   UNL     1       2.954   5.913  18.106  0.00  0.00    +0.000 C 
ATOM     16  O   UNL     1       2.484   4.796  18.286  0.00  0.00    +0.000 OA
ATOM     17  H   UNL     1       4.539   7.071  17.467  0.00  0.00    +0.000 HD
BRANCH  14  20
ATOM     18  C   UNL     1       6.887   5.789  16.420  0.00  0.00    +0.000 C 
ATOM     19  C   UNL     1       6.241   4.799  17.422  0.00  0.00    +0.000 C 
ATOM     20  C   UNL     1       4.882   5.071  16.747  0.00  0.00    +0.000 C 
ATOM     21  C   UNL     1       5.672   5.522  15.496  0.00  0.00    +0.000 C 
BRANCH  18  22
ATOM     22  O   UNL     1       7.022   7.173  16.829  0.00  0.00    +0.000 OA
BRANCH  22  24
ATOM     23  C   UNL     1       8.192   8.920  17.961  0.00  0.00    +0.000 C 
ATOM     24  C   UNL     1       7.896   7.434  17.923  0.00  0.00    +0.000 C 
ENDBRANCH  22  24
ENDBRANCH  18  22
ENDBRANCH  14  20
ENDBRANCH   1  15
TORSDOF 5
ENDMDL
MODEL 7
REMARK VINA RESULT:      -6.9      3.253      8.167
REMARK  Name = 
REMARK  7 active torsions:
REMARK  status: ('A' for Active; 'I' for Inactive)
REMARK    1  A    between atoms: C_1  and  C_2
REMARK    2  A    between atoms: C_2  and  O_3
REMARK    3  A    between atoms: O_3  and  C_4
REMARK    4  A    between atoms: C_6  and  N_7
REMARK    5  A    between atoms: C_8  and  C_10
REMARK    6  A    between atoms: C_13  and  C_14
REMARK    7  A    between atoms: C_17  and  C_18
REMARK                            x       y       z     vdW  Elec       q    Type
REMARK                         _______ _______ _______ _____ _____    ______ ____
ROOT
ATOM      1  C   UNL     1       2.457   7.547  18.517  0.00  0.00    +0.000 A 
ATOM      2  C   UNL     1       2.040   8.715  17.871  0.00  0.00    +0.000 A 
ATOM      3  C   UNL     1       1.348   9.703  18.581  0.00  0.00    +0.000 A 
ATOM      4  C   UNL     1       1.051   9.536  19.942  0.00  0.00    +0.000 A 
ATOM      5  C   UNL     1       1.452   8.348  20.572  0.00  0.00    +0.000 A 
ATOM      6  C   UNL     1       2.144   7.358  19.865  0.00  0.00    +0.000 A 
ENDROOT
BRANCH   4   7
ATOM      7  C   UNL     1       0.339  10.593  20.662  0.00  0.00    +0.000 A 
ATOM      8  N   UNL     1       0.769  11.299  21.690  0.00  0.00    +0.000 NA
ATOM      9  N   UNL     1      -0.224  12.175  22.072  0.00  0.00    +0.000 NA
ATOM     10  C   UNL     1      -1.250  11.990  21.273  0.00  0.00    +0.000 A 
ATOM     11  C   UNL     1      -2.558  12.673  21.282  0.00  0.00    +0.000 C 
ATOM     12  N   UNL     1      -0.935  11.013  20.372  0.00  0.00    +0.000 N 
ATOM     13  H   UNL     1      -1.533  10.663  19.643  0.00  0.00    +0.000 HD
ENDBRANCH   4   7
BRANCH   1  15
ATOM     14  N   UNL     1       2.712   5.205  17.925  0.00  0.00    +0.000 N 
ATOM     15  C   UNL     1       3.217   6.487  17.802  0.00  0.00    +0.000 C 
ATOM     16  O   UNL     1       4.198   6.773  17.127  0.00  0.00    +0.000 OA
ATOM     17  H   UNL     1       1.784   5.093  18.320  0.00  0.00    +0.000 HD
BRANCH  14  20
ATOM     18  C   UNL     1       3.565   2.475  18.702  0.00  0.00    +0.000 C 
ATOM     19  C   UNL     1       2.603   2.712  17.511  0.00  0.00    +0.000 C 
ATOM     20  C   UNL     1       3.331   4.046  17.248  0.00  0.00    +0.000 C 
ATOM     21  C   UNL     1       4.541   3.456  18.008  0.00  0.00    +0.000 C 
BRANCH  18  22
ATOM     22  O   UNL     1       3.133   2.906  20.017  0.00  0.00    +0.000 OA
BRANCH  22  24
ATOM     23  C   UNL     1       0.940   3.654  20.597  0.00  0.00    +0.000 C 
ATOM     24  C   UNL     1       1.854   2.453  20.451  0.00  0.00    +0.000 C 
ENDBRANCH  22  24
ENDBRANCH  18  22
ENDBRANCH  14  20
ENDBRANCH   1  15
TORSDOF 5
ENDMDL
MODEL 8
REMARK VINA RESULT:      -6.9      3.265      8.244
REMARK  Name = 
REMARK  7 active torsions:
REMARK  status: ('A' for Active; 'I' for Inactive)
REMARK    1  A    between atoms: C_1  and  C_2
REMARK    2  A    between atoms: C_2  and  O_3
REMARK    3  A    between atoms: O_3  and  C_4
REMARK    4  A    between atoms: C_6  and  N_7
REMARK    5  A    between atoms: C_8  and  C_10
REMARK    6  A    between atoms: C_13  and  C_14
REMARK    7  A    between atoms: C_17  and  C_18
REMARK                            x       y       z     vdW  Elec       q    Type
REMARK                         _______ _______ _______ _____ _____    ______ ____
ROOT
ATOM      1  C   UNL     1       2.468   7.487  18.615  0.00  0.00    +0.000 A 
ATOM      2  C   UNL     1       2.125   7.307  19.959  0.00  0.00    +0.000 A 
ATOM      3  C   UNL     1       1.419   8.302  20.643  0.00  0.00    +0.000 A 
ATOM      4  C   UNL     1       1.053   9.495  20.003  0.00  0.00    +0.000 A 
ATOM      5  C   UNL     1       1.425   9.675  18.662  0.00  0.00    +0.000 A 
ATOM      6  C   UNL     1       2.133   8.682  17.974  0.00  0.00    +0.000 A 
ENDROOT
BRANCH   4   7
ATOM      7  C   UNL     1       0.301  10.511  20.741  0.00  0.00    +0.000 A 
ATOM      8  N   UNL     1       0.640  11.104  21.870  0.00  0.00    +0.000 NA
ATOM      9  N   UNL     1      -0.361  11.982  22.226  0.00  0.00    +0.000 NA
ATOM     10  C   UNL     1      -1.300  11.913  21.310  0.00  0.00    +0.000 A 
ATOM     11  C   UNL     1      -2.579  12.646  21.246  0.00  0.00    +0.000 C 
ATOM     12  N   UNL     1      -0.920  11.008  20.360  0.00  0.00    +0.000 N 
ATOM     13  H   UNL     1      -1.446  10.751  19.542  0.00  0.00    +0.000 HD
ENDBRANCH   4   7
BRANCH   1  15
ATOM     14  N   UNL     1       2.703   5.156  17.972  0.00  0.00    +0.000 N 
ATOM     15  C   UNL     1       3.197   6.442  17.847  0.00  0.00    +0.000 C 
ATOM     16  O   UNL     1       4.145   6.743  17.133  0.00  0.00    +0.000 OA
ATOM     17  H   UNL     1       1.794   5.034  18.406  0.00  0.00    +0.000 HD
BRANCH  14  20
ATOM     18  C   UNL     1       3.559   2.401  18.653  0.00  0.00    +0.000 C 
ATOM     19  C   UNL     1       2.565   2.676  17.497  0.00  0.00    +0.000 C 
ATOM     20  C   UNL     1       3.294   4.012  17.247  0.00  0.00    +0.000 C 
ATOM     21  C   UNL     1       4.522   3.395  17.955  0.00  0.00    +0.000 C 
BRANCH  18  22
ATOM     22  O   UNL     1       3.169   2.801  19.990  0.00  0.00    +0.000 OA
BRANCH  22  24
ATOM     23  C   UNL     1       1.073   3.649  20.760  0.00  0.00    +0.000 C 
ATOM     24  C   UNL     1       1.871   2.405  20.423  0.00  0.00    +0.000 C 
ENDBRANCH  22  24
ENDBRANCH  18  22
ENDBRANCH  14  20
ENDBRANCH   1  15
TORSDOF 5
ENDMDL
MODEL 9
REMARK VINA RESULT:      -6.9      1.170      1.388
REMARK  Name = 
REMARK  7 active torsions:
REMARK  status: ('A' for Active; 'I' for Inactive)
REMARK    1  A    between atoms: C_1  and  C_2
REMARK    2  A    between atoms: C_2  and  O_3
REMARK    3  A    between atoms: O_3  and  C_4
REMARK    4  A    between atoms: C_6  and  N_7
REMARK    5  A    between atoms: C_8  and  C_10
REMARK    6  A    between atoms: C_13  and  C_14
REMARK    7  A    between atoms: C_17  and  C_18
REMARK                            x       y       z     vdW  Elec       q    Type
REMARK                         _______ _______ _______ _____ _____    ______ ____
ROOT
ATOM      1  C   UNL     1       2.960   6.969  18.875  0.00  0.00    +0.000 A 
ATOM      2  C   UNL     1       3.269   7.731  17.743  0.00  0.00    +0.000 A 
ATOM      3  C   UNL     1       4.182   7.250  16.799  0.00  0.00    +0.000 A 
ATOM      4  C   UNL     1       4.811   6.008  16.974  0.00  0.00    +0.000 A 
ATOM      5  C   UNL     1       4.512   5.264  18.126  0.00  0.00    +0.000 A 
ATOM      6  C   UNL     1       3.600   5.744  19.073  0.00  0.00    +0.000 A 
ENDROOT
BRANCH   4   7
ATOM      7  C   UNL     1       5.750   5.524  15.961  0.00  0.00    +0.000 A 
ATOM      8  N   UNL     1       7.051   5.741  15.899  0.00  0.00    +0.000 NA
ATOM      9  N   UNL     1       7.550   5.117  14.776  0.00  0.00    +0.000 NA
ATOM     10  C   UNL     1       6.546   4.528  14.166  0.00  0.00    +0.000 A 
ATOM     11  C   UNL     1       6.562   3.744  12.916  0.00  0.00    +0.000 C 
ATOM     12  N   UNL     1       5.404   4.753  14.880  0.00  0.00    +0.000 N 
ATOM     13  H   UNL     1       4.483   4.423  14.646  0.00  0.00    +0.000 HD
ENDBRANCH   4   7
BRANCH   1  15
ATOM     14  N   UNL     1       1.457   8.701  19.677  0.00  0.00    +0.000 N 
ATOM     15  C   UNL     1       1.976   7.436  19.888  0.00  0.00    +0.000 C 
ATOM     16  O   UNL     1       1.643   6.707  20.813  0.00  0.00    +0.000 OA
ATOM     17  H   UNL     1       1.624   9.141  18.778  0.00  0.00    +0.000 HD
BRANCH  14  20
ATOM     18  C   UNL     1       0.157  11.347  19.980  0.00  0.00    +0.000 C 
ATOM     19  C   UNL     1      -0.677  10.050  19.829  0.00  0.00    +0.000 C 
ATOM     20  C   UNL     1       0.444   9.296  20.573  0.00  0.00    +0.000 C 
ATOM     21  C   UNL     1       0.867  10.657  21.172  0.00  0.00    +0.000 C 
BRANCH  18  22
ATOM     22  O   UNL     1       1.046  11.710  18.895  0.00  0.00    +0.000 OA
BRANCH  22  24
ATOM     23  C   UNL     1      -0.270  13.676  18.567  0.00  0.00    +0.000 C 
ATOM     24  C   UNL     1       1.130  13.095  18.573  0.00  0.00    +0.000 C 
ENDBRANCH  22  24
ENDBRANCH  18  22
ENDBRANCH  14  20
ENDBRANCH   1  15
TORSDOF 5
ENDMDL
