MODEL 1
REMARK VINA RESULT:      -8.4      0.000      0.000
REMARK  Name = 
REMARK  4 active torsions:
REMARK  status: ('A' for Active; 'I' for Inactive)
REMARK    1  A    between atoms: C_1  and  C_2
REMARK    2  A    between atoms: C_5  and  C_6
REMARK    3  A    between atoms: C_8  and  N_9
REMARK    4  A    between atoms: N_12  and  N_13
REMARK                            x       y       z     vdW  Elec       q    Type
REMARK                         _______ _______ _______ _____ _____    ______ ____
ROOT
ATOM      1  C   UNL     1       1.863   7.894  19.724  0.00  0.00    +0.000 A 
ATOM      2  N   UNL     1       2.245   6.714  20.170  0.00  0.00    +0.000 NA
ATOM      3  C   UNL     1       2.948   6.021  19.210  0.00  0.00    +0.000 A 
ATOM      4  C   UNL     1       3.102   6.685  18.014  0.00  0.00    +0.000 A 
ATOM      5  S   UNL     1       2.344   8.225  18.105  0.00  0.00    +0.000 S 
ENDROOT
BRANCH   1  10
ATOM      6  C   UNL     1      -1.316  11.442  23.032  0.00  0.00    +0.000 C 
ATOM      7  C   UNL     1      -0.479  10.549  22.161  0.00  0.00    +0.000 A 
ATOM      8  C   UNL     1      -0.398  10.762  20.781  0.00  0.00    +0.000 A 
ATOM      9  C   UNL     1       0.360   9.910  19.969  0.00  0.00    +0.000 A 
ATOM     10  C   UNL     1       1.046   8.823  20.522  0.00  0.00    +0.000 A 
ATOM     11  C   UNL     1       0.974   8.631  21.913  0.00  0.00    +0.000 A 
ATOM     12  C   UNL     1       0.221   9.483  22.725  0.00  0.00    +0.000 A 
ENDBRANCH   1  10
BRANCH   3  13
ATOM     13  N   UNL     1       3.425   4.754  19.475  0.00  0.00    +0.000 N 
ATOM     14  C   UNL     1       4.718   4.303  19.315  0.00  0.00    +0.000 C 
ATOM     15  O   UNL     1       4.994   3.152  19.648  0.00  0.00    +0.000 OA
ATOM     16  N   UNL     1       5.585   5.201  18.728  0.00  0.00    +0.000 N 
ATOM     17  H   UNL     1       2.790   4.064  19.850  0.00  0.00    +0.000 HD
ATOM     18  H   UNL     1       5.218   6.149  18.648  0.00  0.00    +0.000 HD
BRANCH  16  19
ATOM     19  N   UNL     1       6.974   4.986  18.564  0.00  0.00    +0.000 NA
ATOM     20  C   UNL     1       7.706   6.271  18.699  0.00  0.00    +0.000 C 
ATOM     21  C   UNL     1       7.437   7.243  17.536  0.00  0.00    +0.000 C 
ATOM     22  O   UNL     1       7.766   6.646  16.276  0.00  0.00    +0.000 OA
ATOM     23  C   UNL     1       7.020   5.435  16.089  0.00  0.00    +0.000 C 
ATOM     24  C   UNL     1       7.282   4.435  17.224  0.00  0.00    +0.000 C 
ENDBRANCH  16  19
ENDBRANCH   3  13
TORSDOF 3
ENDMDL
MODEL 2
REMARK VINA RESULT:      -8.4      0.099      1.029
REMARK  Name = 
REMARK  4 active torsions:
REMARK  status: ('A' for Active; 'I' for Inactive)
REMARK    1  A    between atoms: C_1  and  C_2
REMARK    2  A    between atoms: C_5  and  C_6
REMARK    3  A    between atoms: C_8  and  N_9
REMARK    4  A    between atoms: N_12  and  N_13
REMARK                            x       y       z     vdW  Elec       q    Type
REMARK                         _______ _______ _______ _____ _____    ______ ____
ROOT
ATOM      1  C   UNL     1       1.875   7.815  19.828  0.00  0.00    +0.000 A 
ATOM      2  N   UNL     1       2.272   6.631  20.248  0.00  0.00    +0.000 NA
ATOM      3  C   UNL     1       2.944   5.949  19.258  0.00  0.00    +0.000 A 
ATOM      4  C   UNL     1       3.058   6.627  18.065  0.00  0.00    +0.000 A 
ATOM      5  S   UNL     1       2.302   8.165  18.197  0.00  0.00    +0.000 S 
ENDROOT
BRANCH   1  10
ATOM      6  C   UNL     1      -1.289  11.542  22.948  0.00  0.00    +0.000 C 
ATOM      7  C   UNL     1      -0.482  10.552  22.157  0.00  0.00    +0.000 A 
ATOM      8  C   UNL     1       0.249   9.546  22.797  0.00  0.00    +0.000 A 
ATOM      9  C   UNL     1       1.022   8.644  22.057  0.00  0.00    +0.000 A 
ATOM     10  C   UNL     1       1.084   8.735  20.663  0.00  0.00    +0.000 A 
ATOM     11  C   UNL     1       0.329   9.738  20.029  0.00  0.00    +0.000 A 
ATOM     12  C   UNL     1      -0.447  10.637  20.766  0.00  0.00    +0.000 A 
ENDBRANCH   1  10
BRANCH   3  13
ATOM     13  N   UNL     1       3.430   4.680  19.493  0.00  0.00    +0.000 N 
ATOM     14  C   UNL     1       4.725   4.242  19.320  0.00  0.00    +0.000 C 
ATOM     15  O   UNL     1       5.010   3.085  19.625  0.00  0.00    +0.000 OA
ATOM     16  N   UNL     1       5.585   5.159  18.751  0.00  0.00    +0.000 N 
ATOM     17  H   UNL     1       2.800   3.977  19.853  0.00  0.00    +0.000 HD
ATOM     18  H   UNL     1       5.211   6.105  18.694  0.00  0.00    +0.000 HD
BRANCH  16  19
ATOM     19  N   UNL     1       6.975   4.957  18.579  0.00  0.00    +0.000 NA
ATOM     20  C   UNL     1       7.697   6.246  18.725  0.00  0.00    +0.000 C 
ATOM     21  C   UNL     1       7.415   7.228  17.574  0.00  0.00    +0.000 C 
ATOM     22  O   UNL     1       7.744   6.648  16.306  0.00  0.00    +0.000 OA
ATOM     23  C   UNL     1       7.007   5.433  16.109  0.00  0.00    +0.000 C 
ATOM     24  C   UNL     1       7.282   4.423  17.232  0.00  0.00    +0.000 C 
ENDBRANCH  16  19
ENDBRANCH   3  13
TORSDOF 3
ENDMDL
MODEL 3
REMARK VINA RESULT:      -7.7      2.545      4.779
REMARK  Name = 
REMARK  4 active torsions:
REMARK  status: ('A' for Active; 'I' for Inactive)
REMARK    1  A    between atoms: C_1  and  C_2
REMARK    2  A    between atoms: C_5  and  C_6
REMARK    3  A    between atoms: C_8  and  N_9
REMARK    4  A    between atoms: N_12  and  N_13
REMARK                            x       y       z     vdW  Elec       q    Type
REMARK                         _______ _______ _______ _____ _____    ______ ____
ROOT
ATOM      1  C   UNL     1       4.055   6.488  18.147  0.00  0.00    +0.000 A 
ATOM      2  N   UNL     1       4.277   5.445  18.921  0.00  0.00    +0.000 NA
ATOM      3  C   UNL     1       5.266   4.639  18.402  0.00  0.00    +0.000 A 
ATOM      4  C   UNL     1       5.803   5.078  17.213  0.00  0.00    +0.000 A 
ATOM      5  S   UNL     1       5.044   6.545  16.740  0.00  0.00    +0.000 S 
ENDROOT
BRANCH   1  10
ATOM      6  C   UNL     1      -0.095  10.325  19.446  0.00  0.00    +0.000 C 
ATOM      7  C   UNL     1       0.998   9.355  19.100  0.00  0.00    +0.000 A 
ATOM      8  C   UNL     1       1.656   9.424  17.867  0.00  0.00    +0.000 A 
ATOM      9  C   UNL     1       2.655   8.501  17.538  0.00  0.00    +0.000 A 
ATOM     10  C   UNL     1       3.011   7.486  18.432  0.00  0.00    +0.000 A 
ATOM     11  C   UNL     1       2.357   7.439  19.676  0.00  0.00    +0.000 A 
ATOM     12  C   UNL     1       1.362   8.363  20.009  0.00  0.00    +0.000 A 
ENDBRANCH   1  10
BRANCH   3  13
ATOM     13  N   UNL     1       5.638   3.484  19.057  0.00  0.00    +0.000 N 
ATOM     14  C   UNL     1       4.830   2.659  19.810  0.00  0.00    +0.000 C 
ATOM     15  O   UNL     1       5.307   1.632  20.289  0.00  0.00    +0.000 OA
ATOM     16  N   UNL     1       3.542   3.113  20.001  0.00  0.00    +0.000 N 
ATOM     17  H   UNL     1       6.594   3.167  18.978  0.00  0.00    +0.000 HD
ATOM     18  H   UNL     1       3.286   3.908  19.417  0.00  0.00    +0.000 HD
BRANCH  16  19
ATOM     19  N   UNL     1       2.520   2.380  20.650  0.00  0.00    +0.000 NA
ATOM     20  C   UNL     1       1.728   1.619  19.650  0.00  0.00    +0.000 C 
ATOM     21  C   UNL     1       0.882   2.524  18.736  0.00  0.00    +0.000 C 
ATOM     22  O   UNL     1      -0.001   3.352  19.502  0.00  0.00    +0.000 OA
ATOM     23  C   UNL     1       0.746   4.150  20.432  0.00  0.00    +0.000 C 
ATOM     24  C   UNL     1       1.587   3.275  21.372  0.00  0.00    +0.000 C 
ENDBRANCH  16  19
ENDBRANCH   3  13
TORSDOF 3
ENDMDL
MODEL 4
REMARK VINA RESULT:      -7.6      2.560      4.894
REMARK  Name = 
REMARK  4 active torsions:
REMARK  status: ('A' for Active; 'I' for Inactive)
REMARK    1  A    between atoms: C_1  and  C_2
REMARK    2  A    between atoms: C_5  and  C_6
REMARK    3  A    between atoms: C_8  and  N_9
REMARK    4  A    between atoms: N_12  and  N_13
REMARK                            x       y       z     vdW  Elec       q    Type
REMARK                         _______ _______ _______ _____ _____    ______ ____
ROOT
ATOM      1  C   UNL     1       3.928   6.508  18.255  0.00  0.00    +0.000 A 
ATOM      2  N   UNL     1       4.200   5.497  19.055  0.00  0.00    +0.000 NA
ATOM      3  C   UNL     1       5.151   4.667  18.505  0.00  0.00    +0.000 A 
ATOM      4  C   UNL     1       5.609   5.054  17.266  0.00  0.00    +0.000 A 
ATOM      5  S   UNL     1       4.821   6.503  16.784  0.00  0.00    +0.000 S 
ENDROOT
BRANCH   1  10
ATOM      6  C   UNL     1      -0.060  10.586  19.306  0.00  0.00    +0.000 C 
ATOM      7  C   UNL     1       0.953   9.507  19.045  0.00  0.00    +0.000 A 
ATOM      8  C   UNL     1       1.252   8.551  20.021  0.00  0.00    +0.000 A 
ATOM      9  C   UNL     1       2.216   7.565  19.784  0.00  0.00    +0.000 A 
ATOM     10  C   UNL     1       2.906   7.521  18.568  0.00  0.00    +0.000 A 
ATOM     11  C   UNL     1       2.582   8.475  17.586  0.00  0.00    +0.000 A 
ATOM     12  C   UNL     1       1.617   9.457  17.820  0.00  0.00    +0.000 A 
ENDBRANCH   1  10
BRANCH   3  13
ATOM     13  N   UNL     1       5.566   3.538  19.181  0.00  0.00    +0.000 N 
ATOM     14  C   UNL     1       4.775   2.653  19.882  0.00  0.00    +0.000 C 
ATOM     15  O   UNL     1       5.295   1.661  20.389  0.00  0.00    +0.000 OA
ATOM     16  N   UNL     1       3.447   3.011  19.993  0.00  0.00    +0.000 N 
ATOM     17  H   UNL     1       6.545   3.292  19.162  0.00  0.00    +0.000 HD
ATOM     18  H   UNL     1       3.171   3.788  19.394  0.00  0.00    +0.000 HD
BRANCH  16  19
ATOM     19  N   UNL     1       2.444   2.202  20.577  0.00  0.00    +0.000 NA
ATOM     20  C   UNL     1       1.737   1.431  19.523  0.00  0.00    +0.000 C 
ATOM     21  C   UNL     1       0.878   2.316  18.601  0.00  0.00    +0.000 C 
ATOM     22  O   UNL     1      -0.080   3.070  19.353  0.00  0.00    +0.000 OA
ATOM     23  C   UNL     1       0.583   3.878  20.336  0.00  0.00    +0.000 C 
ATOM     24  C   UNL     1       1.433   3.021  21.285  0.00  0.00    +0.000 C 
ENDBRANCH  16  19
ENDBRANCH   3  13
TORSDOF 3
ENDMDL
MODEL 5
REMARK VINA RESULT:      -7.4      2.688      4.719
REMARK  Name = 
REMARK  4 active torsions:
REMARK  status: ('A' for Active; 'I' for Inactive)
REMARK    1  A    between atoms: C_1  and  C_2
REMARK    2  A    between atoms: C_5  and  C_6
REMARK    3  A    between atoms: C_8  and  N_9
REMARK    4  A    between atoms: N_12  and  N_13
REMARK                            x       y       z     vdW  Elec       q    Type
REMARK                         _______ _______ _______ _____ _____    ______ ____
ROOT
ATOM      1  C   UNL     1       3.901   6.486  17.726  0.00  0.00    +0.000 A 
ATOM      2  N   UNL     1       3.686   5.186  17.739  0.00  0.00    +0.000 NA
ATOM      3  C   UNL     1       4.712   4.504  17.123  0.00  0.00    +0.000 A 
ATOM      4  C   UNL     1       5.722   5.300  16.632  0.00  0.00    +0.000 A 
ATOM      5  S   UNL     1       5.371   6.950  16.960  0.00  0.00    +0.000 S 
ENDROOT
BRANCH   1  10
ATOM      6  C   UNL     1       0.090  10.205  20.023  0.00  0.00    +0.000 C 
ATOM      7  C   UNL     1       1.096   9.267  19.420  0.00  0.00    +0.000 A 
ATOM      8  C   UNL     1       1.612   9.493  18.139  0.00  0.00    +0.000 A 
ATOM      9  C   UNL     1       2.527   8.600  17.569  0.00  0.00    +0.000 A 
ATOM     10  C   UNL     1       2.939   7.460  18.268  0.00  0.00    +0.000 A 
ATOM     11  C   UNL     1       2.430   7.254  19.562  0.00  0.00    +0.000 A 
ATOM     12  C   UNL     1       1.519   8.147  20.134  0.00  0.00    +0.000 A 
ENDBRANCH   1  10
BRANCH   3  13
ATOM     13  N   UNL     1       4.670   3.129  17.019  0.00  0.00    +0.000 N 
ATOM     14  C   UNL     1       4.053   2.249  17.882  0.00  0.00    +0.000 C 
ATOM     15  O   UNL     1       4.063   1.048  17.619  0.00  0.00    +0.000 OA
ATOM     16  N   UNL     1       3.517   2.819  19.019  0.00  0.00    +0.000 N 
ATOM     17  H   UNL     1       5.109   2.688  16.224  0.00  0.00    +0.000 HD
ATOM     18  H   UNL     1       3.480   3.838  19.000  0.00  0.00    +0.000 HD
BRANCH  16  19
ATOM     19  N   UNL     1       2.753   2.121  19.983  0.00  0.00    +0.000 NA
ATOM     20  C   UNL     1       1.322   2.107  19.584  0.00  0.00    +0.000 C 
ATOM     21  C   UNL     1       0.662   3.496  19.659  0.00  0.00    +0.000 C 
ATOM     22  O   UNL     1       0.776   4.052  20.974  0.00  0.00    +0.000 OA
ATOM     23  C   UNL     1       2.156   4.141  21.359  0.00  0.00    +0.000 C 
ATOM     24  C   UNL     1       2.839   2.767  21.313  0.00  0.00    +0.000 C 
ENDBRANCH  16  19
ENDBRANCH   3  13
TORSDOF 3
ENDMDL
MODEL 6
REMARK VINA RESULT:      -7.4      2.697      4.812
REMARK  Name = 
REMARK  4 active torsions:
REMARK  status: ('A' for Active; 'I' for Inactive)
REMARK    1  A    between atoms: C_1  and  C_2
REMARK    2  A    between atoms: C_5  and  C_6
REMARK    3  A    between atoms: C_8  and  N_9
REMARK    4  A    between atoms: N_12  and  N_13
REMARK                            x       y       z     vdW  Elec       q    Type
REMARK                         _______ _______ _______ _____ _____    ______ ____
ROOT
ATOM      1  C   UNL     1       3.869   6.528  17.783  0.00  0.00    +0.000 A 
ATOM      2  N   UNL     1       3.664   5.227  17.776  0.00  0.00    +0.000 NA
ATOM      3  C   UNL     1       4.686   4.562  17.137  0.00  0.00    +0.000 A 
ATOM      4  C   UNL     1       5.685   5.374  16.648  0.00  0.00    +0.000 A 
ATOM      5  S   UNL     1       5.327   7.015  17.008  0.00  0.00    +0.000 S 
ENDROOT
BRANCH   1  10
ATOM      6  C   UNL     1       0.097  10.413  19.858  0.00  0.00    +0.000 C 
ATOM      7  C   UNL     1       1.054   9.384  19.331  0.00  0.00    +0.000 A 
ATOM      8  C   UNL     1       1.447   8.297  20.120  0.00  0.00    +0.000 A 
ATOM      9  C   UNL     1       2.361   7.354  19.634  0.00  0.00    +0.000 A 
ATOM     10  C   UNL     1       2.907   7.486  18.353  0.00  0.00    +0.000 A 
ATOM     11  C   UNL     1       2.490   8.571  17.562  0.00  0.00    +0.000 A 
ATOM     12  C   UNL     1       1.573   9.510  18.043  0.00  0.00    +0.000 A 
ENDBRANCH   1  10
BRANCH   3  13
ATOM     13  N   UNL     1       4.653   3.190  17.009  0.00  0.00    +0.000 N 
ATOM     14  C   UNL     1       4.054   2.290  17.865  0.00  0.00    +0.000 C 
ATOM     15  O   UNL     1       4.070   1.094  17.582  0.00  0.00    +0.000 OA
ATOM     16  N   UNL     1       3.529   2.837  19.019  0.00  0.00    +0.000 N 
ATOM     17  H   UNL     1       5.085   2.765  16.201  0.00  0.00    +0.000 HD
ATOM     18  H   UNL     1       3.485   3.855  19.018  0.00  0.00    +0.000 HD
BRANCH  16  19
ATOM     19  N   UNL     1       2.783   2.116  19.981  0.00  0.00    +0.000 NA
ATOM     20  C   UNL     1       1.353   2.070  19.583  0.00  0.00    +0.000 C 
ATOM     21  C   UNL     1       0.660   3.442  19.665  0.00  0.00    +0.000 C 
ATOM     22  O   UNL     1       0.762   3.996  20.982  0.00  0.00    +0.000 OA
ATOM     23  C   UNL     1       2.140   4.116  21.366  0.00  0.00    +0.000 C 
ATOM     24  C   UNL     1       2.856   2.759  21.314  0.00  0.00    +0.000 C 
ENDBRANCH  16  19
ENDBRANCH   3  13
TORSDOF 3
ENDMDL
MODEL 7
REMARK VINA RESULT:      -7.3      2.082      2.823
REMARK  Name = 
REMARK  4 active torsions:
REMARK  status: ('A' for Active; 'I' for Inactive)
REMARK    1  A    between atoms: C_1  and  C_2
REMARK    2  A    between atoms: C_5  and  C_6
REMARK    3  A    between atoms: C_8  and  N_9
REMARK    4  A    between atoms: N_12  and  N_13
REMARK                            x       y       z     vdW  Elec       q    Type
REMARK                         _______ _______ _______ _____ _____    ______ ____
ROOT
ATOM      1  C   UNL     1       2.396   6.142  19.147  0.00  0.00    +0.000 A 
ATOM      2  N   UNL     1       2.862   5.687  18.002  0.00  0.00    +0.000 NA
ATOM      3  C   UNL     1       3.264   4.375  18.111  0.00  0.00    +0.000 A 
ATOM      4  C   UNL     1       3.103   3.824  19.363  0.00  0.00    +0.000 A 
ATOM      5  S   UNL     1       2.422   4.989  20.426  0.00  0.00    +0.000 S 
ENDROOT
BRANCH   1  10
ATOM      6  C   UNL     1       0.685  11.657  19.683  0.00  0.00    +0.000 C 
ATOM      7  C   UNL     1       1.101  10.219  19.559  0.00  0.00    +0.000 A 
ATOM      8  C   UNL     1       1.034   9.354  20.657  0.00  0.00    +0.000 A 
ATOM      9  C   UNL     1       1.449   8.022  20.544  0.00  0.00    +0.000 A 
ATOM     10  C   UNL     1       1.947   7.531  19.332  0.00  0.00    +0.000 A 
ATOM     11  C   UNL     1       1.991   8.405  18.230  0.00  0.00    +0.000 A 
ATOM     12  C   UNL     1       1.573   9.733  18.340  0.00  0.00    +0.000 A 
ENDBRANCH   1  10
BRANCH   3  13
ATOM     13  N   UNL     1       3.797   3.716  17.023  0.00  0.00    +0.000 N 
ATOM     14  C   UNL     1       5.084   3.818  16.539  0.00  0.00    +0.000 C 
ATOM     15  O   UNL     1       5.420   3.120  15.584  0.00  0.00    +0.000 OA
ATOM     16  N   UNL     1       5.874   4.762  17.163  0.00  0.00    +0.000 N 
ATOM     17  H   UNL     1       3.216   3.064  16.516  0.00  0.00    +0.000 HD
ATOM     18  H   UNL     1       5.474   5.143  18.019  0.00  0.00    +0.000 HD
BRANCH  16  19
ATOM     19  N   UNL     1       7.249   4.960  16.898  0.00  0.00    +0.000 NA
ATOM     20  C   UNL     1       8.044   4.715  18.128  0.00  0.00    +0.000 C 
ATOM     21  C   UNL     1       7.814   5.781  19.215  0.00  0.00    +0.000 C 
ATOM     22  O   UNL     1       8.106   7.094  18.722  0.00  0.00    +0.000 OA
ATOM     23  C   UNL     1       7.301   7.384  17.570  0.00  0.00    +0.000 C 
ATOM     24  C   UNL     1       7.522   6.348  16.458  0.00  0.00    +0.000 C 
ENDBRANCH  16  19
ENDBRANCH   3  13
TORSDOF 3
ENDMDL
MODEL 8
REMARK VINA RESULT:      -7.2      1.973      2.596
REMARK  Name = 
REMARK  4 active torsions:
REMARK  status: ('A' for Active; 'I' for Inactive)
REMARK    1  A    between atoms: C_1  and  C_2
REMARK    2  A    between atoms: C_5  and  C_6
REMARK    3  A    between atoms: C_8  and  N_9
REMARK    4  A    between atoms: N_12  and  N_13
REMARK                            x       y       z     vdW  Elec       q    Type
REMARK                         _______ _______ _______ _____ _____    ______ ____
ROOT
ATOM      1  C   UNL     1       2.395   5.971  19.236  0.00  0.00    +0.000 A 
ATOM      2  N   UNL     1       2.854   5.593  18.060  0.00  0.00    +0.000 NA
ATOM      3  C   UNL     1       3.289   4.286  18.090  0.00  0.00    +0.000 A 
ATOM      4  C   UNL     1       3.159   3.662  19.310  0.00  0.00    +0.000 A 
ATOM      5  S   UNL     1       2.467   4.749  20.447  0.00  0.00    +0.000 S 
ENDROOT
BRANCH   1  10
ATOM      6  C   UNL     1       0.462  11.294  20.485  0.00  0.00    +0.000 C 
ATOM      7  C   UNL     1       0.988   9.928  20.148  0.00  0.00    +0.000 A 
ATOM      8  C   UNL     1       1.436   9.630  18.856  0.00  0.00    +0.000 A 
ATOM      9  C   UNL     1       1.900   8.347  18.538  0.00  0.00    +0.000 A 
ATOM     10  C   UNL     1       1.917   7.337  19.505  0.00  0.00    +0.000 A 
ATOM     11  C   UNL     1       1.483   7.654  20.805  0.00  0.00    +0.000 A 
ATOM     12  C   UNL     1       1.025   8.934  21.125  0.00  0.00    +0.000 A 
ENDBRANCH   1  10
BRANCH   3  13
ATOM     13  N   UNL     1       3.821   3.703  16.959  0.00  0.00    +0.000 N 
ATOM     14  C   UNL     1       5.108   3.835  16.484  0.00  0.00    +0.000 C 
ATOM     15  O   UNL     1       5.443   3.204  15.482  0.00  0.00    +0.000 OA
ATOM     16  N   UNL     1       5.899   4.732  17.171  0.00  0.00    +0.000 N 
ATOM     17  H   UNL     1       3.238   3.089  16.408  0.00  0.00    +0.000 HD
ATOM     18  H   UNL     1       5.500   5.055  18.052  0.00  0.00    +0.000 HD
BRANCH  16  19
ATOM     19  N   UNL     1       7.275   4.945  16.920  0.00  0.00    +0.000 NA
ATOM     20  C   UNL     1       8.059   4.715  18.161  0.00  0.00    +0.000 C 
ATOM     21  C   UNL     1       7.805   5.784  19.240  0.00  0.00    +0.000 C 
ATOM     22  O   UNL     1       8.087   7.098  18.744  0.00  0.00    +0.000 OA
ATOM     23  C   UNL     1       7.291   7.372  17.581  0.00  0.00    +0.000 C 
ATOM     24  C   UNL     1       7.537   6.334  16.477  0.00  0.00    +0.000 C 
ENDBRANCH  16  19
ENDBRANCH   3  13
TORSDOF 3
ENDMDL
MODEL 9
REMARK VINA RESULT:      -7.0      2.077      3.919
REMARK  Name = 
REMARK  4 active torsions:
REMARK  status: ('A' for Active; 'I' for Inactive)
REMARK    1  A    between atoms: C_1  and  C_2
REMARK    2  A    between atoms: C_5  and  C_6
REMARK    3  A    between atoms: C_8  and  N_9
REMARK    4  A    between atoms: N_12  and  N_13
REMARK                            x       y       z     vdW  Elec       q    Type
REMARK                         _______ _______ _______ _____ _____    ______ ____
ROOT
ATOM      1  C   UNL     1       2.172   8.091  19.294  0.00  0.00    +0.000 A 
ATOM      2  N   UNL     1       3.079   7.217  19.681  0.00  0.00    +0.000 NA
ATOM      3  C   UNL     1       3.736   6.668  18.603  0.00  0.00    +0.000 A 
ATOM      4  C   UNL     1       3.320   7.132  17.375  0.00  0.00    +0.000 A 
ATOM      5  S   UNL     1       2.072   8.293  17.588  0.00  0.00    +0.000 S 
ENDROOT
BRANCH   1  10
ATOM      6  C   UNL     1      -1.258  10.727  23.156  0.00  0.00    +0.000 C 
ATOM      7  C   UNL     1      -0.363  10.073  22.143  0.00  0.00    +0.000 A 
ATOM      8  C   UNL     1      -0.455  10.399  20.785  0.00  0.00    +0.000 A 
ATOM      9  C   UNL     1       0.362   9.766  19.841  0.00  0.00    +0.000 A 
ATOM     10  C   UNL     1       1.283   8.789  20.236  0.00  0.00    +0.000 A 
ATOM     11  C   UNL     1       1.380   8.485  21.606  0.00  0.00    +0.000 A 
ATOM     12  C   UNL     1       0.569   9.119  22.550  0.00  0.00    +0.000 A 
ENDBRANCH   1  10
BRANCH   3  13
ATOM     13  N   UNL     1       4.717   5.717  18.795  0.00  0.00    +0.000 N 
ATOM     14  C   UNL     1       4.559   4.458  19.334  0.00  0.00    +0.000 C 
ATOM     15  O   UNL     1       5.530   3.706  19.390  0.00  0.00    +0.000 OA
ATOM     16  N   UNL     1       3.298   4.182  19.822  0.00  0.00    +0.000 N 
ATOM     17  H   UNL     1       5.660   5.925  18.499  0.00  0.00    +0.000 HD
ATOM     18  H   UNL     1       2.589   4.867  19.564  0.00  0.00    +0.000 HD
BRANCH  16  19
ATOM     19  N   UNL     1       2.889   2.923  20.320  0.00  0.00    +0.000 NA
ATOM     20  C   UNL     1       2.740   1.958  19.201  0.00  0.00    +0.000 C 
ATOM     21  C   UNL     1       1.555   2.288  18.275  0.00  0.00    +0.000 C 
ATOM     22  O   UNL     1       0.326   2.349  19.008  0.00  0.00    +0.000 OA
ATOM     23  C   UNL     1       0.420   3.325  20.056  0.00  0.00    +0.000 C 
ATOM     24  C   UNL     1       1.581   3.013  21.010  0.00  0.00    +0.000 C 
ENDBRANCH  16  19
ENDBRANCH   3  13
TORSDOF 3
ENDMDL
