MODEL 1
REMARK VINA RESULT:      -8.0      0.000      0.000
REMARK  Name = 
REMARK  7 active torsions:
REMARK  status: ('A' for Active; 'I' for Inactive)
REMARK    1  A    between atoms: C_1  and  C_2
REMARK    2  A    between atoms: C_2  and  C_3
REMARK    3  A    between atoms: C_2  and  O_4
REMARK    4  A    between atoms: O_4  and  C_5
REMARK    5  A    between atoms: C_5  and  C_7
REMARK    6  A    between atoms: C_8  and  N_9
REMARK    7  A    between atoms: C_12  and  C_13
REMARK                            x       y       z     vdW  Elec       q    Type
REMARK                         _______ _______ _______ _____ _____    ______ ____
ROOT
ATOM      1  N   UNL     1       4.440   4.808  17.394  0.00  0.00    +0.000 N 
ATOM      2  C   UNL     1       4.377   4.469  18.735  0.00  0.00    +0.000 A 
ATOM      3  N   UNL     1       3.702   5.357  19.420  0.00  0.00    +0.000 NA
ATOM      4  C   UNL     1       3.361   6.280  18.473  0.00  0.00    +0.000 A 
ATOM      5  N   UNL     1       3.886   6.046  17.263  0.00  0.00    +0.000 NA
ENDROOT
BRANCH   4   6
ATOM      6  C   UNL     1       2.505   7.416  18.793  0.00  0.00    +0.000 A 
ATOM      7  C   UNL     1       2.180   8.353  17.800  0.00  0.00    +0.000 A 
ATOM      8  C   UNL     1       1.367   9.450  18.093  0.00  0.00    +0.000 A 
ATOM      9  C   UNL     1       0.872   9.627  19.387  0.00  0.00    +0.000 A 
ATOM     10 CL   UNL     1      -0.135  10.999  19.679  0.00  0.00    +0.000 Cl
ATOM     11  C   UNL     1       1.200   8.707  20.388  0.00  0.00    +0.000 A 
ATOM     12 CL   UNL     1       0.634   8.870  22.013  0.00  0.00    +0.000 Cl
ATOM     13  C   UNL     1       2.013   7.607  20.092  0.00  0.00    +0.000 A 
ENDBRANCH   4   6
BRANCH   1  15
ATOM     14  C   UNL     1       6.309   4.134  15.906  0.00  0.00    +0.000 C 
ATOM     15  C   UNL     1       5.040   4.091  16.353  0.00  0.00    +0.000 C 
BRANCH  14  16
ATOM     16  C   UNL     1       7.401   4.771  16.666  0.00  0.00    +0.000 C 
ATOM     17  O   UNL     1       8.192   4.150  17.354  0.00  0.00    +0.000 OA
BRANCH  16  18
ATOM     18  O   UNL     1       7.391   6.109  16.467  0.00  0.00    +0.000 OA
BRANCH  18  20
ATOM     19  C   UNL     1       7.651   6.087  18.882  0.00  0.00    +0.000 C 
ATOM     20  C   UNL     1       7.154   6.868  17.668  0.00  0.00    +0.000 C 
ATOM     21  C   UNL     1       7.890   8.196  17.542  0.00  0.00    +0.000 C 
ENDBRANCH  18  20
ENDBRANCH  16  18
ENDBRANCH  14  16
ENDBRANCH   1  15
TORSDOF 5
ENDMDL
MODEL 2
REMARK VINA RESULT:      -7.9      0.989      1.230
REMARK  Name = 
REMARK  7 active torsions:
REMARK  status: ('A' for Active; 'I' for Inactive)
REMARK    1  A    between atoms: C_1  and  C_2
REMARK    2  A    between atoms: C_2  and  C_3
REMARK    3  A    between atoms: C_2  and  O_4
REMARK    4  A    between atoms: O_4  and  C_5
REMARK    5  A    between atoms: C_5  and  C_7
REMARK    6  A    between atoms: C_8  and  N_9
REMARK    7  A    between atoms: C_12  and  C_13
REMARK                            x       y       z     vdW  Elec       q    Type
REMARK                         _______ _______ _______ _____ _____    ______ ____
ROOT
ATOM      1  N   UNL     1       4.176   4.609  17.660  0.00  0.00    +0.000 N 
ATOM      2  C   UNL     1       2.890   4.103  17.588  0.00  0.00    +0.000 A 
ATOM      3  N   UNL     1       2.009   4.979  18.003  0.00  0.00    +0.000 NA
ATOM      4  C   UNL     1       2.784   6.046  18.360  0.00  0.00    +0.000 A 
ATOM      5  N   UNL     1       4.102   5.820  18.279  0.00  0.00    +0.000 NA
ENDROOT
BRANCH   4   6
ATOM      6  C   UNL     1       2.189   7.303  18.797  0.00  0.00    +0.000 A 
ATOM      7  C   UNL     1       1.962   8.333  17.870  0.00  0.00    +0.000 A 
ATOM      8  C   UNL     1       1.400   9.546  18.274  0.00  0.00    +0.000 A 
ATOM      9  C   UNL     1       1.064   9.747  19.615  0.00  0.00    +0.000 A 
ATOM     10 CL   UNL     1       0.364  11.265  20.046  0.00  0.00    +0.000 Cl
ATOM     11  C   UNL     1       1.297   8.733  20.550  0.00  0.00    +0.000 A 
ATOM     12 CL   UNL     1       0.918   8.917  22.226  0.00  0.00    +0.000 Cl
ATOM     13  C   UNL     1       1.859   7.518  20.142  0.00  0.00    +0.000 A 
ENDBRANCH   4   6
BRANCH   1  15
ATOM     14  C   UNL     1       6.317   4.412  16.420  0.00  0.00    +0.000 C 
ATOM     15  C   UNL     1       5.368   3.985  17.273  0.00  0.00    +0.000 C 
BRANCH  14  16
ATOM     16  C   UNL     1       6.396   5.807  15.946  0.00  0.00    +0.000 C 
ATOM     17  O   UNL     1       5.554   6.322  15.232  0.00  0.00    +0.000 OA
BRANCH  16  18
ATOM     18  O   UNL     1       7.510   6.403  16.431  0.00  0.00    +0.000 OA
BRANCH  18  20
ATOM     19  C   UNL     1       7.909   6.221  18.820  0.00  0.00    +0.000 C 
ATOM     20  C   UNL     1       7.307   7.061  17.696  0.00  0.00    +0.000 C 
ATOM     21  C   UNL     1       7.970   8.430  17.631  0.00  0.00    +0.000 C 
ENDBRANCH  18  20
ENDBRANCH  16  18
ENDBRANCH  14  16
ENDBRANCH   1  15
TORSDOF 5
ENDMDL
MODEL 3
REMARK VINA RESULT:      -7.9      1.280      2.020
REMARK  Name = 
REMARK  7 active torsions:
REMARK  status: ('A' for Active; 'I' for Inactive)
REMARK    1  A    between atoms: C_1  and  C_2
REMARK    2  A    between atoms: C_2  and  C_3
REMARK    3  A    between atoms: C_2  and  O_4
REMARK    4  A    between atoms: O_4  and  C_5
REMARK    5  A    between atoms: C_5  and  C_7
REMARK    6  A    between atoms: C_8  and  N_9
REMARK    7  A    between atoms: C_12  and  C_13
REMARK                            x       y       z     vdW  Elec       q    Type
REMARK                         _______ _______ _______ _____ _____    ______ ____
ROOT
ATOM      1  N   UNL     1       4.156   4.190  17.166  0.00  0.00    +0.000 N 
ATOM      2  C   UNL     1       2.867   3.686  17.160  0.00  0.00    +0.000 A 
ATOM      3  N   UNL     1       2.045   4.470  17.811  0.00  0.00    +0.000 NA
ATOM      4  C   UNL     1       2.861   5.475  18.247  0.00  0.00    +0.000 A 
ATOM      5  N   UNL     1       4.160   5.283  17.979  0.00  0.00    +0.000 NA
ENDROOT
BRANCH   4   6
ATOM      6  C   UNL     1       2.328   6.636  18.949  0.00  0.00    +0.000 A 
ATOM      7  C   UNL     1       1.887   6.512  20.276  0.00  0.00    +0.000 A 
ATOM      8  C   UNL     1       1.367   7.613  20.960  0.00  0.00    +0.000 A 
ATOM      9  C   UNL     1       1.275   8.853  20.323  0.00  0.00    +0.000 A 
ATOM     10 CL   UNL     1       0.632  10.175  21.228  0.00  0.00    +0.000 Cl
ATOM     11  C   UNL     1       1.699   8.984  18.996  0.00  0.00    +0.000 A 
ATOM     12 CL   UNL     1       1.604  10.483  18.140  0.00  0.00    +0.000 Cl
ATOM     13  C   UNL     1       2.221   7.880  18.313  0.00  0.00    +0.000 A 
ENDBRANCH   4   6
BRANCH   1  15
ATOM     14  C   UNL     1       6.224   4.268  15.796  0.00  0.00    +0.000 C 
ATOM     15  C   UNL     1       5.292   3.654  16.548  0.00  0.00    +0.000 C 
BRANCH  14  16
ATOM     16  C   UNL     1       6.361   5.736  15.735  0.00  0.00    +0.000 C 
ATOM     17  O   UNL     1       5.557   6.462  15.178  0.00  0.00    +0.000 OA
BRANCH  16  18
ATOM     18  O   UNL     1       7.478   6.129  16.389  0.00  0.00    +0.000 OA
BRANCH  18  20
ATOM     19  C   UNL     1       7.780   5.958  18.793  0.00  0.00    +0.000 C 
ATOM     20  C   UNL     1       7.211   6.785  17.642  0.00  0.00    +0.000 C 
ATOM     21  C   UNL     1       7.853   8.166  17.601  0.00  0.00    +0.000 C 
ENDBRANCH  18  20
ENDBRANCH  16  18
ENDBRANCH  14  16
ENDBRANCH   1  15
TORSDOF 5
ENDMDL
MODEL 4
REMARK VINA RESULT:      -7.8      2.376      3.770
REMARK  Name = 
REMARK  7 active torsions:
REMARK  status: ('A' for Active; 'I' for Inactive)
REMARK    1  A    between atoms: C_1  and  C_2
REMARK    2  A    between atoms: C_2  and  C_3
REMARK    3  A    between atoms: C_2  and  O_4
REMARK    4  A    between atoms: O_4  and  C_5
REMARK    5  A    between atoms: C_5  and  C_7
REMARK    6  A    between atoms: C_8  and  N_9
REMARK    7  A    between atoms: C_12  and  C_13
REMARK                            x       y       z     vdW  Elec       q    Type
REMARK                         _______ _______ _______ _____ _____    ______ ____
ROOT
ATOM      1  N   UNL     1       3.532   4.935  17.352  0.00  0.00    +0.000 N 
ATOM      2  C   UNL     1       4.568   5.843  17.217  0.00  0.00    +0.000 A 
ATOM      3  N   UNL     1       4.215   7.035  17.629  0.00  0.00    +0.000 NA
ATOM      4  C   UNL     1       2.915   6.855  18.007  0.00  0.00    +0.000 A 
ATOM      5  N   UNL     1       2.431   5.633  17.746  0.00  0.00    +0.000 NA
ENDROOT
BRANCH   4   6
ATOM      6  C   UNL     1       2.149   7.929  18.628  0.00  0.00    +0.000 A 
ATOM      7  C   UNL     1       1.685   9.001  17.850  0.00  0.00    +0.000 A 
ATOM      8  C   UNL     1       0.956  10.041  18.432  0.00  0.00    +0.000 A 
ATOM      9  C   UNL     1       0.687  10.024  19.803  0.00  0.00    +0.000 A 
ATOM     10 CL   UNL     1      -0.226  11.335  20.456  0.00  0.00    +0.000 Cl
ATOM     11  C   UNL     1       1.156   8.967  20.590  0.00  0.00    +0.000 A 
ATOM     12 CL   UNL     1       0.872   8.887  22.293  0.00  0.00    +0.000 Cl
ATOM     13  C   UNL     1       1.884   7.925  20.004  0.00  0.00    +0.000 A 
ENDBRANCH   4   6
BRANCH   1  15
ATOM     14  C   UNL     1       3.921   2.529  17.823  0.00  0.00    +0.000 C 
ATOM     15  C   UNL     1       3.543   3.567  17.054  0.00  0.00    +0.000 C 
BRANCH  14  16
ATOM     16  C   UNL     1       4.128   2.648  19.279  0.00  0.00    +0.000 C 
ATOM     17  O   UNL     1       5.140   3.108  19.778  0.00  0.00    +0.000 OA
BRANCH  16  18
ATOM     18  O   UNL     1       3.041   2.193  19.945  0.00  0.00    +0.000 OA
BRANCH  18  20
ATOM     19  C   UNL     1       0.813   3.144  19.768  0.00  0.00    +0.000 C 
ATOM     20  C   UNL     1       2.184   3.242  20.433  0.00  0.00    +0.000 C 
ATOM     21  C   UNL     1       2.063   3.091  21.944  0.00  0.00    +0.000 C 
ENDBRANCH  18  20
ENDBRANCH  16  18
ENDBRANCH  14  16
ENDBRANCH   1  15
TORSDOF 5
ENDMDL
MODEL 5
REMARK VINA RESULT:      -7.7      3.006      4.195
REMARK  Name = 
REMARK  7 active torsions:
REMARK  status: ('A' for Active; 'I' for Inactive)
REMARK    1  A    between atoms: C_1  and  C_2
REMARK    2  A    between atoms: C_2  and  C_3
REMARK    3  A    between atoms: C_2  and  O_4
REMARK    4  A    between atoms: O_4  and  C_5
REMARK    5  A    between atoms: C_5  and  C_7
REMARK    6  A    between atoms: C_8  and  N_9
REMARK    7  A    between atoms: C_12  and  C_13
REMARK                            x       y       z     vdW  Elec       q    Type
REMARK                         _______ _______ _______ _____ _____    ______ ____
ROOT
ATOM      1  N   UNL     1       3.666   4.424  17.671  0.00  0.00    +0.000 N 
ATOM      2  C   UNL     1       4.803   5.122  18.041  0.00  0.00    +0.000 A 
ATOM      3  N   UNL     1       4.510   6.339  18.425  0.00  0.00    +0.000 NA
ATOM      4  C   UNL     1       3.155   6.394  18.264  0.00  0.00    +0.000 A 
ATOM      5  N   UNL     1       2.624   5.300  17.701  0.00  0.00    +0.000 NA
ENDROOT
BRANCH   4   6
ATOM      6  C   UNL     1       2.388   7.564  18.672  0.00  0.00    +0.000 A 
ATOM      7  C   UNL     1       2.126   8.589  17.749  0.00  0.00    +0.000 A 
ATOM      8  C   UNL     1       1.399   9.720  18.127  0.00  0.00    +0.000 A 
ATOM      9  C   UNL     1       0.930   9.844  19.436  0.00  0.00    +0.000 A 
ATOM     10 CL   UNL     1       0.030  11.262  19.835  0.00  0.00    +0.000 Cl
ATOM     11  C   UNL     1       1.197   8.835  20.368  0.00  0.00    +0.000 A 
ATOM     12 CL   UNL     1       0.659   8.927  22.008  0.00  0.00    +0.000 Cl
ATOM     13  C   UNL     1       1.924   7.702  19.987  0.00  0.00    +0.000 A 
ENDBRANCH   4   6
BRANCH   1  15
ATOM     14  C   UNL     1       2.857   2.078  17.757  0.00  0.00    +0.000 C 
ATOM     15  C   UNL     1       3.576   3.094  17.243  0.00  0.00    +0.000 C 
BRANCH  14  16
ATOM     16  C   UNL     1       1.771   2.284  18.735  0.00  0.00    +0.000 C 
ATOM     17  O   UNL     1       0.597   2.378  18.425  0.00  0.00    +0.000 OA
BRANCH  16  18
ATOM     18  O   UNL     1       2.275   2.332  19.990  0.00  0.00    +0.000 OA
BRANCH  18  20
ATOM     19  C   UNL     1       1.251   2.355  22.192  0.00  0.00    +0.000 C 
ATOM     20  C   UNL     1       1.488   3.127  20.896  0.00  0.00    +0.000 C 
ATOM     21  C   UNL     1       2.243   4.422  21.170  0.00  0.00    +0.000 C 
ENDBRANCH  18  20
ENDBRANCH  16  18
ENDBRANCH  14  16
ENDBRANCH   1  15
TORSDOF 5
ENDMDL
MODEL 6
REMARK VINA RESULT:      -7.7      1.149      2.071
REMARK  Name = 
REMARK  7 active torsions:
REMARK  status: ('A' for Active; 'I' for Inactive)
REMARK    1  A    between atoms: C_1  and  C_2
REMARK    2  A    between atoms: C_2  and  C_3
REMARK    3  A    between atoms: C_2  and  O_4
REMARK    4  A    between atoms: O_4  and  C_5
REMARK    5  A    between atoms: C_5  and  C_7
REMARK    6  A    between atoms: C_8  and  N_9
REMARK    7  A    between atoms: C_12  and  C_13
REMARK                            x       y       z     vdW  Elec       q    Type
REMARK                         _______ _______ _______ _____ _____    ______ ____
ROOT
ATOM      1  N   UNL     1       4.880   4.953  18.629  0.00  0.00    +0.000 N 
ATOM      2  C   UNL     1       3.770   4.360  18.052  0.00  0.00    +0.000 A 
ATOM      3  N   UNL     1       2.724   5.144  18.114  0.00  0.00    +0.000 NA
ATOM      4  C   UNL     1       3.203   6.243  18.769  0.00  0.00    +0.000 A 
ATOM      5  N   UNL     1       4.466   6.119  19.199  0.00  0.00    +0.000 NA
ENDROOT
BRANCH   4   6
ATOM      6  C   UNL     1       2.377   7.427  18.971  0.00  0.00    +0.000 A 
ATOM      7  C   UNL     1       2.145   8.312  17.906  0.00  0.00    +0.000 A 
ATOM      8  C   UNL     1       1.362   9.454  18.086  0.00  0.00    +0.000 A 
ATOM      9  C   UNL     1       0.805   9.730  19.337  0.00  0.00    +0.000 A 
ATOM     10 CL   UNL     1      -0.161  11.153  19.489  0.00  0.00    +0.000 Cl
ATOM     11  C   UNL     1       1.040   8.862  20.409  0.00  0.00    +0.000 A 
ATOM     12 CL   UNL     1       0.394   9.145  21.986  0.00  0.00    +0.000 Cl
ATOM     13  C   UNL     1       1.824   7.717  20.226  0.00  0.00    +0.000 A 
ENDBRANCH   4   6
BRANCH   1  15
ATOM     14  C   UNL     1       7.290   4.807  18.054  0.00  0.00    +0.000 C 
ATOM     15  C   UNL     1       6.180   4.441  18.720  0.00  0.00    +0.000 C 
BRANCH  14  16
ATOM     16  C   UNL     1       7.383   6.064  17.287  0.00  0.00    +0.000 C 
ATOM     17  O   UNL     1       7.369   7.168  17.802  0.00  0.00    +0.000 OA
BRANCH  16  18
ATOM     18  O   UNL     1       7.497   5.799  15.965  0.00  0.00    +0.000 OA
BRANCH  18  20
ATOM     19  C   UNL     1       5.201   6.133  15.245  0.00  0.00    +0.000 C 
ATOM     20  C   UNL     1       6.345   5.136  15.409  0.00  0.00    +0.000 C 
ATOM     21  C   UNL     1       6.743   4.544  14.063  0.00  0.00    +0.000 C 
ENDBRANCH  18  20
ENDBRANCH  16  18
ENDBRANCH  14  16
ENDBRANCH   1  15
TORSDOF 5
ENDMDL
MODEL 7
REMARK VINA RESULT:      -7.7      2.475      4.113
REMARK  Name = 
REMARK  7 active torsions:
REMARK  status: ('A' for Active; 'I' for Inactive)
REMARK    1  A    between atoms: C_1  and  C_2
REMARK    2  A    between atoms: C_2  and  C_3
REMARK    3  A    between atoms: C_2  and  O_4
REMARK    4  A    between atoms: O_4  and  C_5
REMARK    5  A    between atoms: C_5  and  C_7
REMARK    6  A    between atoms: C_8  and  N_9
REMARK    7  A    between atoms: C_12  and  C_13
REMARK                            x       y       z     vdW  Elec       q    Type
REMARK                         _______ _______ _______ _____ _____    ______ ____
ROOT
ATOM      1  N   UNL     1       3.406   5.040  17.412  0.00  0.00    +0.000 N 
ATOM      2  C   UNL     1       4.361   6.018  17.193  0.00  0.00    +0.000 A 
ATOM      3  N   UNL     1       4.011   7.156  17.738  0.00  0.00    +0.000 NA
ATOM      4  C   UNL     1       2.794   6.871  18.289  0.00  0.00    +0.000 A 
ATOM      5  N   UNL     1       2.342   5.640  18.014  0.00  0.00    +0.000 NA
ENDROOT
BRANCH   4   6
ATOM      6  C   UNL     1       2.076   7.852  19.093  0.00  0.00    +0.000 A 
ATOM      7  C   UNL     1       1.787   7.580  20.440  0.00  0.00    +0.000 A 
ATOM      8  C   UNL     1       1.093   8.506  21.221  0.00  0.00    +0.000 A 
ATOM      9  C   UNL     1       0.672   9.716  20.663  0.00  0.00    +0.000 A 
ATOM     10 CL   UNL     1      -0.172  10.820  21.686  0.00  0.00    +0.000 Cl
ATOM     11  C   UNL     1       0.943   9.991  19.318  0.00  0.00    +0.000 A 
ATOM     12 CL   UNL     1       0.442  11.460  18.558  0.00  0.00    +0.000 Cl
ATOM     13  C   UNL     1       1.640   9.062  18.538  0.00  0.00    +0.000 A 
ENDBRANCH   4   6
BRANCH   1  15
ATOM     14  C   UNL     1       3.841   2.614  17.709  0.00  0.00    +0.000 C 
ATOM     15  C   UNL     1       3.444   3.698  17.016  0.00  0.00    +0.000 C 
BRANCH  14  16
ATOM     16  C   UNL     1       4.042   2.631  19.170  0.00  0.00    +0.000 C 
ATOM     17  O   UNL     1       5.039   3.084  19.705  0.00  0.00    +0.000 OA
BRANCH  16  18
ATOM     18  O   UNL     1       2.970   2.095  19.797  0.00  0.00    +0.000 OA
BRANCH  18  20
ATOM     19  C   UNL     1       0.718   3.004  19.738  0.00  0.00    +0.000 C 
ATOM     20  C   UNL     1       2.097   3.077  20.387  0.00  0.00    +0.000 C 
ATOM     21  C   UNL     1       2.006   2.794  21.881  0.00  0.00    +0.000 C 
ENDBRANCH  18  20
ENDBRANCH  16  18
ENDBRANCH  14  16
ENDBRANCH   1  15
TORSDOF 5
ENDMDL
MODEL 8
REMARK VINA RESULT:      -7.6      1.008      1.745
REMARK  Name = 
REMARK  7 active torsions:
REMARK  status: ('A' for Active; 'I' for Inactive)
REMARK    1  A    between atoms: C_1  and  C_2
REMARK    2  A    between atoms: C_2  and  C_3
REMARK    3  A    between atoms: C_2  and  O_4
REMARK    4  A    between atoms: O_4  and  C_5
REMARK    5  A    between atoms: C_5  and  C_7
REMARK    6  A    between atoms: C_8  and  N_9
REMARK    7  A    between atoms: C_12  and  C_13
REMARK                            x       y       z     vdW  Elec       q    Type
REMARK                         _______ _______ _______ _____ _____    ______ ____
ROOT
ATOM      1  N   UNL     1       4.529   4.596  16.439  0.00  0.00    +0.000 N 
ATOM      2  C   UNL     1       3.859   3.653  17.198  0.00  0.00    +0.000 A 
ATOM      3  N   UNL     1       3.131   4.220  18.127  0.00  0.00    +0.000 NA
ATOM      4  C   UNL     1       3.380   5.550  17.944  0.00  0.00    +0.000 A 
ATOM      5  N   UNL     1       4.308   5.811  17.013  0.00  0.00    +0.000 NA
ENDROOT
BRANCH   4   6
ATOM      6  C   UNL     1       2.684   6.567  18.721  0.00  0.00    +0.000 A 
ATOM      7  C   UNL     1       2.247   6.279  20.024  0.00  0.00    +0.000 A 
ATOM      8  C   UNL     1       1.573   7.241  20.779  0.00  0.00    +0.000 A 
ATOM      9  C   UNL     1       1.320   8.504  20.237  0.00  0.00    +0.000 A 
ATOM     10 CL   UNL     1       0.490   9.650  21.227  0.00  0.00    +0.000 Cl
ATOM     11  C   UNL     1       1.740   8.798  18.935  0.00  0.00    +0.000 A 
ATOM     12 CL   UNL     1       1.451  10.333  18.196  0.00  0.00    +0.000 Cl
ATOM     13  C   UNL     1       2.417   7.833  18.181  0.00  0.00    +0.000 A 
ENDBRANCH   4   6
BRANCH   1  15
ATOM     14  C   UNL     1       6.678   4.654  15.196  0.00  0.00    +0.000 C 
ATOM     15  C   UNL     1       5.368   4.377  15.339  0.00  0.00    +0.000 C 
BRANCH  14  16
ATOM     16  C   UNL     1       7.552   4.992  16.336  0.00  0.00    +0.000 C 
ATOM     17  O   UNL     1       8.013   4.161  17.098  0.00  0.00    +0.000 OA
BRANCH  16  18
ATOM     18  O   UNL     1       7.762   6.328  16.384  0.00  0.00    +0.000 OA
BRANCH  18  20
ATOM     19  C   UNL     1       7.842   6.177  18.807  0.00  0.00    +0.000 C 
ATOM     20  C   UNL     1       7.298   6.940  17.602  0.00  0.00    +0.000 C 
ATOM     21  C   UNL     1       7.776   8.386  17.617  0.00  0.00    +0.000 C 
ENDBRANCH  18  20
ENDBRANCH  16  18
ENDBRANCH  14  16
ENDBRANCH   1  15
TORSDOF 5
ENDMDL
MODEL 9
REMARK VINA RESULT:      -7.5      2.572      4.067
REMARK  Name = 
REMARK  7 active torsions:
REMARK  status: ('A' for Active; 'I' for Inactive)
REMARK    1  A    between atoms: C_1  and  C_2
REMARK    2  A    between atoms: C_2  and  C_3
REMARK    3  A    between atoms: C_2  and  O_4
REMARK    4  A    between atoms: O_4  and  C_5
REMARK    5  A    between atoms: C_5  and  C_7
REMARK    6  A    between atoms: C_8  and  N_9
REMARK    7  A    between atoms: C_12  and  C_13
REMARK                            x       y       z     vdW  Elec       q    Type
REMARK                         _______ _______ _______ _____ _____    ______ ____
ROOT
ATOM      1  N   UNL     1       4.351   5.386  18.594  0.00  0.00    +0.000 N 
ATOM      2  C   UNL     1       4.585   6.139  17.457  0.00  0.00    +0.000 A 
ATOM      3  N   UNL     1       3.798   7.184  17.406  0.00  0.00    +0.000 NA
ATOM      4  C   UNL     1       3.044   7.054  18.538  0.00  0.00    +0.000 A 
ATOM      5  N   UNL     1       3.266   5.922  19.219  0.00  0.00    +0.000 NA
ENDROOT
BRANCH   4   6
ATOM      6  C   UNL     1       2.083   8.077  18.931  0.00  0.00    +0.000 A 
ATOM      7  C   UNL     1       1.630   9.015  17.990  0.00  0.00    +0.000 A 
ATOM      8  C   UNL     1       0.715  10.005  18.353  0.00  0.00    +0.000 A 
ATOM      9  C   UNL     1       0.245  10.075  19.666  0.00  0.00    +0.000 A 
ATOM     10 CL   UNL     1      -0.892  11.317  20.046  0.00  0.00    +0.000 Cl
ATOM     11  C   UNL     1       0.699   9.153  20.616  0.00  0.00    +0.000 A 
ATOM     12 CL   UNL     1       0.170   9.186  22.261  0.00  0.00    +0.000 Cl
ATOM     13  C   UNL     1       1.615   8.161  20.249  0.00  0.00    +0.000 A 
ENDBRANCH   4   6
BRANCH   1  15
ATOM     14  C   UNL     1       4.534   2.980  19.179  0.00  0.00    +0.000 C 
ATOM     15  C   UNL     1       5.016   4.226  19.010  0.00  0.00    +0.000 C 
BRANCH  14  16
ATOM     16  C   UNL     1       3.223   2.553  18.655  0.00  0.00    +0.000 C 
ATOM     17  O   UNL     1       2.918   2.617  17.477  0.00  0.00    +0.000 OA
BRANCH  16  18
ATOM     18  O   UNL     1       2.449   2.080  19.658  0.00  0.00    +0.000 OA
BRANCH  18  20
ATOM     19  C   UNL     1       0.718   3.745  20.020  0.00  0.00    +0.000 C 
ATOM     20  C   UNL     1       1.992   3.102  20.564  0.00  0.00    +0.000 C 
ATOM     21  C   UNL     1       1.734   2.454  21.918  0.00  0.00    +0.000 C 
ENDBRANCH  18  20
ENDBRANCH  16  18
ENDBRANCH  14  16
ENDBRANCH   1  15
TORSDOF 5
ENDMDL
