MODEL 1
REMARK VINA RESULT:      -7.8      0.000      0.000
REMARK  Name = 
REMARK  10 active torsions:
REMARK  status: ('A' for Active; 'I' for Inactive)
REMARK    1  A    between atoms: C_1  and  C_2
REMARK    2  A    between atoms: C_3  and  C_4
REMARK    3  A    between atoms: C_7  and  C_8
REMARK    4  A    between atoms: C_9  and  C_10
REMARK    5  A    between atoms: C_10  and  O_11
REMARK    6  A    between atoms: N_12  and  C_13
REMARK    7  A    between atoms: C_13  and  C_14
REMARK    8  A    between atoms: C_20  and  C_21
REMARK    9  A    between atoms: C_21  and  N_22
REMARK   10  A    between atoms: C_23  and  C_24
REMARK                            x       y       z     vdW  Elec       q    Type
REMARK                         _______ _______ _______ _____ _____    ______ ____
ROOT
ATOM      1  C   UNL     1       5.087   5.614  18.827  0.00  0.00    +0.000 C 
ATOM      2  C   UNL     1       5.074   4.141  18.344  0.00  0.00    +0.000 C 
ATOM      3  N   UNL     1       5.902   4.506  17.150  0.00  0.00    +0.000 NA
ATOM      4  C   UNL     1       6.344   5.751  17.894  0.00  0.00    +0.000 C 
ENDROOT
BRANCH   1   8
ATOM      5  C   UNL     1       1.615   8.430  18.296  0.00  0.00    +0.000 A 
ATOM      6  C   UNL     1       2.696   8.422  17.416  0.00  0.00    +0.000 A 
ATOM      7  C   UNL     1       3.762   7.518  17.587  0.00  0.00    +0.000 A 
ATOM      8  C   UNL     1       3.815   6.604  18.661  0.00  0.00    +0.000 A 
ATOM      9  C   UNL     1       2.723   6.681  19.545  0.00  0.00    +0.000 A 
ATOM     10  C   UNL     1       1.649   7.555  19.375  0.00  0.00    +0.000 A 
BRANCH   5  13
ATOM     11  C   UNL     1      -1.186  11.013  18.956  0.00  0.00    +0.000 C 
ATOM     12  C   UNL     1      -0.070  10.042  19.142  0.00  0.00    +0.000 C 
ATOM     13  C   UNL     1       0.510   9.381  18.126  0.00  0.00    +0.000 C 
ENDBRANCH   5  13
ENDBRANCH   1   8
BRANCH   2  14
ATOM     14  C   UNL     1       3.777   3.352  18.213  0.00  0.00    +0.000 C 
BRANCH  14  15
ATOM     15  O   UNL     1       4.039   2.026  17.760  0.00  0.00    +0.000 OA
ATOM     16  H   UNL     1       3.699   1.966  16.852  0.00  0.00    +0.000 HD
ENDBRANCH  14  15
ENDBRANCH   2  14
BRANCH   3  17
ATOM     17  C   UNL     1       5.156   4.900  15.941  0.00  0.00    +0.000 C 
BRANCH  17  18
ATOM     18  C   UNL     1       5.863   4.604  14.628  0.00  0.00    +0.000 A 
ATOM     19  C   UNL     1       5.322   3.725  13.697  0.00  0.00    +0.000 A 
ATOM     20  C   UNL     1       6.001   3.518  12.500  0.00  0.00    +0.000 A 
ATOM     21  C   UNL     1       7.189   4.198  12.255  0.00  0.00    +0.000 A 
ATOM     22  C   UNL     1       7.649   5.072  13.222  0.00  0.00    +0.000 A 
ATOM     23  N   UNL     1       7.018   5.286  14.395  0.00  0.00    +0.000 NA
ENDBRANCH  17  18
ENDBRANCH   3  17
BRANCH   4  24
ATOM     24  C   UNL     1       7.721   5.521  18.548  0.00  0.00    +0.000 C 
BRANCH  24  25
ATOM     25  N   UNL     1       8.279   6.809  18.920  0.00  0.00    +0.000 N 
ATOM     26  C   UNL     1       8.191   7.915  18.108  0.00  0.00    +0.000 C 
ATOM     27  C   UNL     1       8.769   9.169  18.702  0.00  0.00    +0.000 C 
ATOM     28  O   UNL     1       7.705   7.900  16.979  0.00  0.00    +0.000 OA
ATOM     29  H   UNL     1       8.646   6.910  19.854  0.00  0.00    +0.000 HD
ENDBRANCH  24  25
ENDBRANCH   4  24
TORSDOF 8
ENDMDL
MODEL 2
REMARK VINA RESULT:      -7.5      5.443      9.435
REMARK  Name = 
REMARK  10 active torsions:
REMARK  status: ('A' for Active; 'I' for Inactive)
REMARK    1  A    between atoms: C_1  and  C_2
REMARK    2  A    between atoms: C_3  and  C_4
REMARK    3  A    between atoms: C_7  and  C_8
REMARK    4  A    between atoms: C_9  and  C_10
REMARK    5  A    between atoms: C_10  and  O_11
REMARK    6  A    between atoms: N_12  and  C_13
REMARK    7  A    between atoms: C_13  and  C_14
REMARK    8  A    between atoms: C_20  and  C_21
REMARK    9  A    between atoms: C_21  and  N_22
REMARK   10  A    between atoms: C_23  and  C_24
REMARK                            x       y       z     vdW  Elec       q    Type
REMARK                         _______ _______ _______ _____ _____    ______ ____
ROOT
ATOM      1  C   UNL     1       1.214  10.041  20.286  0.00  0.00    +0.000 C 
ATOM      2  C   UNL     1       1.243  11.144  19.196  0.00  0.00    +0.000 C 
ATOM      3  N   UNL     1      -0.252  11.115  19.100  0.00  0.00    +0.000 NA
ATOM      4  C   UNL     1      -0.282  10.483  20.479  0.00  0.00    +0.000 C 
ENDROOT
BRANCH   1   8
ATOM      5  C   UNL     1       2.266   5.770  19.329  0.00  0.00    +0.000 A 
ATOM      6  C   UNL     1       2.420   6.792  18.393  0.00  0.00    +0.000 A 
ATOM      7  C   UNL     1       2.106   8.125  18.720  0.00  0.00    +0.000 A 
ATOM      8  C   UNL     1       1.594   8.496  19.981  0.00  0.00    +0.000 A 
ATOM      9  C   UNL     1       1.416   7.423  20.875  0.00  0.00    +0.000 A 
ATOM     10  C   UNL     1       1.744   6.102  20.573  0.00  0.00    +0.000 A 
BRANCH   5  13
ATOM     11  C   UNL     1       2.563   2.385  17.484  0.00  0.00    +0.000 C 
ATOM     12  C   UNL     1       2.230   3.798  17.825  0.00  0.00    +0.000 C 
ATOM     13  C   UNL     1       2.581   4.378  18.985  0.00  0.00    +0.000 C 
ENDBRANCH   5  13
ENDBRANCH   1   8
BRANCH   2  14
ATOM     14  C   UNL     1       2.130  11.029  17.963  0.00  0.00    +0.000 C 
BRANCH  14  15
ATOM     15  O   UNL     1       2.549  12.319  17.524  0.00  0.00    +0.000 OA
ATOM     16  H   UNL     1       3.406  12.496  17.948  0.00  0.00    +0.000 HD
ENDBRANCH  14  15
ENDBRANCH   2  14
BRANCH   3  17
ATOM     17  C   UNL     1      -0.820  10.172  18.120  0.00  0.00    +0.000 C 
BRANCH  17  18
ATOM     18  C   UNL     1      -2.155  10.593  17.528  0.00  0.00    +0.000 A 
ATOM     19  C   UNL     1      -2.500  10.270  16.221  0.00  0.00    +0.000 A 
ATOM     20  C   UNL     1      -3.751  10.657  15.744  0.00  0.00    +0.000 A 
ATOM     21  C   UNL     1      -4.626  11.339  16.582  0.00  0.00    +0.000 A 
ATOM     22  C   UNL     1      -4.216  11.602  17.876  0.00  0.00    +0.000 A 
ATOM     23  N   UNL     1      -3.009  11.248  18.362  0.00  0.00    +0.000 NA
ENDBRANCH  17  18
ENDBRANCH   3  17
BRANCH   4  24
ATOM     24  C   UNL     1      -0.556  11.554  21.552  0.00  0.00    +0.000 C 
BRANCH  24  25
ATOM     25  N   UNL     1      -1.855  12.149  21.294  0.00  0.00    +0.000 N 
ATOM     26  C   UNL     1      -2.803  12.309  22.277  0.00  0.00    +0.000 C 
ATOM     27  C   UNL     1      -4.055  13.008  21.824  0.00  0.00    +0.000 C 
ATOM     28  O   UNL     1      -2.671  11.905  23.429  0.00  0.00    +0.000 OA
ATOM     29  H   UNL     1      -2.014  12.552  20.383  0.00  0.00    +0.000 HD
ENDBRANCH  24  25
ENDBRANCH   4  24
TORSDOF 8
ENDMDL
MODEL 3
REMARK VINA RESULT:      -7.5      2.703      6.517
REMARK  Name = 
REMARK  10 active torsions:
REMARK  status: ('A' for Active; 'I' for Inactive)
REMARK    1  A    between atoms: C_1  and  C_2
REMARK    2  A    between atoms: C_3  and  C_4
REMARK    3  A    between atoms: C_7  and  C_8
REMARK    4  A    between atoms: C_9  and  C_10
REMARK    5  A    between atoms: C_10  and  O_11
REMARK    6  A    between atoms: N_12  and  C_13
REMARK    7  A    between atoms: C_13  and  C_14
REMARK    8  A    between atoms: C_20  and  C_21
REMARK    9  A    between atoms: C_21  and  N_22
REMARK   10  A    between atoms: C_23  and  C_24
REMARK                            x       y       z     vdW  Elec       q    Type
REMARK                         _______ _______ _______ _____ _____    ______ ____
ROOT
ATOM      1  C   UNL     1       7.044   4.962  16.920  0.00  0.00    +0.000 C 
ATOM      2  C   UNL     1       6.032   4.037  17.643  0.00  0.00    +0.000 C 
ATOM      3  N   UNL     1       4.947   4.454  16.698  0.00  0.00    +0.000 NA
ATOM      4  C   UNL     1       6.026   4.892  15.725  0.00  0.00    +0.000 C 
ENDROOT
BRANCH   1   8
ATOM      5  C   UNL     1       8.351   8.969  18.503  0.00  0.00    +0.000 A 
ATOM      6  C   UNL     1       7.683   8.841  17.286  0.00  0.00    +0.000 A 
ATOM      7  C   UNL     1       7.263   7.581  16.820  0.00  0.00    +0.000 A 
ATOM      8  C   UNL     1       7.519   6.388  17.527  0.00  0.00    +0.000 A 
ATOM      9  C   UNL     1       8.233   6.564  18.727  0.00  0.00    +0.000 A 
ATOM     10  C   UNL     1       8.635   7.808  19.213  0.00  0.00    +0.000 A 
BRANCH   5  13
ATOM     11  C   UNL     1      10.259  11.789  20.334  0.00  0.00    +0.000 C 
ATOM     12  C   UNL     1       9.806  10.450  19.860  0.00  0.00    +0.000 C 
ATOM     13  C   UNL     1       8.801  10.281  18.984  0.00  0.00    +0.000 C 
ENDBRANCH   5  13
ENDBRANCH   1   8
BRANCH   2  14
ATOM     14  C   UNL     1       5.843   4.081  19.154  0.00  0.00    +0.000 C 
BRANCH  14  15
ATOM     15  O   UNL     1       5.138   2.927  19.606  0.00  0.00    +0.000 OA
ATOM     16  H   UNL     1       4.218   3.025  19.307  0.00  0.00    +0.000 HD
ENDBRANCH  14  15
ENDBRANCH   2  14
BRANCH   3  17
ATOM     17  C   UNL     1       4.151   5.627  17.102  0.00  0.00    +0.000 C 
BRANCH  17  18
ATOM     18  C   UNL     1       3.151   5.367  18.218  0.00  0.00    +0.000 A 
ATOM     19  C   UNL     1       2.940   6.295  19.230  0.00  0.00    +0.000 A 
ATOM     20  C   UNL     1       1.989   6.014  20.208  0.00  0.00    +0.000 A 
ATOM     21  C   UNL     1       1.265   4.828  20.143  0.00  0.00    +0.000 A 
ATOM     22  C   UNL     1       1.518   3.968  19.091  0.00  0.00    +0.000 A 
ATOM     23  N   UNL     1       2.439   4.209  18.136  0.00  0.00    +0.000 NA
ENDBRANCH  17  18
ENDBRANCH   3  17
BRANCH   4  24
ATOM     24  C   UNL     1       6.270   3.795  14.670  0.00  0.00    +0.000 C 
BRANCH  24  25
ATOM     25  N   UNL     1       5.265   3.920  13.630  0.00  0.00    +0.000 N 
ATOM     26  C   UNL     1       5.423   3.371  12.379  0.00  0.00    +0.000 C 
ATOM     27  C   UNL     1       4.241   3.551  11.468  0.00  0.00    +0.000 C 
ATOM     28  O   UNL     1       6.443   2.797  12.006  0.00  0.00    +0.000 OA
ATOM     29  H   UNL     1       4.379   4.333  13.880  0.00  0.00    +0.000 HD
ENDBRANCH  24  25
ENDBRANCH   4  24
TORSDOF 8
ENDMDL
MODEL 4
REMARK VINA RESULT:      -7.5      2.734      6.508
REMARK  Name = 
REMARK  10 active torsions:
REMARK  status: ('A' for Active; 'I' for Inactive)
REMARK    1  A    between atoms: C_1  and  C_2
REMARK    2  A    between atoms: C_3  and  C_4
REMARK    3  A    between atoms: C_7  and  C_8
REMARK    4  A    between atoms: C_9  and  C_10
REMARK    5  A    between atoms: C_10  and  O_11
REMARK    6  A    between atoms: N_12  and  C_13
REMARK    7  A    between atoms: C_13  and  C_14
REMARK    8  A    between atoms: C_20  and  C_21
REMARK    9  A    between atoms: C_21  and  N_22
REMARK   10  A    between atoms: C_23  and  C_24
REMARK                            x       y       z     vdW  Elec       q    Type
REMARK                         _______ _______ _______ _____ _____    ______ ____
ROOT
ATOM      1  C   UNL     1       7.005   4.914  16.865  0.00  0.00    +0.000 C 
ATOM      2  C   UNL     1       5.974   4.024  17.603  0.00  0.00    +0.000 C 
ATOM      3  N   UNL     1       4.895   4.457  16.658  0.00  0.00    +0.000 NA
ATOM      4  C   UNL     1       5.979   4.855  15.675  0.00  0.00    +0.000 C 
ENDROOT
BRANCH   1   8
ATOM      5  C   UNL     1       8.440   8.814  18.598  0.00  0.00    +0.000 A 
ATOM      6  C   UNL     1       8.623   7.602  19.262  0.00  0.00    +0.000 A 
ATOM      7  C   UNL     1       8.187   6.391  18.692  0.00  0.00    +0.000 A 
ATOM      8  C   UNL     1       7.519   6.335  17.452  0.00  0.00    +0.000 A 
ATOM      9  C   UNL     1       7.319   7.587  16.841  0.00  0.00    +0.000 A 
ATOM     10  C   UNL     1       7.767   8.792  17.382  0.00  0.00    +0.000 A 
BRANCH   5  13
ATOM     11  C   UNL     1      10.099  12.257  19.180  0.00  0.00    +0.000 C 
ATOM     12  C   UNL     1       9.663  10.971  18.564  0.00  0.00    +0.000 C 
ATOM     13  C   UNL     1       8.883  10.079  19.196  0.00  0.00    +0.000 C 
ENDBRANCH   5  13
ENDBRANCH   1   8
BRANCH   2  14
ATOM     14  C   UNL     1       5.794   4.091  19.115  0.00  0.00    +0.000 C 
BRANCH  14  15
ATOM     15  O   UNL     1       5.199   2.891  19.603  0.00  0.00    +0.000 OA
ATOM     16  H   UNL     1       5.915   2.239  19.694  0.00  0.00    +0.000 HD
ENDBRANCH  14  15
ENDBRANCH   2  14
BRANCH   3  17
ATOM     17  C   UNL     1       4.131   5.654  17.053  0.00  0.00    +0.000 C 
BRANCH  17  18
ATOM     18  C   UNL     1       3.093   5.421  18.139  0.00  0.00    +0.000 A 
ATOM     19  C   UNL     1       2.270   4.302  18.125  0.00  0.00    +0.000 A 
ATOM     20  C   UNL     1       1.359   4.128  19.164  0.00  0.00    +0.000 A 
ATOM     21  C   UNL     1       1.303   5.062  20.194  0.00  0.00    +0.000 A 
ATOM     22  C   UNL     1       2.171   6.136  20.146  0.00  0.00    +0.000 A 
ATOM     23  N   UNL     1       3.057   6.335  19.148  0.00  0.00    +0.000 NA
ENDBRANCH  17  18
ENDBRANCH   3  17
BRANCH   4  24
ATOM     24  C   UNL     1       6.190   3.741  14.632  0.00  0.00    +0.000 C 
BRANCH  24  25
ATOM     25  N   UNL     1       5.196   3.891  13.585  0.00  0.00    +0.000 N 
ATOM     26  C   UNL     1       5.366   3.370  12.324  0.00  0.00    +0.000 C 
ATOM     27  C   UNL     1       4.193   3.573  11.405  0.00  0.00    +0.000 C 
ATOM     28  O   UNL     1       6.389   2.803  11.949  0.00  0.00    +0.000 OA
ATOM     29  H   UNL     1       4.308   4.300  13.835  0.00  0.00    +0.000 HD
ENDBRANCH  24  25
ENDBRANCH   4  24
TORSDOF 8
ENDMDL
MODEL 5
REMARK VINA RESULT:      -7.5      5.368      9.453
REMARK  Name = 
REMARK  10 active torsions:
REMARK  status: ('A' for Active; 'I' for Inactive)
REMARK    1  A    between atoms: C_1  and  C_2
REMARK    2  A    between atoms: C_3  and  C_4
REMARK    3  A    between atoms: C_7  and  C_8
REMARK    4  A    between atoms: C_9  and  C_10
REMARK    5  A    between atoms: C_10  and  O_11
REMARK    6  A    between atoms: N_12  and  C_13
REMARK    7  A    between atoms: C_13  and  C_14
REMARK    8  A    between atoms: C_20  and  C_21
REMARK    9  A    between atoms: C_21  and  N_22
REMARK   10  A    between atoms: C_23  and  C_24
REMARK                            x       y       z     vdW  Elec       q    Type
REMARK                         _______ _______ _______ _____ _____    ______ ____
ROOT
ATOM      1  C   UNL     1      -0.190  10.318  19.363  0.00  0.00    +0.000 C 
ATOM      2  C   UNL     1      -0.056  11.398  20.467  0.00  0.00    +0.000 C 
ATOM      3  N   UNL     1       0.297  12.431  19.441  0.00  0.00    +0.000 NA
ATOM      4  C   UNL     1      -0.351  11.545  18.394  0.00  0.00    +0.000 C 
ENDROOT
BRANCH   1   8
ATOM      5  C   UNL     1       2.944   7.200  18.511  0.00  0.00    +0.000 A 
ATOM      6  C   UNL     1       2.574   8.150  17.560  0.00  0.00    +0.000 A 
ATOM      7  C   UNL     1       1.608   9.131  17.854  0.00  0.00    +0.000 A 
ATOM      8  C   UNL     1       0.942   9.190  19.096  0.00  0.00    +0.000 A 
ATOM      9  C   UNL     1       1.319   8.184  20.007  0.00  0.00    +0.000 A 
ATOM     10  C   UNL     1       2.291   7.221  19.737  0.00  0.00    +0.000 A 
BRANCH   5  13
ATOM     11  C   UNL     1       4.654   3.878  17.520  0.00  0.00    +0.000 C 
ATOM     12  C   UNL     1       3.631   4.914  17.841  0.00  0.00    +0.000 C 
ATOM     13  C   UNL     1       3.942   6.170  18.201  0.00  0.00    +0.000 C 
ENDBRANCH   5  13
ENDBRANCH   1   8
BRANCH   2  14
ATOM     14  C   UNL     1       0.799  11.173  21.708  0.00  0.00    +0.000 C 
BRANCH  14  15
ATOM     15  O   UNL     1      -0.003  10.713  22.793  0.00  0.00    +0.000 OA
ATOM     16  H   UNL     1      -0.143  11.473  23.382  0.00  0.00    +0.000 HD
ENDBRANCH  14  15
ENDBRANCH   2  14
BRANCH   3  17
ATOM     17  C   UNL     1       1.731  12.577  19.135  0.00  0.00    +0.000 C 
BRANCH  17  18
ATOM     18  C   UNL     1       2.156  13.975  18.713  0.00  0.00    +0.000 A 
ATOM     19  C   UNL     1       3.393  14.207  18.123  0.00  0.00    +0.000 A 
ATOM     20  C   UNL     1       3.713  15.504  17.730  0.00  0.00    +0.000 A 
ATOM     21  C   UNL     1       2.792  16.529  17.920  0.00  0.00    +0.000 A 
ATOM     22  C   UNL     1       1.575  16.211  18.493  0.00  0.00    +0.000 A 
ATOM     23  N   UNL     1       1.241  14.966  18.892  0.00  0.00    +0.000 NA
ENDBRANCH  17  18
ENDBRANCH   3  17
BRANCH   4  24
ATOM     24  C   UNL     1      -1.790  12.019  18.109  0.00  0.00    +0.000 C 
BRANCH  24  25
ATOM     25  N   UNL     1      -2.116  11.708  16.729  0.00  0.00    +0.000 N 
ATOM     26  C   UNL     1      -2.726  10.531  16.361  0.00  0.00    +0.000 C 
ATOM     27  C   UNL     1      -3.043  10.428  14.895  0.00  0.00    +0.000 C 
ATOM     28  O   UNL     1      -2.979   9.617  17.142  0.00  0.00    +0.000 OA
ATOM     29  H   UNL     1      -1.985  12.433  16.040  0.00  0.00    +0.000 HD
ENDBRANCH  24  25
ENDBRANCH   4  24
TORSDOF 8
ENDMDL
MODEL 6
REMARK VINA RESULT:      -7.4      5.430      9.406
REMARK  Name = 
REMARK  10 active torsions:
REMARK  status: ('A' for Active; 'I' for Inactive)
REMARK    1  A    between atoms: C_1  and  C_2
REMARK    2  A    between atoms: C_3  and  C_4
REMARK    3  A    between atoms: C_7  and  C_8
REMARK    4  A    between atoms: C_9  and  C_10
REMARK    5  A    between atoms: C_10  and  O_11
REMARK    6  A    between atoms: N_12  and  C_13
REMARK    7  A    between atoms: C_13  and  C_14
REMARK    8  A    between atoms: C_20  and  C_21
REMARK    9  A    between atoms: C_21  and  N_22
REMARK   10  A    between atoms: C_23  and  C_24
REMARK                            x       y       z     vdW  Elec       q    Type
REMARK                         _______ _______ _______ _____ _____    ______ ____
ROOT
ATOM      1  C   UNL     1       1.245   9.944  20.209  0.00  0.00    +0.000 C 
ATOM      2  C   UNL     1       1.266  11.086  19.161  0.00  0.00    +0.000 C 
ATOM      3  N   UNL     1      -0.229  11.058  19.072  0.00  0.00    +0.000 NA
ATOM      4  C   UNL     1      -0.251  10.375  20.427  0.00  0.00    +0.000 C 
ENDROOT
BRANCH   1   8
ATOM      5  C   UNL     1       2.303   5.662  19.310  0.00  0.00    +0.000 A 
ATOM      6  C   UNL     1       1.798   6.050  20.550  0.00  0.00    +0.000 A 
ATOM      7  C   UNL     1       1.452   7.391  20.803  0.00  0.00    +0.000 A 
ATOM      8  C   UNL     1       1.625   8.412  19.846  0.00  0.00    +0.000 A 
ATOM      9  C   UNL     1       2.178   7.978  18.626  0.00  0.00    +0.000 A 
ATOM     10  C   UNL     1       2.503   6.649  18.353  0.00  0.00    +0.000 A 
BRANCH   5  13
ATOM     11  C   UNL     1       2.761   2.196  17.659  0.00  0.00    +0.000 C 
ATOM     12  C   UNL     1       2.369   3.611  17.917  0.00  0.00    +0.000 C 
ATOM     13  C   UNL     1       2.676   4.267  19.048  0.00  0.00    +0.000 C 
ENDBRANCH   5  13
ENDBRANCH   1   8
BRANCH   2  14
ATOM     14  C   UNL     1       2.147  11.018  17.920  0.00  0.00    +0.000 C 
BRANCH  14  15
ATOM     15  O   UNL     1       2.535  12.327  17.508  0.00  0.00    +0.000 OA
ATOM     16  H   UNL     1       3.178  12.216  16.787  0.00  0.00    +0.000 HD
ENDBRANCH  14  15
ENDBRANCH   2  14
BRANCH   3  17
ATOM     17  C   UNL     1      -0.801  10.151  18.061  0.00  0.00    +0.000 C 
BRANCH  17  18
ATOM     18  C   UNL     1      -2.140  10.592  17.491  0.00  0.00    +0.000 A 
ATOM     19  C   UNL     1      -2.495  10.308  16.177  0.00  0.00    +0.000 A 
ATOM     20  C   UNL     1      -3.748  10.711  15.722  0.00  0.00    +0.000 A 
ATOM     21  C   UNL     1      -4.616  11.370  16.586  0.00  0.00    +0.000 A 
ATOM     22  C   UNL     1      -4.196  11.594  17.883  0.00  0.00    +0.000 A 
ATOM     23  N   UNL     1      -2.986  11.224  18.350  0.00  0.00    +0.000 NA
ENDBRANCH  17  18
ENDBRANCH   3  17
BRANCH   4  24
ATOM     24  C   UNL     1      -0.520  11.406  21.540  0.00  0.00    +0.000 C 
BRANCH  24  25
ATOM     25  N   UNL     1      -1.817  12.016  21.305  0.00  0.00    +0.000 N 
ATOM     26  C   UNL     1      -2.151  13.256  21.795  0.00  0.00    +0.000 C 
ATOM     27  C   UNL     1      -3.513  13.741  21.383  0.00  0.00    +0.000 C 
ATOM     28  O   UNL     1      -1.423  13.923  22.527  0.00  0.00    +0.000 OA
ATOM     29  H   UNL     1      -2.446  11.550  20.668  0.00  0.00    +0.000 HD
ENDBRANCH  24  25
ENDBRANCH   4  24
TORSDOF 8
ENDMDL
MODEL 7
REMARK VINA RESULT:      -7.3      5.290      9.468
REMARK  Name = 
REMARK  10 active torsions:
REMARK  status: ('A' for Active; 'I' for Inactive)
REMARK    1  A    between atoms: C_1  and  C_2
REMARK    2  A    between atoms: C_3  and  C_4
REMARK    3  A    between atoms: C_7  and  C_8
REMARK    4  A    between atoms: C_9  and  C_10
REMARK    5  A    between atoms: C_10  and  O_11
REMARK    6  A    between atoms: N_12  and  C_13
REMARK    7  A    between atoms: C_13  and  C_14
REMARK    8  A    between atoms: C_20  and  C_21
REMARK    9  A    between atoms: C_21  and  N_22
REMARK   10  A    between atoms: C_23  and  C_24
REMARK                            x       y       z     vdW  Elec       q    Type
REMARK                         _______ _______ _______ _____ _____    ______ ____
ROOT
ATOM      1  C   UNL     1      -0.222  10.240  19.320  0.00  0.00    +0.000 C 
ATOM      2  C   UNL     1      -0.155  11.203  20.533  0.00  0.00    +0.000 C 
ATOM      3  N   UNL     1       0.246  12.334  19.637  0.00  0.00    +0.000 NA
ATOM      4  C   UNL     1      -0.338  11.558  18.472  0.00  0.00    +0.000 C 
ENDROOT
BRANCH   1   8
ATOM      5  C   UNL     1       2.987   7.177  18.550  0.00  0.00    +0.000 A 
ATOM      6  C   UNL     1       2.289   7.224  19.756  0.00  0.00    +0.000 A 
ATOM      7  C   UNL     1       1.273   8.175  19.968  0.00  0.00    +0.000 A 
ATOM      8  C   UNL     1       0.930   9.145  19.003  0.00  0.00    +0.000 A 
ATOM      9  C   UNL     1       1.693   9.085  17.821  0.00  0.00    +0.000 A 
ATOM     10  C   UNL     1       2.685   8.134  17.588  0.00  0.00    +0.000 A 
BRANCH   5  13
ATOM     11  C   UNL     1       5.579   4.352  19.046  0.00  0.00    +0.000 C 
ATOM     12  C   UNL     1       4.500   5.353  19.282  0.00  0.00    +0.000 C 
ATOM     13  C   UNL     1       4.055   6.194  18.333  0.00  0.00    +0.000 C 
ENDBRANCH   5  13
ENDBRANCH   1   8
BRANCH   2  14
ATOM     14  C   UNL     1       0.632  10.854  21.790  0.00  0.00    +0.000 C 
BRANCH  14  15
ATOM     15  O   UNL     1      -0.187  10.991  22.949  0.00  0.00    +0.000 OA
ATOM     16  H   UNL     1       0.076  10.286  23.564  0.00  0.00    +0.000 HD
ENDBRANCH  14  15
ENDBRANCH   2  14
BRANCH   3  17
ATOM     17  C   UNL     1       1.694  12.512  19.427  0.00  0.00    +0.000 C 
BRANCH  17  18
ATOM     18  C   UNL     1       2.100  13.875  18.887  0.00  0.00    +0.000 A 
ATOM     19  C   UNL     1       1.289  14.991  19.059  0.00  0.00    +0.000 A 
ATOM     20  C   UNL     1       1.729  16.218  18.569  0.00  0.00    +0.000 A 
ATOM     21  C   UNL     1       2.965  16.304  17.937  0.00  0.00    +0.000 A 
ATOM     22  C   UNL     1       3.721  15.152  17.827  0.00  0.00    +0.000 A 
ATOM     23  N   UNL     1       3.317  13.949  18.283  0.00  0.00    +0.000 NA
ENDBRANCH  17  18
ENDBRANCH   3  17
BRANCH   4  24
ATOM     24  C   UNL     1      -1.762  12.058  18.157  0.00  0.00    +0.000 C 
BRANCH  24  25
ATOM     25  N   UNL     1      -2.079  11.720  16.781  0.00  0.00    +0.000 N 
ATOM     26  C   UNL     1      -2.730  10.560  16.436  0.00  0.00    +0.000 C 
ATOM     27  C   UNL     1      -3.027  10.427  14.968  0.00  0.00    +0.000 C 
ATOM     28  O   UNL     1      -3.034   9.680  17.238  0.00  0.00    +0.000 OA
ATOM     29  H   UNL     1      -1.907  12.419  16.074  0.00  0.00    +0.000 HD
ENDBRANCH  24  25
ENDBRANCH   4  24
TORSDOF 8
ENDMDL
MODEL 8
REMARK VINA RESULT:      -7.2      5.280      9.636
REMARK  Name = 
REMARK  10 active torsions:
REMARK  status: ('A' for Active; 'I' for Inactive)
REMARK    1  A    between atoms: C_1  and  C_2
REMARK    2  A    between atoms: C_3  and  C_4
REMARK    3  A    between atoms: C_7  and  C_8
REMARK    4  A    between atoms: C_9  and  C_10
REMARK    5  A    between atoms: C_10  and  O_11
REMARK    6  A    between atoms: N_12  and  C_13
REMARK    7  A    between atoms: C_13  and  C_14
REMARK    8  A    between atoms: C_20  and  C_21
REMARK    9  A    between atoms: C_21  and  N_22
REMARK   10  A    between atoms: C_23  and  C_24
REMARK                            x       y       z     vdW  Elec       q    Type
REMARK                         _______ _______ _______ _____ _____    ______ ____
ROOT
ATOM      1  C   UNL     1      -0.223  10.143  19.437  0.00  0.00    +0.000 C 
ATOM      2  C   UNL     1      -0.205  11.065  20.683  0.00  0.00    +0.000 C 
ATOM      3  N   UNL     1       0.204  12.232  19.836  0.00  0.00    +0.000 NA
ATOM      4  C   UNL     1      -0.335  11.487  18.630  0.00  0.00    +0.000 C 
ENDROOT
BRANCH   1   8
ATOM      5  C   UNL     1       3.034   7.200  18.438  0.00  0.00    +0.000 A 
ATOM      6  C   UNL     1       2.607   8.162  17.524  0.00  0.00    +0.000 A 
ATOM      7  C   UNL     1       1.603   9.088  17.865  0.00  0.00    +0.000 A 
ATOM      8  C   UNL     1       0.954   9.076  19.117  0.00  0.00    +0.000 A 
ATOM      9  C   UNL     1       1.389   8.059  19.988  0.00  0.00    +0.000 A 
ATOM     10  C   UNL     1       2.399   7.151  19.673  0.00  0.00    +0.000 A 
BRANCH   5  13
ATOM     11  C   UNL     1       5.696   5.161  16.514  0.00  0.00    +0.000 C 
ATOM     12  C   UNL     1       4.636   6.149  16.863  0.00  0.00    +0.000 C 
ATOM     13  C   UNL     1       4.072   6.226  18.080  0.00  0.00    +0.000 C 
ENDBRANCH   5  13
ENDBRANCH   1   8
BRANCH   2  14
ATOM     14  C   UNL     1       0.551  10.686  21.949  0.00  0.00    +0.000 C 
BRANCH  14  15
ATOM     15  O   UNL     1      -0.291  10.809  23.093  0.00  0.00    +0.000 OA
ATOM     16  H   UNL     1      -1.125  10.360  22.878  0.00  0.00    +0.000 HD
ENDBRANCH  14  15
ENDBRANCH   2  14
BRANCH   3  17
ATOM     17  C   UNL     1       1.654  12.437  19.674  0.00  0.00    +0.000 C 
BRANCH  17  18
ATOM     18  C   UNL     1       2.112  13.882  19.791  0.00  0.00    +0.000 A 
ATOM     19  C   UNL     1       1.991  14.768  18.727  0.00  0.00    +0.000 A 
ATOM     20  C   UNL     1       2.401  16.087  18.904  0.00  0.00    +0.000 A 
ATOM     21  C   UNL     1       2.905  16.491  20.136  0.00  0.00    +0.000 A 
ATOM     22  C   UNL     1       2.971  15.556  21.151  0.00  0.00    +0.000 A 
ATOM     23  N   UNL     1       2.591  14.269  21.005  0.00  0.00    +0.000 NA
ENDBRANCH  17  18
ENDBRANCH   3  17
BRANCH   4  24
ATOM     24  C   UNL     1      -1.758  11.976  18.292  0.00  0.00    +0.000 C 
BRANCH  24  25
ATOM     25  N   UNL     1      -2.032  11.678  16.898  0.00  0.00    +0.000 N 
ATOM     26  C   UNL     1      -2.681  10.532  16.501  0.00  0.00    +0.000 C 
ATOM     27  C   UNL     1      -2.931  10.442  15.021  0.00  0.00    +0.000 C 
ATOM     28  O   UNL     1      -3.018   9.635  17.268  0.00  0.00    +0.000 OA
ATOM     29  H   UNL     1      -1.831  12.394  16.216  0.00  0.00    +0.000 HD
ENDBRANCH  24  25
ENDBRANCH   4  24
TORSDOF 8
ENDMDL
MODEL 9
REMARK VINA RESULT:      -7.1      6.013      9.888
REMARK  Name = 
REMARK  10 active torsions:
REMARK  status: ('A' for Active; 'I' for Inactive)
REMARK    1  A    between atoms: C_1  and  C_2
REMARK    2  A    between atoms: C_3  and  C_4
REMARK    3  A    between atoms: C_7  and  C_8
REMARK    4  A    between atoms: C_9  and  C_10
REMARK    5  A    between atoms: C_10  and  O_11
REMARK    6  A    between atoms: N_12  and  C_13
REMARK    7  A    between atoms: C_13  and  C_14
REMARK    8  A    between atoms: C_20  and  C_21
REMARK    9  A    between atoms: C_21  and  N_22
REMARK   10  A    between atoms: C_23  and  C_24
REMARK                            x       y       z     vdW  Elec       q    Type
REMARK                         _______ _______ _______ _____ _____    ______ ____
ROOT
ATOM      1  C   UNL     1       1.214  10.815  18.750  0.00  0.00    +0.000 C 
ATOM      2  C   UNL     1      -0.215  11.393  18.584  0.00  0.00    +0.000 C 
ATOM      3  N   UNL     1      -0.103  12.099  19.901  0.00  0.00    +0.000 NA
ATOM      4  C   UNL     1       1.405  11.986  19.781  0.00  0.00    +0.000 C 
ENDROOT
BRANCH   1   8
ATOM      5  C   UNL     1       1.981   6.570  20.042  0.00  0.00    +0.000 A 
ATOM      6  C   UNL     1       1.381   7.500  20.890  0.00  0.00    +0.000 A 
ATOM      7  C   UNL     1       1.129   8.817  20.458  0.00  0.00    +0.000 A 
ATOM      8  C   UNL     1       1.494   9.277  19.176  0.00  0.00    +0.000 A 
ATOM      9  C   UNL     1       2.136   8.314  18.374  0.00  0.00    +0.000 A 
ATOM     10  C   UNL     1       2.370   7.001  18.778  0.00  0.00    +0.000 A 
BRANCH   5  13
ATOM     11  C   UNL     1       1.598   2.878  21.120  0.00  0.00    +0.000 C 
ATOM     12  C   UNL     1       1.305   4.268  20.669  0.00  0.00    +0.000 C 
ATOM     13  C   UNL     1       2.256   5.202  20.494  0.00  0.00    +0.000 C 
ENDBRANCH   5  13
ENDBRANCH   1   8
BRANCH   2  14
ATOM     14  C   UNL     1      -1.405  10.504  18.247  0.00  0.00    +0.000 C 
BRANCH  14  15
ATOM     15  O   UNL     1      -1.383  10.138  16.869  0.00  0.00    +0.000 OA
ATOM     16  H   UNL     1      -1.942  10.778  16.399  0.00  0.00    +0.000 HD
ENDBRANCH  14  15
ENDBRANCH   2  14
BRANCH   3  17
ATOM     17  C   UNL     1      -0.556  11.342  21.082  0.00  0.00    +0.000 C 
BRANCH  17  18
ATOM     18  C   UNL     1      -1.808  11.887  21.750  0.00  0.00    +0.000 A 
ATOM     19  C   UNL     1      -2.027  11.730  23.113  0.00  0.00    +0.000 A 
ATOM     20  C   UNL     1      -3.178  12.278  23.673  0.00  0.00    +0.000 A 
ATOM     21  C   UNL     1      -4.070  12.978  22.868  0.00  0.00    +0.000 A 
ATOM     22  C   UNL     1      -3.767  13.110  21.526  0.00  0.00    +0.000 A 
ATOM     23  N   UNL     1      -2.666  12.583  20.953  0.00  0.00    +0.000 NA
ENDBRANCH  17  18
ENDBRANCH   3  17
BRANCH   4  24
ATOM     24  C   UNL     1       1.998  13.300  19.236  0.00  0.00    +0.000 C 
BRANCH  24  25
ATOM     25  N   UNL     1       1.782  14.348  20.217  0.00  0.00    +0.000 N 
ATOM     26  C   UNL     1       2.584  14.504  21.322  0.00  0.00    +0.000 C 
ATOM     27  C   UNL     1       2.238  15.690  22.179  0.00  0.00    +0.000 C 
ATOM     28  O   UNL     1       3.498  13.739  21.618  0.00  0.00    +0.000 OA
ATOM     29  H   UNL     1       1.082  15.046  20.012  0.00  0.00    +0.000 HD
ENDBRANCH  24  25
ENDBRANCH   4  24
TORSDOF 8
ENDMDL
