MODEL 1
REMARK VINA RESULT:      -7.7      0.000      0.000
REMARK  Name = 
REMARK  7 active torsions:
REMARK  status: ('A' for Active; 'I' for Inactive)
REMARK    1  A    between atoms: C_1  and  C_2
REMARK    2  A    between atoms: C_4  and  C_5
REMARK    3  A    between atoms: C_7  and  S_8
REMARK    4  A    between atoms: S_8  and  C_11
REMARK    5  A    between atoms: C_12  and  C_13
REMARK    6  A    between atoms: N_15  and  C_16
REMARK    7  A    between atoms: C_16  and  C_17
REMARK                            x       y       z     vdW  Elec       q    Type
REMARK                         _______ _______ _______ _____ _____    ______ ____
ROOT
ATOM      1  C   UNL     1      -0.716  11.514  20.650  0.00  0.00    +0.000 A 
ATOM      2  C   UNL     1      -1.035  11.515  22.010  0.00  0.00    +0.000 A 
ATOM      3  N   UNL     1      -0.406  10.412  22.549  0.00  0.00    +0.000 N 
ATOM      4  C   UNL     1       0.299   9.716  21.604  0.00  0.00    +0.000 A 
ATOM      5  C   UNL     1       1.072   8.559  21.755  0.00  0.00    +0.000 A 
ATOM      6  C   UNL     1       1.686   8.034  20.617  0.00  0.00    +0.000 A 
ATOM      7  C   UNL     1       1.510   8.637  19.376  0.00  0.00    +0.000 A 
ATOM      8 CL   UNL     1       2.277   7.943  17.996  0.00  0.00    +0.000 Cl
ATOM      9  C   UNL     1       0.719   9.785  19.244  0.00  0.00    +0.000 A 
ATOM     10  F   UNL     1       0.526  10.309  18.025  0.00  0.00    +0.000 F 
ATOM     11  C   UNL     1       0.107  10.363  20.381  0.00  0.00    +0.000 A 
ATOM     12  H   UNL     1      -0.494  10.128  23.514  0.00  0.00    +0.000 HD
ENDROOT
BRANCH   2  13
ATOM     13  C   UNL     1      -1.891  12.370  22.816  0.00  0.00    +0.000 C 
ATOM     14  O   UNL     1      -1.468  13.259  23.542  0.00  0.00    +0.000 OA
ATOM     15  N   UNL     1      -3.240  12.151  22.617  0.00  0.00    +0.000 N 
ATOM     16  H   UNL     1      -3.551  11.328  22.124  0.00  0.00    +0.000 HD
BRANCH  15  17
ATOM     17  C   UNL     1      -4.269  12.897  23.314  0.00  0.00    +0.000 C 
BRANCH  17  18
ATOM     18  C   UNL     1      -5.334  13.378  22.358  0.00  0.00    +0.000 A 
ATOM     19  C   UNL     1      -5.020  14.342  21.389  0.00  0.00    +0.000 A 
ATOM     20  C   UNL     1      -5.985  14.777  20.478  0.00  0.00    +0.000 A 
ATOM     21  C   UNL     1      -7.274  14.252  20.523  0.00  0.00    +0.000 A 
ATOM     22  C   UNL     1      -7.602  13.297  21.481  0.00  0.00    +0.000 A 
ATOM     23  C   UNL     1      -6.638  12.861  22.397  0.00  0.00    +0.000 A 
ENDBRANCH  17  18
ENDBRANCH  15  17
ENDBRANCH   2  13
BRANCH   1  24
ATOM     24  S   UNL     1      -1.173  12.686  19.444  0.00  0.00    +0.000 S 
ATOM     25  O   UNL     1       0.020  12.867  18.635  0.00  0.00    +0.000 OA
ATOM     26  O   UNL     1      -1.725  13.811  20.170  0.00  0.00    +0.000 OA
BRANCH  24  33
ATOM     27  C   UNL     1      -6.151  11.172  18.791  0.00  0.00    +0.000 C 
ATOM     28  C   UNL     1      -4.765  11.267  18.225  0.00  0.00    +0.000 A 
ATOM     29  C   UNL     1      -4.477  10.781  16.942  0.00  0.00    +0.000 A 
ATOM     30  C   UNL     1      -3.182  10.869  16.413  0.00  0.00    +0.000 A 
ATOM     31  C   UNL     1      -2.889  10.371  15.027  0.00  0.00    +0.000 C 
ATOM     32  C   UNL     1      -2.163  11.447  17.185  0.00  0.00    +0.000 A 
ATOM     33  C   UNL     1      -2.443  11.927  18.469  0.00  0.00    +0.000 A 
ATOM     34  C   UNL     1      -3.744  11.855  18.981  0.00  0.00    +0.000 A 
ENDBRANCH  24  33
ENDBRANCH   1  24
TORSDOF 5
ENDMDL
MODEL 2
REMARK VINA RESULT:      -7.7      0.214      1.542
REMARK  Name = 
REMARK  7 active torsions:
REMARK  status: ('A' for Active; 'I' for Inactive)
REMARK    1  A    between atoms: C_1  and  C_2
REMARK    2  A    between atoms: C_4  and  C_5
REMARK    3  A    between atoms: C_7  and  S_8
REMARK    4  A    between atoms: S_8  and  C_11
REMARK    5  A    between atoms: C_12  and  C_13
REMARK    6  A    between atoms: N_15  and  C_16
REMARK    7  A    between atoms: C_16  and  C_17
REMARK                            x       y       z     vdW  Elec       q    Type
REMARK                         _______ _______ _______ _____ _____    ______ ____
ROOT
ATOM      1  C   UNL     1      -0.680  11.490  20.528  0.00  0.00    +0.000 A 
ATOM      2  C   UNL     1      -0.990  11.521  21.890  0.00  0.00    +0.000 A 
ATOM      3  N   UNL     1      -0.369  10.422  22.446  0.00  0.00    +0.000 N 
ATOM      4  C   UNL     1       0.322   9.700  21.510  0.00  0.00    +0.000 A 
ATOM      5  C   UNL     1       1.084   8.538  21.680  0.00  0.00    +0.000 A 
ATOM      6  C   UNL     1       1.685   7.984  20.548  0.00  0.00    +0.000 A 
ATOM      7  C   UNL     1       1.508   8.565  19.297  0.00  0.00    +0.000 A 
ATOM      8 CL   UNL     1       2.257   7.836  17.926  0.00  0.00    +0.000 Cl
ATOM      9  C   UNL     1       0.728   9.719  19.147  0.00  0.00    +0.000 A 
ATOM     10  F   UNL     1       0.533  10.221  17.920  0.00  0.00    +0.000 F 
ATOM     11  C   UNL     1       0.129  10.326  20.277  0.00  0.00    +0.000 A 
ATOM     12  H   UNL     1      -0.454  10.158  23.418  0.00  0.00    +0.000 HD
ENDROOT
BRANCH   2  13
ATOM     13  C   UNL     1      -1.830  12.401  22.684  0.00  0.00    +0.000 C 
ATOM     14  O   UNL     1      -1.393  13.207  23.493  0.00  0.00    +0.000 OA
ATOM     15  N   UNL     1      -3.174  12.312  22.375  0.00  0.00    +0.000 N 
ATOM     16  H   UNL     1      -3.513  11.548  21.811  0.00  0.00    +0.000 HD
BRANCH  15  17
ATOM     17  C   UNL     1      -4.188  13.105  23.042  0.00  0.00    +0.000 C 
BRANCH  17  18
ATOM     18  C   UNL     1      -5.351  13.385  22.121  0.00  0.00    +0.000 A 
ATOM     19  C   UNL     1      -5.204  14.296  21.065  0.00  0.00    +0.000 A 
ATOM     20  C   UNL     1      -6.261  14.545  20.186  0.00  0.00    +0.000 A 
ATOM     21  C   UNL     1      -7.476  13.886  20.352  0.00  0.00    +0.000 A 
ATOM     22  C   UNL     1      -7.639  12.982  21.398  0.00  0.00    +0.000 A 
ATOM     23  C   UNL     1      -6.583  12.731  22.281  0.00  0.00    +0.000 A 
ENDBRANCH  17  18
ENDBRANCH  15  17
ENDBRANCH   2  13
BRANCH   1  24
ATOM     24  S   UNL     1      -1.131  12.643  19.303  0.00  0.00    +0.000 S 
ATOM     25  O   UNL     1       0.057  12.793  18.481  0.00  0.00    +0.000 OA
ATOM     26  O   UNL     1      -1.663  13.790  20.010  0.00  0.00    +0.000 OA
BRANCH  24  33
ATOM     27  C   UNL     1      -2.799  10.248  14.946  0.00  0.00    +0.000 C 
ATOM     28  C   UNL     1      -3.121  10.764  16.317  0.00  0.00    +0.000 A 
ATOM     29  C   UNL     1      -4.412  10.635  16.850  0.00  0.00    +0.000 A 
ATOM     30  C   UNL     1      -4.713  11.118  18.132  0.00  0.00    +0.000 A 
ATOM     31  C   UNL     1      -6.091  10.950  18.705  0.00  0.00    +0.000 C 
ATOM     32  C   UNL     1      -3.707  11.743  18.883  0.00  0.00    +0.000 A 
ATOM     33  C   UNL     1      -2.419  11.882  18.353  0.00  0.00    +0.000 A 
ATOM     34  C   UNL     1      -2.121  11.377  17.083  0.00  0.00    +0.000 A 
ENDBRANCH  24  33
ENDBRANCH   1  24
TORSDOF 5
ENDMDL
MODEL 3
REMARK VINA RESULT:      -7.5      0.630      1.917
REMARK  Name = 
REMARK  7 active torsions:
REMARK  status: ('A' for Active; 'I' for Inactive)
REMARK    1  A    between atoms: C_1  and  C_2
REMARK    2  A    between atoms: C_4  and  C_5
REMARK    3  A    between atoms: C_7  and  S_8
REMARK    4  A    between atoms: S_8  and  C_11
REMARK    5  A    between atoms: C_12  and  C_13
REMARK    6  A    between atoms: N_15  and  C_16
REMARK    7  A    between atoms: C_16  and  C_17
REMARK                            x       y       z     vdW  Elec       q    Type
REMARK                         _______ _______ _______ _____ _____    ______ ____
ROOT
ATOM      1  C   UNL     1      -0.535  11.693  20.615  0.00  0.00    +0.000 A 
ATOM      2  C   UNL     1      -0.757  11.800  21.990  0.00  0.00    +0.000 A 
ATOM      3  N   UNL     1      -0.167  10.691  22.558  0.00  0.00    +0.000 N 
ATOM      4  C   UNL     1       0.423   9.890  21.617  0.00  0.00    +0.000 A 
ATOM      5  C   UNL     1       1.126   8.693  21.794  0.00  0.00    +0.000 A 
ATOM      6  C   UNL     1       1.624   8.056  20.655  0.00  0.00    +0.000 A 
ATOM      7  C   UNL     1       1.402   8.594  19.391  0.00  0.00    +0.000 A 
ATOM      8 CL   UNL     1       2.022   7.763  18.013  0.00  0.00    +0.000 Cl
ATOM      9  C   UNL     1       0.681   9.785  19.236  0.00  0.00    +0.000 A 
ATOM     10  F   UNL     1       0.439  10.244  18.000  0.00  0.00    +0.000 F 
ATOM     11  C   UNL     1       0.190  10.473  20.370  0.00  0.00    +0.000 A 
ATOM     12  H   UNL     1      -0.206  10.474  23.544  0.00  0.00    +0.000 HD
ENDROOT
BRANCH   2  13
ATOM     13  C   UNL     1      -1.495  12.762  22.792  0.00  0.00    +0.000 C 
ATOM     14  O   UNL     1      -0.982  13.458  23.657  0.00  0.00    +0.000 OA
ATOM     15  N   UNL     1      -2.821  12.888  22.424  0.00  0.00    +0.000 N 
ATOM     16  H   UNL     1      -3.242  12.209  21.810  0.00  0.00    +0.000 HD
BRANCH  15  17
ATOM     17  C   UNL     1      -3.737  13.795  23.087  0.00  0.00    +0.000 C 
BRANCH  17  18
ATOM     18  C   UNL     1      -5.165  13.328  22.941  0.00  0.00    +0.000 A 
ATOM     19  C   UNL     1      -5.843  12.792  24.046  0.00  0.00    +0.000 A 
ATOM     20  C   UNL     1      -7.173  12.382  23.937  0.00  0.00    +0.000 A 
ATOM     21  C   UNL     1      -7.843  12.505  22.722  0.00  0.00    +0.000 A 
ATOM     22  C   UNL     1      -7.184  13.033  21.615  0.00  0.00    +0.000 A 
ATOM     23  C   UNL     1      -5.850  13.442  21.721  0.00  0.00    +0.000 A 
ENDBRANCH  17  18
ENDBRANCH  15  17
ENDBRANCH   2  13
BRANCH   1  24
ATOM     24  S   UNL     1      -0.996  12.818  19.367  0.00  0.00    +0.000 S 
ATOM     25  O   UNL     1       0.182  12.938  18.525  0.00  0.00    +0.000 OA
ATOM     26  O   UNL     1      -1.509  13.987  20.053  0.00  0.00    +0.000 OA
BRANCH  24  33
ATOM     27  C   UNL     1      -2.749  10.353  15.084  0.00  0.00    +0.000 C 
ATOM     28  C   UNL     1      -3.045  10.892  16.453  0.00  0.00    +0.000 A 
ATOM     29  C   UNL     1      -4.325  10.773  17.012  0.00  0.00    +0.000 A 
ATOM     30  C   UNL     1      -4.600  11.278  18.291  0.00  0.00    +0.000 A 
ATOM     31  C   UNL     1      -5.967  11.121  18.894  0.00  0.00    +0.000 C 
ATOM     32  C   UNL     1      -3.580  11.914  19.013  0.00  0.00    +0.000 A 
ATOM     33  C   UNL     1      -2.302  12.042  18.456  0.00  0.00    +0.000 A 
ATOM     34  C   UNL     1      -2.030  11.517  17.188  0.00  0.00    +0.000 A 
ENDBRANCH  24  33
ENDBRANCH   1  24
TORSDOF 5
ENDMDL
MODEL 4
REMARK VINA RESULT:      -7.5      0.728      1.068
REMARK  Name = 
REMARK  7 active torsions:
REMARK  status: ('A' for Active; 'I' for Inactive)
REMARK    1  A    between atoms: C_1  and  C_2
REMARK    2  A    between atoms: C_4  and  C_5
REMARK    3  A    between atoms: C_7  and  S_8
REMARK    4  A    between atoms: S_8  and  C_11
REMARK    5  A    between atoms: C_12  and  C_13
REMARK    6  A    between atoms: N_15  and  C_16
REMARK    7  A    between atoms: C_16  and  C_17
REMARK                            x       y       z     vdW  Elec       q    Type
REMARK                         _______ _______ _______ _____ _____    ______ ____
ROOT
ATOM      1  C   UNL     1      -0.641  11.737  20.554  0.00  0.00    +0.000 A 
ATOM      2  C   UNL     1      -0.946  11.924  21.904  0.00  0.00    +0.000 A 
ATOM      3  N   UNL     1      -0.374  10.864  22.575  0.00  0.00    +0.000 N 
ATOM      4  C   UNL     1       0.282  10.017  21.722  0.00  0.00    +0.000 A 
ATOM      5  C   UNL     1       0.991   8.846  22.014  0.00  0.00    +0.000 A 
ATOM      6  C   UNL     1       1.565   8.150  20.949  0.00  0.00    +0.000 A 
ATOM      7  C   UNL     1       1.411   8.604  19.643  0.00  0.00    +0.000 A 
ATOM      8 CL   UNL     1       2.124   7.702  18.358  0.00  0.00    +0.000 Cl
ATOM      9  C   UNL     1       0.683   9.769  19.371  0.00  0.00    +0.000 A 
ATOM     10  F   UNL     1       0.508  10.147  18.097  0.00  0.00    +0.000 F 
ATOM     11  C   UNL     1       0.115  10.518  20.429  0.00  0.00    +0.000 A 
ATOM     12  H   UNL     1      -0.469  10.707  23.568  0.00  0.00    +0.000 HD
ENDROOT
BRANCH   2  13
ATOM     13  C   UNL     1      -1.745  12.920  22.600  0.00  0.00    +0.000 C 
ATOM     14  O   UNL     1      -1.306  13.646  23.481  0.00  0.00    +0.000 OA
ATOM     15  N   UNL     1      -3.031  13.040  22.109  0.00  0.00    +0.000 N 
ATOM     16  H   UNL     1      -3.401  12.341  21.484  0.00  0.00    +0.000 HD
BRANCH  15  17
ATOM     17  C   UNL     1      -3.995  13.977  22.652  0.00  0.00    +0.000 C 
BRANCH  17  18
ATOM     18  C   UNL     1      -5.370  13.359  22.728  0.00  0.00    +0.000 A 
ATOM     19  C   UNL     1      -6.120  13.176  21.557  0.00  0.00    +0.000 A 
ATOM     20  C   UNL     1      -7.383  12.579  21.606  0.00  0.00    +0.000 A 
ATOM     21  C   UNL     1      -7.908  12.158  22.825  0.00  0.00    +0.000 A 
ATOM     22  C   UNL     1      -7.177  12.336  23.996  0.00  0.00    +0.000 A 
ATOM     23  C   UNL     1      -5.913  12.935  23.951  0.00  0.00    +0.000 A 
ENDBRANCH  17  18
ENDBRANCH  15  17
ENDBRANCH   2  13
BRANCH   1  24
ATOM     24  S   UNL     1      -1.043  12.774  19.213  0.00  0.00    +0.000 S 
ATOM     25  O   UNL     1       0.173  12.842  18.422  0.00  0.00    +0.000 OA
ATOM     26  O   UNL     1      -1.590  13.983  19.794  0.00  0.00    +0.000 OA
BRANCH  24  33
ATOM     27  C   UNL     1      -5.958  11.003  18.751  0.00  0.00    +0.000 C 
ATOM     28  C   UNL     1      -4.596  11.154  18.138  0.00  0.00    +0.000 A 
ATOM     29  C   UNL     1      -4.324  10.655  16.856  0.00  0.00    +0.000 A 
ATOM     30  C   UNL     1      -3.052  10.796  16.284  0.00  0.00    +0.000 A 
ATOM     31  C   UNL     1      -2.778  10.283  14.899  0.00  0.00    +0.000 C 
ATOM     32  C   UNL     1      -2.040  11.440  17.012  0.00  0.00    +0.000 A 
ATOM     33  C   UNL     1      -2.304  11.933  18.295  0.00  0.00    +0.000 A 
ATOM     34  C   UNL     1      -3.582  11.808  18.849  0.00  0.00    +0.000 A 
ENDBRANCH  24  33
ENDBRANCH   1  24
TORSDOF 5
ENDMDL
MODEL 5
REMARK VINA RESULT:      -7.4      3.771      7.903
REMARK  Name = 
REMARK  7 active torsions:
REMARK  status: ('A' for Active; 'I' for Inactive)
REMARK    1  A    between atoms: C_1  and  C_2
REMARK    2  A    between atoms: C_4  and  C_5
REMARK    3  A    between atoms: C_7  and  S_8
REMARK    4  A    between atoms: S_8  and  C_11
REMARK    5  A    between atoms: C_12  and  C_13
REMARK    6  A    between atoms: N_15  and  C_16
REMARK    7  A    between atoms: C_16  and  C_17
REMARK                            x       y       z     vdW  Elec       q    Type
REMARK                         _______ _______ _______ _____ _____    ______ ____
ROOT
ATOM      1  C   UNL     1      -0.677  10.919  18.966  0.00  0.00    +0.000 A 
ATOM      2  C   UNL     1      -0.095   9.978  18.114  0.00  0.00    +0.000 A 
ATOM      3  N   UNL     1      -1.060   9.659  17.182  0.00  0.00    +0.000 N 
ATOM      4  C   UNL     1      -2.221  10.354  17.395  0.00  0.00    +0.000 A 
ATOM      5  C   UNL     1      -3.416  10.318  16.666  0.00  0.00    +0.000 A 
ATOM      6  C   UNL     1      -4.469  11.124  17.104  0.00  0.00    +0.000 A 
ATOM      7  C   UNL     1      -4.329  11.915  18.240  0.00  0.00    +0.000 A 
ATOM      8 CL   UNL     1      -5.662  12.882  18.751  0.00  0.00    +0.000 Cl
ATOM      9  C   UNL     1      -3.130  11.923  18.964  0.00  0.00    +0.000 A 
ATOM     10  F   UNL     1      -3.048  12.654  20.085  0.00  0.00    +0.000 F 
ATOM     11  C   UNL     1      -2.031  11.143  18.531  0.00  0.00    +0.000 A 
ATOM     12  H   UNL     1      -0.940   8.964  16.459  0.00  0.00    +0.000 HD
ENDROOT
BRANCH   2  13
ATOM     13  C   UNL     1       1.201   9.318  18.120  0.00  0.00    +0.000 C 
ATOM     14  O   UNL     1       2.143   9.670  17.423  0.00  0.00    +0.000 OA
ATOM     15  N   UNL     1       1.304   8.309  19.057  0.00  0.00    +0.000 N 
ATOM     16  H   UNL     1       0.478   7.955  19.513  0.00  0.00    +0.000 HD
BRANCH  15  17
ATOM     17  C   UNL     1       2.510   7.525  19.238  0.00  0.00    +0.000 C 
BRANCH  17  18
ATOM     18  C   UNL     1       2.197   6.049  19.288  0.00  0.00    +0.000 A 
ATOM     19  C   UNL     1       1.832   5.452  20.503  0.00  0.00    +0.000 A 
ATOM     20  C   UNL     1       1.511   4.094  20.561  0.00  0.00    +0.000 A 
ATOM     21  C   UNL     1       1.549   3.318  19.405  0.00  0.00    +0.000 A 
ATOM     22  C   UNL     1       1.912   3.896  18.192  0.00  0.00    +0.000 A 
ATOM     23  C   UNL     1       2.237   5.255  18.131  0.00  0.00    +0.000 A 
ENDBRANCH  17  18
ENDBRANCH  15  17
ENDBRANCH   2  13
BRANCH   1  24
ATOM     24  S   UNL     1       0.061  11.742  20.313  0.00  0.00    +0.000 S 
ATOM     25  O   UNL     1       1.206  10.920  20.664  0.00  0.00    +0.000 OA
ATOM     26  O   UNL     1      -0.996  11.950  21.281  0.00  0.00    +0.000 OA
BRANCH  24  33
ATOM     27  C   UNL     1       3.836  14.802  18.341  0.00  0.00    +0.000 C 
ATOM     28  C   UNL     1       2.405  14.663  18.771  0.00  0.00    +0.000 A 
ATOM     29  C   UNL     1       1.516  15.743  18.675  0.00  0.00    +0.000 A 
ATOM     30  C   UNL     1       0.180  15.613  19.078  0.00  0.00    +0.000 A 
ATOM     31  C   UNL     1      -0.772  16.767  18.945  0.00  0.00    +0.000 C 
ATOM     32  C   UNL     1      -0.266  14.386  19.590  0.00  0.00    +0.000 A 
ATOM     33  C   UNL     1       0.618  13.306  19.696  0.00  0.00    +0.000 A 
ATOM     34  C   UNL     1       1.945  13.438  19.271  0.00  0.00    +0.000 A 
ENDBRANCH  24  33
ENDBRANCH   1  24
TORSDOF 5
ENDMDL
MODEL 6
REMARK VINA RESULT:      -7.4      3.745      7.735
REMARK  Name = 
REMARK  7 active torsions:
REMARK  status: ('A' for Active; 'I' for Inactive)
REMARK    1  A    between atoms: C_1  and  C_2
REMARK    2  A    between atoms: C_4  and  C_5
REMARK    3  A    between atoms: C_7  and  S_8
REMARK    4  A    between atoms: S_8  and  C_11
REMARK    5  A    between atoms: C_12  and  C_13
REMARK    6  A    between atoms: N_15  and  C_16
REMARK    7  A    between atoms: C_16  and  C_17
REMARK                            x       y       z     vdW  Elec       q    Type
REMARK                         _______ _______ _______ _____ _____    ______ ____
ROOT
ATOM      1  C   UNL     1      -0.737  10.953  18.913  0.00  0.00    +0.000 A 
ATOM      2  C   UNL     1      -0.122  10.007  18.089  0.00  0.00    +0.000 A 
ATOM      3  N   UNL     1      -1.063   9.656  17.145  0.00  0.00    +0.000 N 
ATOM      4  C   UNL     1      -2.240  10.333  17.323  0.00  0.00    +0.000 A 
ATOM      5  C   UNL     1      -3.419  10.264  16.572  0.00  0.00    +0.000 A 
ATOM      6  C   UNL     1      -4.494  11.059  16.975  0.00  0.00    +0.000 A 
ATOM      7  C   UNL     1      -4.390  11.872  18.099  0.00  0.00    +0.000 A 
ATOM      8 CL   UNL     1      -5.750  12.824  18.568  0.00  0.00    +0.000 Cl
ATOM      9  C   UNL     1      -3.206  11.913  18.846  0.00  0.00    +0.000 A 
ATOM     10  F   UNL     1      -3.159  12.664  19.955  0.00  0.00    +0.000 F 
ATOM     11  C   UNL     1      -2.086  11.145  18.449  0.00  0.00    +0.000 A 
ATOM     12  H   UNL     1      -0.917   8.950  16.436  0.00  0.00    +0.000 HD
ENDROOT
BRANCH   2  13
ATOM     13  C   UNL     1       1.184   9.370  18.132  0.00  0.00    +0.000 C 
ATOM     14  O   UNL     1       2.150   9.761  17.490  0.00  0.00    +0.000 OA
ATOM     15  N   UNL     1       1.266   8.333  19.041  0.00  0.00    +0.000 N 
ATOM     16  H   UNL     1       0.426   7.950  19.448  0.00  0.00    +0.000 HD
BRANCH  15  17
ATOM     17  C   UNL     1       2.477   7.565  19.250  0.00  0.00    +0.000 C 
BRANCH  17  18
ATOM     18  C   UNL     1       2.178   6.087  19.323  0.00  0.00    +0.000 A 
ATOM     19  C   UNL     1       1.807   5.507  20.545  0.00  0.00    +0.000 A 
ATOM     20  C   UNL     1       1.499   4.147  20.625  0.00  0.00    +0.000 A 
ATOM     21  C   UNL     1       1.556   3.351  19.483  0.00  0.00    +0.000 A 
ATOM     22  C   UNL     1       1.925   3.911  18.263  0.00  0.00    +0.000 A 
ATOM     23  C   UNL     1       2.237   5.273  18.181  0.00  0.00    +0.000 A 
ENDBRANCH  17  18
ENDBRANCH  15  17
ENDBRANCH   2  13
BRANCH   1  24
ATOM     24  S   UNL     1      -0.040  11.811  20.260  0.00  0.00    +0.000 S 
ATOM     25  O   UNL     1       1.187  11.093  20.559  0.00  0.00    +0.000 OA
ATOM     26  O   UNL     1      -1.083  11.898  21.261  0.00  0.00    +0.000 OA
BRANCH  24  33
ATOM     27  C   UNL     1      -1.290  16.858  19.579  0.00  0.00    +0.000 C 
ATOM     28  C   UNL     1      -0.283  15.761  19.398  0.00  0.00    +0.000 A 
ATOM     29  C   UNL     1       0.953  16.012  18.785  0.00  0.00    +0.000 A 
ATOM     30  C   UNL     1       1.894  14.986  18.616  0.00  0.00    +0.000 A 
ATOM     31  C   UNL     1       3.226  15.271  17.983  0.00  0.00    +0.000 C 
ATOM     32  C   UNL     1       1.586  13.693  19.061  0.00  0.00    +0.000 A 
ATOM     33  C   UNL     1       0.351  13.434  19.666  0.00  0.00    +0.000 A 
ATOM     34  C   UNL     1      -0.573  14.468  19.851  0.00  0.00    +0.000 A 
ENDBRANCH  24  33
ENDBRANCH   1  24
TORSDOF 5
ENDMDL
MODEL 7
REMARK VINA RESULT:      -7.3      0.619      1.812
REMARK  Name = 
REMARK  7 active torsions:
REMARK  status: ('A' for Active; 'I' for Inactive)
REMARK    1  A    between atoms: C_1  and  C_2
REMARK    2  A    between atoms: C_4  and  C_5
REMARK    3  A    between atoms: C_7  and  S_8
REMARK    4  A    between atoms: S_8  and  C_11
REMARK    5  A    between atoms: C_12  and  C_13
REMARK    6  A    between atoms: N_15  and  C_16
REMARK    7  A    between atoms: C_16  and  C_17
REMARK                            x       y       z     vdW  Elec       q    Type
REMARK                         _______ _______ _______ _____ _____    ______ ____
ROOT
ATOM      1  C   UNL     1      -0.755  11.619  20.859  0.00  0.00    +0.000 A 
ATOM      2  C   UNL     1      -1.035  11.577  22.227  0.00  0.00    +0.000 A 
ATOM      3  N   UNL     1      -0.407  10.448  22.709  0.00  0.00    +0.000 N 
ATOM      4  C   UNL     1       0.261   9.776  21.721  0.00  0.00    +0.000 A 
ATOM      5  C   UNL     1       1.022   8.604  21.811  0.00  0.00    +0.000 A 
ATOM      6  C   UNL     1       1.596   8.111  20.637  0.00  0.00    +0.000 A 
ATOM      7  C   UNL     1       1.394   8.759  19.424  0.00  0.00    +0.000 A 
ATOM      8 CL   UNL     1       2.110   8.103  17.999  0.00  0.00    +0.000 Cl
ATOM      9  C   UNL     1       0.615   9.922  19.354  0.00  0.00    +0.000 A 
ATOM     10  F   UNL     1       0.395  10.490  18.160  0.00  0.00    +0.000 F 
ATOM     11  C   UNL     1       0.044  10.468  20.528  0.00  0.00    +0.000 A 
ATOM     12  H   UNL     1      -0.471  10.132  23.667  0.00  0.00    +0.000 HD
ENDROOT
BRANCH   2  13
ATOM     13  C   UNL     1      -1.855  12.415  23.087  0.00  0.00    +0.000 C 
ATOM     14  O   UNL     1      -1.461  13.457  23.592  0.00  0.00    +0.000 OA
ATOM     15  N   UNL     1      -3.159  11.976  23.207  0.00  0.00    +0.000 N 
ATOM     16  H   UNL     1      -3.413  11.051  22.896  0.00  0.00    +0.000 HD
BRANCH  15  17
ATOM     17  C   UNL     1      -4.149  12.666  24.011  0.00  0.00    +0.000 C 
BRANCH  17  18
ATOM     18  C   UNL     1      -5.051  13.518  23.151  0.00  0.00    +0.000 A 
ATOM     19  C   UNL     1      -6.093  12.923  22.426  0.00  0.00    +0.000 A 
ATOM     20  C   UNL     1      -6.955  13.700  21.648  0.00  0.00    +0.000 A 
ATOM     21  C   UNL     1      -6.785  15.081  21.587  0.00  0.00    +0.000 A 
ATOM     22  C   UNL     1      -5.753  15.687  22.299  0.00  0.00    +0.000 A 
ATOM     23  C   UNL     1      -4.887  14.910  23.078  0.00  0.00    +0.000 A 
ENDBRANCH  17  18
ENDBRANCH  15  17
ENDBRANCH   2  13
BRANCH   1  24
ATOM     24  S   UNL     1      -1.229  12.838  19.708  0.00  0.00    +0.000 S 
ATOM     25  O   UNL     1      -0.047  13.054  18.892  0.00  0.00    +0.000 OA
ATOM     26  O   UNL     1      -1.772  13.932  20.486  0.00  0.00    +0.000 OA
BRANCH  24  33
ATOM     27  C   UNL     1      -2.846  10.526  15.288  0.00  0.00    +0.000 C 
ATOM     28  C   UNL     1      -3.190  11.037  16.657  0.00  0.00    +0.000 A 
ATOM     29  C   UNL     1      -4.496  10.935  17.156  0.00  0.00    +0.000 A 
ATOM     30  C   UNL     1      -4.817  11.414  18.434  0.00  0.00    +0.000 A 
ATOM     31  C   UNL     1      -6.212  11.275  18.972  0.00  0.00    +0.000 C 
ATOM     32  C   UNL     1      -3.815  12.007  19.216  0.00  0.00    +0.000 A 
ATOM     33  C   UNL     1      -2.511  12.118  18.720  0.00  0.00    +0.000 A 
ATOM     34  C   UNL     1      -2.194  11.618  17.452  0.00  0.00    +0.000 A 
ENDBRANCH  24  33
ENDBRANCH   1  24
TORSDOF 5
ENDMDL
MODEL 8
REMARK VINA RESULT:      -7.3      3.535      7.789
REMARK  Name = 
REMARK  7 active torsions:
REMARK  status: ('A' for Active; 'I' for Inactive)
REMARK    1  A    between atoms: C_1  and  C_2
REMARK    2  A    between atoms: C_4  and  C_5
REMARK    3  A    between atoms: C_7  and  S_8
REMARK    4  A    between atoms: S_8  and  C_11
REMARK    5  A    between atoms: C_12  and  C_13
REMARK    6  A    between atoms: N_15  and  C_16
REMARK    7  A    between atoms: C_16  and  C_17
REMARK                            x       y       z     vdW  Elec       q    Type
REMARK                         _______ _______ _______ _____ _____    ______ ____
ROOT
ATOM      1  C   UNL     1      -0.610  10.741  19.336  0.00  0.00    +0.000 A 
ATOM      2  C   UNL     1      -0.006  10.012  18.309  0.00  0.00    +0.000 A 
ATOM      3  N   UNL     1      -0.913   9.995  17.270  0.00  0.00    +0.000 N 
ATOM      4  C   UNL     1      -2.056  10.680  17.582  0.00  0.00    +0.000 A 
ATOM      5  C   UNL     1      -3.195  10.899  16.797  0.00  0.00    +0.000 A 
ATOM      6  C   UNL     1      -4.243  11.629  17.361  0.00  0.00    +0.000 A 
ATOM      7  C   UNL     1      -4.155  12.099  18.668  0.00  0.00    +0.000 A 
ATOM      8 CL   UNL     1      -5.481  12.983  19.326  0.00  0.00    +0.000 Cl
ATOM      9  C   UNL     1      -3.013  11.855  19.441  0.00  0.00    +0.000 A 
ATOM     10  F   UNL     1      -2.984  12.274  20.714  0.00  0.00    +0.000 F 
ATOM     11  C   UNL     1      -1.918  11.146  18.891  0.00  0.00    +0.000 A 
ATOM     12  H   UNL     1      -0.768   9.498  16.403  0.00  0.00    +0.000 HD
ENDROOT
BRANCH   2  13
ATOM     13  C   UNL     1       1.257   9.297  18.225  0.00  0.00    +0.000 C 
ATOM     14  O   UNL     1       2.173   9.624  17.483  0.00  0.00    +0.000 OA
ATOM     15  N   UNL     1       1.370   8.263  19.134  0.00  0.00    +0.000 N 
ATOM     16  H   UNL     1       0.556   7.934  19.630  0.00  0.00    +0.000 HD
BRANCH  15  17
ATOM     17  C   UNL     1       2.548   7.424  19.228  0.00  0.00    +0.000 C 
BRANCH  17  18
ATOM     18  C   UNL     1       2.174   5.962  19.262  0.00  0.00    +0.000 A 
ATOM     19  C   UNL     1       1.816   5.359  20.476  0.00  0.00    +0.000 A 
ATOM     20  C   UNL     1       1.439   4.015  20.521  0.00  0.00    +0.000 A 
ATOM     21  C   UNL     1       1.413   3.258  19.352  0.00  0.00    +0.000 A 
ATOM     22  C   UNL     1       1.768   3.842  18.139  0.00  0.00    +0.000 A 
ATOM     23  C   UNL     1       2.149   5.187  18.091  0.00  0.00    +0.000 A 
ENDBRANCH  17  18
ENDBRANCH  15  17
ENDBRANCH   2  13
BRANCH   1  24
ATOM     24  S   UNL     1       0.060  11.154  20.890  0.00  0.00    +0.000 S 
ATOM     25  O   UNL     1       1.426  10.663  20.845  0.00  0.00    +0.000 OA
ATOM     26  O   UNL     1      -0.860  10.625  21.876  0.00  0.00    +0.000 OA
BRANCH  24  33
ATOM     27  C   UNL     1      -0.744  15.614  23.530  0.00  0.00    +0.000 C 
ATOM     28  C   UNL     1      -0.309  14.949  22.257  0.00  0.00    +0.000 A 
ATOM     29  C   UNL     1       0.111  15.708  21.156  0.00  0.00    +0.000 A 
ATOM     30  C   UNL     1       0.517  15.086  19.966  0.00  0.00    +0.000 A 
ATOM     31  C   UNL     1       0.993  15.907  18.802  0.00  0.00    +0.000 C 
ATOM     32  C   UNL     1       0.493  13.687  19.881  0.00  0.00    +0.000 A 
ATOM     33  C   UNL     1       0.067  12.924  20.975  0.00  0.00    +0.000 A 
ATOM     34  C   UNL     1      -0.315  13.551  22.165  0.00  0.00    +0.000 A 
ENDBRANCH  24  33
ENDBRANCH   1  24
TORSDOF 5
ENDMDL
MODEL 9
REMARK VINA RESULT:      -7.2      3.187      4.704
REMARK  Name = 
REMARK  7 active torsions:
REMARK  status: ('A' for Active; 'I' for Inactive)
REMARK    1  A    between atoms: C_1  and  C_2
REMARK    2  A    between atoms: C_4  and  C_5
REMARK    3  A    between atoms: C_7  and  S_8
REMARK    4  A    between atoms: S_8  and  C_11
REMARK    5  A    between atoms: C_12  and  C_13
REMARK    6  A    between atoms: N_15  and  C_16
REMARK    7  A    between atoms: C_16  and  C_17
REMARK                            x       y       z     vdW  Elec       q    Type
REMARK                         _______ _______ _______ _____ _____    ______ ____
ROOT
ATOM      1  C   UNL     1      -0.778  14.032  20.386  0.00  0.00    +0.000 A 
ATOM      2  C   UNL     1      -1.875  14.896  20.417  0.00  0.00    +0.000 A 
ATOM      3  N   UNL     1      -1.490  16.026  19.727  0.00  0.00    +0.000 N 
ATOM      4  C   UNL     1      -0.209  15.921  19.255  0.00  0.00    +0.000 A 
ATOM      5  C   UNL     1       0.533  16.842  18.505  0.00  0.00    +0.000 A 
ATOM      6  C   UNL     1       1.839  16.494  18.156  0.00  0.00    +0.000 A 
ATOM      7  C   UNL     1       2.381  15.279  18.563  0.00  0.00    +0.000 A 
ATOM      8 CL   UNL     1       4.004  14.901  18.121  0.00  0.00    +0.000 Cl
ATOM      9  C   UNL     1       1.626  14.380  19.327  0.00  0.00    +0.000 A 
ATOM     10  F   UNL     1       2.198  13.243  19.750  0.00  0.00    +0.000 F 
ATOM     11  C   UNL     1       0.289  14.685  19.673  0.00  0.00    +0.000 A 
ATOM     12  H   UNL     1      -2.067  16.849  19.624  0.00  0.00    +0.000 HD
ENDROOT
BRANCH   2  13
ATOM     13  C   UNL     1      -3.176  14.806  21.060  0.00  0.00    +0.000 C 
ATOM     14  O   UNL     1      -3.493  15.462  22.043  0.00  0.00    +0.000 OA
ATOM     15  N   UNL     1      -4.063  13.977  20.401  0.00  0.00    +0.000 N 
ATOM     16  H   UNL     1      -3.733  13.351  19.683  0.00  0.00    +0.000 HD
BRANCH  15  17
ATOM     17  C   UNL     1      -5.417  13.747  20.865  0.00  0.00    +0.000 C 
BRANCH  17  18
ATOM     18  C   UNL     1      -5.981  12.472  20.287  0.00  0.00    +0.000 A 
ATOM     19  C   UNL     1      -5.485  11.974  19.073  0.00  0.00    +0.000 A 
ATOM     20  C   UNL     1      -5.976  10.781  18.539  0.00  0.00    +0.000 A 
ATOM     21  C   UNL     1      -6.965  10.069  19.212  0.00  0.00    +0.000 A 
ATOM     22  C   UNL     1      -7.470  10.552  20.417  0.00  0.00    +0.000 A 
ATOM     23  C   UNL     1      -6.983  11.749  20.954  0.00  0.00    +0.000 A 
ENDBRANCH  17  18
ENDBRANCH  15  17
ENDBRANCH   2  13
BRANCH   1  24
ATOM     24  S   UNL     1      -0.667  12.422  21.042  0.00  0.00    +0.000 S 
ATOM     25  O   UNL     1      -1.922  12.223  21.746  0.00  0.00    +0.000 OA
ATOM     26  O   UNL     1       0.581  12.375  21.776  0.00  0.00    +0.000 OA
BRANCH  24  33
ATOM     27  C   UNL     1       1.988   9.047  18.032  0.00  0.00    +0.000 C 
ATOM     28  C   UNL     1       0.697   9.759  18.313  0.00  0.00    +0.000 A 
ATOM     29  C   UNL     1      -0.430   9.551  17.505  0.00  0.00    +0.000 A 
ATOM     30  C   UNL     1      -1.635  10.217  17.767  0.00  0.00    +0.000 A 
ATOM     31  C   UNL     1      -2.846   9.967  16.913  0.00  0.00    +0.000 C 
ATOM     32  C   UNL     1      -1.707  11.107  18.849  0.00  0.00    +0.000 A 
ATOM     33  C   UNL     1      -0.583  11.324  19.655  0.00  0.00    +0.000 A 
ATOM     34  C   UNL     1       0.610  10.638  19.399  0.00  0.00    +0.000 A 
ENDBRANCH  24  33
ENDBRANCH   1  24
TORSDOF 5
ENDMDL
