MODEL 1
REMARK VINA RESULT:      -6.2      0.000      0.000
REMARK  Name = 
REMARK  2 active torsions:
REMARK  status: ('A' for Active; 'I' for Inactive)
REMARK    1  A    between atoms: C_4  and  O_5
REMARK    2  A    between atoms: C_9  and  O_10
REMARK                            x       y       z     vdW  Elec       q    Type
REMARK                         _______ _______ _______ _____ _____    ______ ____
ROOT
ATOM      1  O   UNL     1       8.340   4.064  17.607  0.00  0.00    +0.000 OA
ATOM      2  C   UNL     1       7.281   4.682  17.602  0.00  0.00    +0.000 A 
ATOM      3  C   UNL     1       6.904   5.495  16.436  0.00  0.00    +0.000 A 
ATOM      4  C   UNL     1       5.743   6.153  16.377  0.00  0.00    +0.000 A 
ATOM      5  C   UNL     1       4.798   6.065  17.487  0.00  0.00    +0.000 A 
ATOM      6  C   UNL     1       3.537   6.674  17.474  0.00  0.00    +0.000 A 
ATOM      7  C   UNL     1       2.668   6.533  18.562  0.00  0.00    +0.000 A 
ATOM      8  C   UNL     1       3.068   5.790  19.670  0.00  0.00    +0.000 A 
ATOM      9  C   UNL     1       4.317   5.184  19.709  0.00  0.00    +0.000 A 
ATOM     10  C   UNL     1       5.163   5.323  18.612  0.00  0.00    +0.000 A 
ATOM     11  O   UNL     1       6.404   4.659  18.674  0.00  0.00    +0.000 OA
ENDROOT
BRANCH   4  12
ATOM     12  O   UNL     1       5.363   6.925  15.304  0.00  0.00    +0.000 OA
ATOM     13  H   UNL     1       5.301   6.364  14.512  0.00  0.00    +0.000 HD
ENDBRANCH   4  12
BRANCH   8  14
ATOM     14  O   UNL     1       2.248   5.625  20.746  0.00  0.00    +0.000 OA
ATOM     15  H   UNL     1       2.684   5.992  21.533  0.00  0.00    +0.000 HD
ENDBRANCH   8  14
TORSDOF 2
ENDMDL
MODEL 2
REMARK VINA RESULT:      -6.1      2.067      2.820
REMARK  Name = 
REMARK  2 active torsions:
REMARK  status: ('A' for Active; 'I' for Inactive)
REMARK    1  A    between atoms: C_4  and  O_5
REMARK    2  A    between atoms: C_9  and  O_10
REMARK                            x       y       z     vdW  Elec       q    Type
REMARK                         _______ _______ _______ _____ _____    ______ ____
ROOT
ATOM      1  O   UNL     1       7.644   4.737  15.268  0.00  0.00    +0.000 OA
ATOM      2  C   UNL     1       6.881   4.668  16.227  0.00  0.00    +0.000 A 
ATOM      3  C   UNL     1       7.342   5.054  17.568  0.00  0.00    +0.000 A 
ATOM      4  C   UNL     1       6.532   5.028  18.630  0.00  0.00    +0.000 A 
ATOM      5  C   UNL     1       5.138   4.620  18.473  0.00  0.00    +0.000 A 
ATOM      6  C   UNL     1       4.213   4.626  19.524  0.00  0.00    +0.000 A 
ATOM      7  C   UNL     1       2.885   4.245  19.303  0.00  0.00    +0.000 A 
ATOM      8  C   UNL     1       2.486   3.845  18.030  0.00  0.00    +0.000 A 
ATOM      9  C   UNL     1       3.388   3.823  16.974  0.00  0.00    +0.000 A 
ATOM     10  C   UNL     1       4.702   4.220  17.209  0.00  0.00    +0.000 A 
ATOM     11  O   UNL     1       5.576   4.222  16.104  0.00  0.00    +0.000 OA
ENDROOT
BRANCH   4  12
ATOM     12  O   UNL     1       6.933   5.377  19.899  0.00  0.00    +0.000 OA
ATOM     13  H   UNL     1       6.421   4.866  20.548  0.00  0.00    +0.000 HD
ENDBRANCH   4  12
BRANCH   8  14
ATOM     14  O   UNL     1       1.200   3.472  17.774  0.00  0.00    +0.000 OA
ATOM     15  H   UNL     1       1.209   2.695  17.192  0.00  0.00    +0.000 HD
ENDBRANCH   8  14
TORSDOF 2
ENDMDL
MODEL 3
REMARK VINA RESULT:      -6.1      2.164      2.450
REMARK  Name = 
REMARK  2 active torsions:
REMARK  status: ('A' for Active; 'I' for Inactive)
REMARK    1  A    between atoms: C_4  and  O_5
REMARK    2  A    between atoms: C_9  and  O_10
REMARK                            x       y       z     vdW  Elec       q    Type
REMARK                         _______ _______ _______ _____ _____    ______ ____
ROOT
ATOM      1  O   UNL     1       7.135   5.521  19.801  0.00  0.00    +0.000 OA
ATOM      2  C   UNL     1       6.100   5.157  19.253  0.00  0.00    +0.000 A 
ATOM      3  C   UNL     1       6.088   4.866  17.811  0.00  0.00    +0.000 A 
ATOM      4  C   UNL     1       4.990   4.433  17.185  0.00  0.00    +0.000 A 
ATOM      5  C   UNL     1       3.757   4.221  17.939  0.00  0.00    +0.000 A 
ATOM      6  C   UNL     1       2.585   3.711  17.368  0.00  0.00    +0.000 A 
ATOM      7  C   UNL     1       1.443   3.509  18.150  0.00  0.00    +0.000 A 
ATOM      8  C   UNL     1       1.470   3.831  19.505  0.00  0.00    +0.000 A 
ATOM      9  C   UNL     1       2.619   4.346  20.092  0.00  0.00    +0.000 A 
ATOM     10  C   UNL     1       3.751   4.526  19.301  0.00  0.00    +0.000 A 
ATOM     11  O   UNL     1       4.907   5.012  19.942  0.00  0.00    +0.000 OA
ENDROOT
BRANCH   4  12
ATOM     12  O   UNL     1       4.945   4.159  15.838  0.00  0.00    +0.000 OA
ATOM     13  H   UNL     1       5.816   3.836  15.548  0.00  0.00    +0.000 HD
ENDBRANCH   4  12
BRANCH   8  14
ATOM     14  O   UNL     1       0.380   3.643  20.300  0.00  0.00    +0.000 OA
ATOM     15  H   UNL     1      -0.021   2.785  20.086  0.00  0.00    +0.000 HD
ENDBRANCH   8  14
TORSDOF 2
ENDMDL
MODEL 4
REMARK VINA RESULT:      -6.0      2.455      2.604
REMARK  Name = 
REMARK  2 active torsions:
REMARK  status: ('A' for Active; 'I' for Inactive)
REMARK    1  A    between atoms: C_4  and  O_5
REMARK    2  A    between atoms: C_9  and  O_10
REMARK                            x       y       z     vdW  Elec       q    Type
REMARK                         _______ _______ _______ _____ _____    ______ ____
ROOT
ATOM      1  O   UNL     1       7.407   5.169  16.195  0.00  0.00    +0.000 OA
ATOM      2  C   UNL     1       6.264   5.164  16.641  0.00  0.00    +0.000 A 
ATOM      3  C   UNL     1       5.541   6.429  16.838  0.00  0.00    +0.000 A 
ATOM      4  C   UNL     1       4.284   6.463  17.288  0.00  0.00    +0.000 A 
ATOM      5  C   UNL     1       3.582   5.216  17.584  0.00  0.00    +0.000 A 
ATOM      6  C   UNL     1       2.245   5.167  17.998  0.00  0.00    +0.000 A 
ATOM      7  C   UNL     1       1.622   3.938  18.244  0.00  0.00    +0.000 A 
ATOM      8  C   UNL     1       2.344   2.758  18.088  0.00  0.00    +0.000 A 
ATOM      9  C   UNL     1       3.673   2.782  17.685  0.00  0.00    +0.000 A 
ATOM     10  C   UNL     1       4.272   4.013  17.431  0.00  0.00    +0.000 A 
ATOM     11  O   UNL     1       5.609   3.994  16.986  0.00  0.00    +0.000 OA
ENDROOT
BRANCH   4  12
ATOM     12  O   UNL     1       3.582   7.629  17.489  0.00  0.00    +0.000 OA
ATOM     13  H   UNL     1       3.464   8.081  16.635  0.00  0.00    +0.000 HD
ENDBRANCH   4  12
BRANCH   8  14
ATOM     14  O   UNL     1       1.771   1.542  18.312  0.00  0.00    +0.000 OA
ATOM     15  H   UNL     1       1.074   1.642  18.981  0.00  0.00    +0.000 HD
ENDBRANCH   8  14
TORSDOF 2
ENDMDL
MODEL 5
REMARK VINA RESULT:      -6.0      2.257      4.606
REMARK  Name = 
REMARK  2 active torsions:
REMARK  status: ('A' for Active; 'I' for Inactive)
REMARK    1  A    between atoms: C_4  and  O_5
REMARK    2  A    between atoms: C_9  and  O_10
REMARK                            x       y       z     vdW  Elec       q    Type
REMARK                         _______ _______ _______ _____ _____    ______ ____
ROOT
ATOM      1  O   UNL     1       1.403   4.251  17.458  0.00  0.00    +0.000 OA
ATOM      2  C   UNL     1       2.579   4.396  17.775  0.00  0.00    +0.000 A 
ATOM      3  C   UNL     1       3.252   3.387  18.606  0.00  0.00    +0.000 A 
ATOM      4  C   UNL     1       4.541   3.491  18.943  0.00  0.00    +0.000 A 
ATOM      5  C   UNL     1       5.327   4.627  18.469  0.00  0.00    +0.000 A 
ATOM      6  C   UNL     1       6.696   4.774  18.727  0.00  0.00    +0.000 A 
ATOM      7  C   UNL     1       7.399   5.875  18.226  0.00  0.00    +0.000 A 
ATOM      8  C   UNL     1       6.727   6.837  17.475  0.00  0.00    +0.000 A 
ATOM      9  C   UNL     1       5.368   6.716  17.213  0.00  0.00    +0.000 A 
ATOM     10  C   UNL     1       4.688   5.606  17.708  0.00  0.00    +0.000 A 
ATOM     11  O   UNL     1       3.321   5.500  17.387  0.00  0.00    +0.000 OA
ENDROOT
BRANCH   4  12
ATOM     12  O   UNL     1       5.197   2.567  19.723  0.00  0.00    +0.000 OA
ATOM     13  H   UNL     1       4.916   1.673  19.464  0.00  0.00    +0.000 HD
ENDBRANCH   4  12
BRANCH   8  14
ATOM     14  O   UNL     1       7.378   7.920  16.965  0.00  0.00    +0.000 OA
ATOM     15  H   UNL     1       8.076   8.187  17.585  0.00  0.00    +0.000 HD
ENDBRANCH   8  14
TORSDOF 2
ENDMDL
MODEL 6
REMARK VINA RESULT:      -6.0      2.364      2.503
REMARK  Name = 
REMARK  2 active torsions:
REMARK  status: ('A' for Active; 'I' for Inactive)
REMARK    1  A    between atoms: C_4  and  O_5
REMARK    2  A    between atoms: C_9  and  O_10
REMARK                            x       y       z     vdW  Elec       q    Type
REMARK                         _______ _______ _______ _____ _____    ______ ____
ROOT
ATOM      1  O   UNL     1       7.646   4.820  18.591  0.00  0.00    +0.000 OA
ATOM      2  C   UNL     1       6.426   4.860  18.470  0.00  0.00    +0.000 A 
ATOM      3  C   UNL     1       5.767   6.097  18.025  0.00  0.00    +0.000 A 
ATOM      4  C   UNL     1       4.445   6.170  17.846  0.00  0.00    +0.000 A 
ATOM      5  C   UNL     1       3.613   4.993  18.079  0.00  0.00    +0.000 A 
ATOM      6  C   UNL     1       2.231   4.972  17.854  0.00  0.00    +0.000 A 
ATOM      7  C   UNL     1       1.492   3.804  18.076  0.00  0.00    +0.000 A 
ATOM      8  C   UNL     1       2.137   2.659  18.536  0.00  0.00    +0.000 A 
ATOM      9  C   UNL     1       3.505   2.658  18.774  0.00  0.00    +0.000 A 
ATOM     10  C   UNL     1       4.226   3.825  18.534  0.00  0.00    +0.000 A 
ATOM     11  O   UNL     1       5.618   3.771  18.749  0.00  0.00    +0.000 OA
ENDROOT
BRANCH   4  12
ATOM     12  O   UNL     1       3.797   7.312  17.436  0.00  0.00    +0.000 OA
ATOM     13  H   UNL     1       3.093   7.526  18.072  0.00  0.00    +0.000 HD
ENDBRANCH   4  12
BRANCH   8  14
ATOM     14  O   UNL     1       1.453   1.501  18.759  0.00  0.00    +0.000 OA
ATOM     15  H   UNL     1       0.523   1.633  18.509  0.00  0.00    +0.000 HD
ENDBRANCH   8  14
TORSDOF 2
ENDMDL
MODEL 7
REMARK VINA RESULT:      -6.0      2.661      5.083
REMARK  Name = 
REMARK  2 active torsions:
REMARK  status: ('A' for Active; 'I' for Inactive)
REMARK    1  A    between atoms: C_4  and  O_5
REMARK    2  A    between atoms: C_9  and  O_10
REMARK                            x       y       z     vdW  Elec       q    Type
REMARK                         _______ _______ _______ _____ _____    ______ ____
ROOT
ATOM      1  O   UNL     1       1.436   2.636  22.144  0.00  0.00    +0.000 OA
ATOM      2  C   UNL     1       1.871   2.928  21.035  0.00  0.00    +0.000 A 
ATOM      3  C   UNL     1       0.947   3.159  19.914  0.00  0.00    +0.000 A 
ATOM      4  C   UNL     1       1.380   3.513  18.701  0.00  0.00    +0.000 A 
ATOM      5  C   UNL     1       2.810   3.695  18.462  0.00  0.00    +0.000 A 
ATOM      6  C   UNL     1       3.335   4.125  17.238  0.00  0.00    +0.000 A 
ATOM      7  C   UNL     1       4.715   4.301  17.079  0.00  0.00    +0.000 A 
ATOM      8  C   UNL     1       5.569   4.036  18.145  0.00  0.00    +0.000 A 
ATOM      9  C   UNL     1       5.072   3.601  19.367  0.00  0.00    +0.000 A 
ATOM     10  C   UNL     1       3.695   3.445  19.511  0.00  0.00    +0.000 A 
ATOM     11  O   UNL     1       3.227   3.041  20.777  0.00  0.00    +0.000 OA
ENDROOT
BRANCH   4  12
ATOM     12  O   UNL     1       0.543   3.731  17.632  0.00  0.00    +0.000 OA
ATOM     13  H   UNL     1       0.887   3.257  16.855  0.00  0.00    +0.000 HD
ENDBRANCH   4  12
BRANCH   8  14
ATOM     14  O   UNL     1       6.918   4.201  18.032  0.00  0.00    +0.000 OA
ATOM     15  H   UNL     1       7.343   3.328  18.037  0.00  0.00    +0.000 HD
ENDBRANCH   8  14
TORSDOF 2
ENDMDL
MODEL 8
REMARK VINA RESULT:      -6.0      2.495      5.151
REMARK  Name = 
REMARK  2 active torsions:
REMARK  status: ('A' for Active; 'I' for Inactive)
REMARK    1  A    between atoms: C_4  and  O_5
REMARK    2  A    between atoms: C_9  and  O_10
REMARK                            x       y       z     vdW  Elec       q    Type
REMARK                         _______ _______ _______ _____ _____    ______ ____
ROOT
ATOM      1  O   UNL     1       0.217   2.144  18.492  0.00  0.00    +0.000 OA
ATOM      2  C   UNL     1       1.183   2.883  18.658  0.00  0.00    +0.000 A 
ATOM      3  C   UNL     1       1.241   3.775  19.825  0.00  0.00    +0.000 A 
ATOM      4  C   UNL     1       2.291   4.567  20.059  0.00  0.00    +0.000 A 
ATOM      5  C   UNL     1       3.433   4.551  19.148  0.00  0.00    +0.000 A 
ATOM      6  C   UNL     1       4.594   5.305  19.359  0.00  0.00    +0.000 A 
ATOM      7  C   UNL     1       5.663   5.229  18.459  0.00  0.00    +0.000 A 
ATOM      8  C   UNL     1       5.564   4.406  17.340  0.00  0.00    +0.000 A 
ATOM      9  C   UNL     1       4.419   3.656  17.106  0.00  0.00    +0.000 A 
ATOM     10  C   UNL     1       3.371   3.733  18.020  0.00  0.00    +0.000 A 
ATOM     11  O   UNL     1       2.243   2.926  17.768  0.00  0.00    +0.000 OA
ENDROOT
BRANCH   4  12
ATOM     12  O   UNL     1       2.374   5.416  21.138  0.00  0.00    +0.000 OA
ATOM     13  H   UNL     1       2.025   4.966  21.927  0.00  0.00    +0.000 HD
ENDBRANCH   4  12
BRANCH   8  14
ATOM     14  O   UNL     1       6.586   4.301  16.444  0.00  0.00    +0.000 OA
ATOM     15  H   UNL     1       7.039   5.158  16.383  0.00  0.00    +0.000 HD
ENDBRANCH   8  14
TORSDOF 2
ENDMDL
MODEL 9
REMARK VINA RESULT:      -5.9      2.365      3.506
REMARK  Name = 
REMARK  2 active torsions:
REMARK  status: ('A' for Active; 'I' for Inactive)
REMARK    1  A    between atoms: C_4  and  O_5
REMARK    2  A    between atoms: C_9  and  O_10
REMARK                            x       y       z     vdW  Elec       q    Type
REMARK                         _______ _______ _______ _____ _____    ______ ____
ROOT
ATOM      1  O   UNL     1       5.612   6.633  15.476  0.00  0.00    +0.000 OA
ATOM      2  C   UNL     1       5.405   5.867  16.412  0.00  0.00    +0.000 A 
ATOM      3  C   UNL     1       6.218   5.955  17.634  0.00  0.00    +0.000 A 
ATOM      4  C   UNL     1       6.000   5.163  18.688  0.00  0.00    +0.000 A 
ATOM      5  C   UNL     1       4.916   4.184  18.651  0.00  0.00    +0.000 A 
ATOM      6  C   UNL     1       4.586   3.364  19.737  0.00  0.00    +0.000 A 
ATOM      7  C   UNL     1       3.521   2.460  19.647  0.00  0.00    +0.000 A 
ATOM      8  C   UNL     1       2.794   2.370  18.463  0.00  0.00    +0.000 A 
ATOM      9  C   UNL     1       3.108   3.169  17.370  0.00  0.00    +0.000 A 
ATOM     10  C   UNL     1       4.162   4.072  17.483  0.00  0.00    +0.000 A 
ATOM     11  O   UNL     1       4.423   4.892  16.368  0.00  0.00    +0.000 OA
ENDROOT
BRANCH   4  12
ATOM     12  O   UNL     1       6.746   5.216  19.842  0.00  0.00    +0.000 OA
ATOM     13  H   UNL     1       7.207   6.072  19.886  0.00  0.00    +0.000 HD
ENDBRANCH   4  12
BRANCH   8  14
ATOM     14  O   UNL     1       1.746   1.508  18.338  0.00  0.00    +0.000 OA
ATOM     15  H   UNL     1       1.221   1.762  17.561  0.00  0.00    +0.000 HD
ENDBRANCH   8  14
TORSDOF 2
ENDMDL
