MODEL 1
REMARK VINA RESULT:      -8.6      0.000      0.000
REMARK  Name = 
REMARK  6 active torsions:
REMARK  status: ('A' for Active; 'I' for Inactive)
REMARK    1  A    between atoms: C_1  and  C_2
REMARK    2  A    between atoms: C_2  and  C_3
REMARK    3  A    between atoms: C_2  and  O_4
REMARK    4  A    between atoms: C_2  and  C_13
REMARK    5  A    between atoms: O_4  and  C_5
REMARK    6  A    between atoms: C_5  and  C_7
REMARK                            x       y       z     vdW  Elec       q    Type
REMARK                         _______ _______ _______ _____ _____    ______ ____
ROOT
ATOM      1  C   UNL     1       6.091   4.246  16.660  0.00  0.00    +0.000 C 
ATOM      2  C   UNL     1       4.999   3.288  16.164  0.00  0.00    +0.000 C 
ATOM      3  C   UNL     1       4.225   3.103  17.410  0.00  0.00    +0.000 A 
ATOM      4  C   UNL     1       2.931   2.611  17.602  0.00  0.00    +0.000 A 
ATOM      5  C   UNL     1       2.463   2.543  18.917  0.00  0.00    +0.000 A 
ATOM      6  C   UNL     1       1.009   2.485  19.173  0.00  0.00    +0.000 A 
ATOM      7  C   UNL     1       0.688   3.018  20.352  0.00  0.00    +0.000 A 
ATOM      8  C   UNL     1       1.521   2.777  21.554  0.00  0.00    +0.000 A 
ATOM      9  O   UNL     1       1.013   2.617  22.664  0.00  0.00    +0.000 OA
ATOM     10  O   UNL     1       2.871   2.797  21.323  0.00  0.00    +0.000 OA
ATOM     11  C   UNL     1       3.327   2.858  19.980  0.00  0.00    +0.000 A 
ATOM     12  C   UNL     1       4.604   3.319  19.793  0.00  0.00    +0.000 A 
ATOM     13  C   UNL     1       5.020   3.492  18.477  0.00  0.00    +0.000 A 
ATOM     14  O   UNL     1       6.204   4.072  18.112  0.00  0.00    +0.000 OA
ENDROOT
BRANCH   1  16
ATOM     15  C   UNL     1       7.147   6.539  16.905  0.00  0.00    +0.000 C 
ATOM     16  C   UNL     1       5.966   5.772  16.267  0.00  0.00    +0.000 C 
ATOM     17  C   UNL     1       4.621   6.290  16.821  0.00  0.00    +0.000 C 
BRANCH  16  18
ATOM     18  O   UNL     1       5.993   5.936  14.809  0.00  0.00    +0.000 OA
BRANCH  18  19
ATOM     19  C   UNL     1       6.987   5.301  14.114  0.00  0.00    +0.000 C 
ATOM     20  O   UNL     1       8.183   5.504  14.220  0.00  0.00    +0.000 OA
BRANCH  19  21
ATOM     21  C   UNL     1       6.491   4.315  13.114  0.00  0.00    +0.000 A 
ATOM     22  C   UNL     1       5.091   4.181  12.983  0.00  0.00    +0.000 A 
ATOM     23  C   UNL     1       4.538   3.232  12.122  0.00  0.00    +0.000 A 
ATOM     24  C   UNL     1       5.379   2.410  11.380  0.00  0.00    +0.000 A 
ATOM     25  C   UNL     1       6.765   2.553  11.479  0.00  0.00    +0.000 A 
ATOM     26  C   UNL     1       7.330   3.504  12.345  0.00  0.00    +0.000 A 
ENDBRANCH  19  21
ENDBRANCH  18  19
ENDBRANCH  16  18
ENDBRANCH   1  16
TORSDOF 4
ENDMDL
MODEL 2
REMARK VINA RESULT:      -8.5      2.495      4.956
REMARK  Name = 
REMARK  6 active torsions:
REMARK  status: ('A' for Active; 'I' for Inactive)
REMARK    1  A    between atoms: C_1  and  C_2
REMARK    2  A    between atoms: C_2  and  C_3
REMARK    3  A    between atoms: C_2  and  O_4
REMARK    4  A    between atoms: C_2  and  C_13
REMARK    5  A    between atoms: O_4  and  C_5
REMARK    6  A    between atoms: C_5  and  C_7
REMARK                            x       y       z     vdW  Elec       q    Type
REMARK                         _______ _______ _______ _____ _____    ______ ____
ROOT
ATOM      1  C   UNL     1       6.041   4.728  16.932  0.00  0.00    +0.000 C 
ATOM      2  C   UNL     1       4.898   3.924  16.297  0.00  0.00    +0.000 C 
ATOM      3  C   UNL     1       4.141   3.542  17.507  0.00  0.00    +0.000 A 
ATOM      4  C   UNL     1       2.830   3.075  17.638  0.00  0.00    +0.000 A 
ATOM      5  C   UNL     1       2.384   2.782  18.930  0.00  0.00    +0.000 A 
ATOM      6  C   UNL     1       0.934   2.736  19.210  0.00  0.00    +0.000 A 
ATOM      7  C   UNL     1       0.659   3.052  20.475  0.00  0.00    +0.000 A 
ATOM      8  C   UNL     1       1.502   2.557  21.588  0.00  0.00    +0.000 A 
ATOM      9  O   UNL     1       1.008   2.214  22.662  0.00  0.00    +0.000 OA
ATOM     10  O   UNL     1       2.847   2.566  21.330  0.00  0.00    +0.000 OA
ATOM     11  C   UNL     1       3.280   2.858  20.009  0.00  0.00    +0.000 A 
ATOM     12  C   UNL     1       4.573   3.294  19.878  0.00  0.00    +0.000 A 
ATOM     13  C   UNL     1       4.972   3.692  18.606  0.00  0.00    +0.000 A 
ATOM     14  O   UNL     1       6.173   4.283  18.323  0.00  0.00    +0.000 OA
ENDROOT
BRANCH   1  16
ATOM     15  C   UNL     1       5.449   6.684  15.430  0.00  0.00    +0.000 C 
ATOM     16  C   UNL     1       5.977   6.305  16.833  0.00  0.00    +0.000 C 
ATOM     17  C   UNL     1       7.409   6.845  17.037  0.00  0.00    +0.000 C 
BRANCH  16  18
ATOM     18  O   UNL     1       5.092   6.855  17.866  0.00  0.00    +0.000 OA
BRANCH  18  19
ATOM     19  C   UNL     1       3.853   7.288  17.478  0.00  0.00    +0.000 C 
ATOM     20  O   UNL     1       3.521   7.608  16.351  0.00  0.00    +0.000 OA
BRANCH  19  21
ATOM     21  C   UNL     1       2.876   7.405  18.596  0.00  0.00    +0.000 A 
ATOM     22  C   UNL     1       2.169   8.623  18.707  0.00  0.00    +0.000 A 
ATOM     23  C   UNL     1       1.286   8.848  19.764  0.00  0.00    +0.000 A 
ATOM     24  C   UNL     1       1.098   7.855  20.720  0.00  0.00    +0.000 A 
ATOM     25  C   UNL     1       1.769   6.635  20.605  0.00  0.00    +0.000 A 
ATOM     26  C   UNL     1       2.661   6.401  19.545  0.00  0.00    +0.000 A 
ENDBRANCH  19  21
ENDBRANCH  18  19
ENDBRANCH  16  18
ENDBRANCH   1  16
TORSDOF 4
ENDMDL
MODEL 3
REMARK VINA RESULT:      -8.5      4.511      6.387
REMARK  Name = 
REMARK  6 active torsions:
REMARK  status: ('A' for Active; 'I' for Inactive)
REMARK    1  A    between atoms: C_1  and  C_2
REMARK    2  A    between atoms: C_2  and  C_3
REMARK    3  A    between atoms: C_2  and  O_4
REMARK    4  A    between atoms: C_2  and  C_13
REMARK    5  A    between atoms: O_4  and  C_5
REMARK    6  A    between atoms: C_5  and  C_7
REMARK                            x       y       z     vdW  Elec       q    Type
REMARK                         _______ _______ _______ _____ _____    ______ ____
ROOT
ATOM      1  C   UNL     1       3.021   5.425  19.372  0.00  0.00    +0.000 C 
ATOM      2  C   UNL     1       2.612   6.029  20.723  0.00  0.00    +0.000 C 
ATOM      3  C   UNL     1       1.981   7.286  20.269  0.00  0.00    +0.000 A 
ATOM      4  C   UNL     1       1.120   8.156  20.944  0.00  0.00    +0.000 A 
ATOM      5  C   UNL     1       0.685   9.289  20.250  0.00  0.00    +0.000 A 
ATOM      6  C   UNL     1      -0.540   9.989  20.689  0.00  0.00    +0.000 A 
ATOM      7  C   UNL     1      -1.153  10.603  19.677  0.00  0.00    +0.000 A 
ATOM      8  C   UNL     1      -0.382  11.331  18.642  0.00  0.00    +0.000 A 
ATOM      9  O   UNL     1      -0.792  12.388  18.163  0.00  0.00    +0.000 OA
ATOM     10  O   UNL     1       0.772  10.707  18.250  0.00  0.00    +0.000 OA
ATOM     11  C   UNL     1       1.202   9.563  18.973  0.00  0.00    +0.000 A 
ATOM     12  C   UNL     1       2.063   8.721  18.319  0.00  0.00    +0.000 A 
ATOM     13  C   UNL     1       2.400   7.540  18.972  0.00  0.00    +0.000 A 
ATOM     14  O   UNL     1       3.129   6.527  18.411  0.00  0.00    +0.000 OA
ENDROOT
BRANCH   1  16
ATOM     15  C   UNL     1       1.392   4.751  17.549  0.00  0.00    +0.000 C 
ATOM     16  C   UNL     1       2.145   4.241  18.799  0.00  0.00    +0.000 C 
ATOM     17  C   UNL     1       1.146   3.822  19.899  0.00  0.00    +0.000 C 
BRANCH  16  18
ATOM     18  O   UNL     1       2.990   3.096  18.441  0.00  0.00    +0.000 OA
BRANCH  18  19
ATOM     19  C   UNL     1       4.313   3.147  18.790  0.00  0.00    +0.000 C 
ATOM     20  O   UNL     1       4.800   2.735  19.827  0.00  0.00    +0.000 OA
BRANCH  19  21
ATOM     21  C   UNL     1       5.178   3.825  17.785  0.00  0.00    +0.000 A 
ATOM     22  C   UNL     1       4.813   3.691  16.427  0.00  0.00    +0.000 A 
ATOM     23  C   UNL     1       5.604   4.234  15.414  0.00  0.00    +0.000 A 
ATOM     24  C   UNL     1       6.767   4.920  15.749  0.00  0.00    +0.000 A 
ATOM     25  C   UNL     1       7.122   5.085  17.089  0.00  0.00    +0.000 A 
ATOM     26  C   UNL     1       6.333   4.540  18.115  0.00  0.00    +0.000 A 
ENDBRANCH  19  21
ENDBRANCH  18  19
ENDBRANCH  16  18
ENDBRANCH   1  16
TORSDOF 4
ENDMDL
MODEL 4
REMARK VINA RESULT:      -8.2      2.317      4.961
REMARK  Name = 
REMARK  6 active torsions:
REMARK  status: ('A' for Active; 'I' for Inactive)
REMARK    1  A    between atoms: C_1  and  C_2
REMARK    2  A    between atoms: C_2  and  C_3
REMARK    3  A    between atoms: C_2  and  O_4
REMARK    4  A    between atoms: C_2  and  C_13
REMARK    5  A    between atoms: O_4  and  C_5
REMARK    6  A    between atoms: C_5  and  C_7
REMARK                            x       y       z     vdW  Elec       q    Type
REMARK                         _______ _______ _______ _____ _____    ______ ____
ROOT
ATOM      1  C   UNL     1       6.057   4.875  16.700  0.00  0.00    +0.000 C 
ATOM      2  C   UNL     1       4.895   4.098  16.066  0.00  0.00    +0.000 C 
ATOM      3  C   UNL     1       4.151   3.699  17.279  0.00  0.00    +0.000 A 
ATOM      4  C   UNL     1       2.836   3.246  17.420  0.00  0.00    +0.000 A 
ATOM      5  C   UNL     1       2.406   2.931  18.713  0.00  0.00    +0.000 A 
ATOM      6  C   UNL     1       0.960   2.897  19.013  0.00  0.00    +0.000 A 
ATOM      7  C   UNL     1       0.708   3.190  20.288  0.00  0.00    +0.000 A 
ATOM      8  C   UNL     1       1.562   2.662  21.379  0.00  0.00    +0.000 A 
ATOM      9  O   UNL     1       1.079   2.302  22.453  0.00  0.00    +0.000 OA
ATOM     10  O   UNL     1       2.902   2.660  21.100  0.00  0.00    +0.000 OA
ATOM     11  C   UNL     1       3.319   2.974  19.779  0.00  0.00    +0.000 A 
ATOM     12  C   UNL     1       4.615   3.397  19.637  0.00  0.00    +0.000 A 
ATOM     13  C   UNL     1       5.000   3.817  18.368  0.00  0.00    +0.000 A 
ATOM     14  O   UNL     1       6.204   4.398  18.080  0.00  0.00    +0.000 OA
ENDROOT
BRANCH   1  16
ATOM     15  C   UNL     1       5.156   6.967  17.815  0.00  0.00    +0.000 C 
ATOM     16  C   UNL     1       6.011   6.453  16.634  0.00  0.00    +0.000 C 
ATOM     17  C   UNL     1       5.367   6.847  15.288  0.00  0.00    +0.000 C 
BRANCH  16  18
ATOM     18  O   UNL     1       7.364   7.016  16.715  0.00  0.00    +0.000 OA
BRANCH  18  19
ATOM     19  C   UNL     1       7.853   7.324  17.956  0.00  0.00    +0.000 C 
ATOM     20  O   UNL     1       7.956   6.561  18.899  0.00  0.00    +0.000 OA
BRANCH  19  21
ATOM     21  C   UNL     1       8.231   8.755  18.119  0.00  0.00    +0.000 A 
ATOM     22  C   UNL     1       9.103   9.072  19.185  0.00  0.00    +0.000 A 
ATOM     23  C   UNL     1       9.454  10.395  19.456  0.00  0.00    +0.000 A 
ATOM     24  C   UNL     1       8.941  11.414  18.661  0.00  0.00    +0.000 A 
ATOM     25  C   UNL     1       8.102  11.111  17.586  0.00  0.00    +0.000 A 
ATOM     26  C   UNL     1       7.741   9.783  17.308  0.00  0.00    +0.000 A 
ENDBRANCH  19  21
ENDBRANCH  18  19
ENDBRANCH  16  18
ENDBRANCH   1  16
TORSDOF 4
ENDMDL
MODEL 5
REMARK VINA RESULT:      -7.8      3.259      7.520
REMARK  Name = 
REMARK  6 active torsions:
REMARK  status: ('A' for Active; 'I' for Inactive)
REMARK    1  A    between atoms: C_1  and  C_2
REMARK    2  A    between atoms: C_2  and  C_3
REMARK    3  A    between atoms: C_2  and  O_4
REMARK    4  A    between atoms: C_2  and  C_13
REMARK    5  A    between atoms: O_4  and  C_5
REMARK    6  A    between atoms: C_5  and  C_7
REMARK                            x       y       z     vdW  Elec       q    Type
REMARK                         _______ _______ _______ _____ _____    ______ ____
ROOT
ATOM      1  C   UNL     1       3.518   3.968  19.333  0.00  0.00    +0.000 C 
ATOM      2  C   UNL     1       4.994   4.369  19.473  0.00  0.00    +0.000 C 
ATOM      3  C   UNL     1       5.431   4.261  18.066  0.00  0.00    +0.000 A 
ATOM      4  C   UNL     1       6.563   4.781  17.432  0.00  0.00    +0.000 A 
ATOM      5  C   UNL     1       6.718   4.501  16.071  0.00  0.00    +0.000 A 
ATOM      6  C   UNL     1       7.591   5.359  15.244  0.00  0.00    +0.000 A 
ATOM      7  C   UNL     1       7.200   5.389  13.970  0.00  0.00    +0.000 A 
ATOM      8  C   UNL     1       6.735   4.160  13.283  0.00  0.00    +0.000 A 
ATOM      9  O   UNL     1       7.014   3.942  12.104  0.00  0.00    +0.000 OA
ATOM     10  O   UNL     1       5.950   3.342  14.050  0.00  0.00    +0.000 OA
ATOM     11  C   UNL     1       5.812   3.638  15.432  0.00  0.00    +0.000 A 
ATOM     12  C   UNL     1       4.714   3.109  16.059  0.00  0.00    +0.000 A 
ATOM     13  C   UNL     1       4.507   3.486  17.382  0.00  0.00    +0.000 A 
ATOM     14  O   UNL     1       3.394   3.168  18.110  0.00  0.00    +0.000 OA
ENDROOT
BRANCH   1  16
ATOM     15  C   UNL     1       1.477   4.829  20.567  0.00  0.00    +0.000 C 
ATOM     16  C   UNL     1       2.434   5.116  19.387  0.00  0.00    +0.000 C 
ATOM     17  C   UNL     1       1.664   5.097  18.049  0.00  0.00    +0.000 C 
BRANCH  16  18
ATOM     18  O   UNL     1       3.072   6.425  19.568  0.00  0.00    +0.000 OA
BRANCH  18  19
ATOM     19  C   UNL     1       2.911   7.355  18.576  0.00  0.00    +0.000 C 
ATOM     20  O   UNL     1       3.548   7.421  17.540  0.00  0.00    +0.000 OA
BRANCH  19  21
ATOM     21  C   UNL     1       1.879   8.386  18.875  0.00  0.00    +0.000 A 
ATOM     22  C   UNL     1       1.461   8.507  20.220  0.00  0.00    +0.000 A 
ATOM     23  C   UNL     1       0.449   9.397  20.580  0.00  0.00    +0.000 A 
ATOM     24  C   UNL     1      -0.154  10.179  19.600  0.00  0.00    +0.000 A 
ATOM     25  C   UNL     1       0.271  10.090  18.272  0.00  0.00    +0.000 A 
ATOM     26  C   UNL     1       1.288   9.195  17.901  0.00  0.00    +0.000 A 
ENDBRANCH  19  21
ENDBRANCH  18  19
ENDBRANCH  16  18
ENDBRANCH   1  16
TORSDOF 4
ENDMDL
MODEL 6
REMARK VINA RESULT:      -7.7      3.222      7.442
REMARK  Name = 
REMARK  6 active torsions:
REMARK  status: ('A' for Active; 'I' for Inactive)
REMARK    1  A    between atoms: C_1  and  C_2
REMARK    2  A    between atoms: C_2  and  C_3
REMARK    3  A    between atoms: C_2  and  O_4
REMARK    4  A    between atoms: C_2  and  C_13
REMARK    5  A    between atoms: O_4  and  C_5
REMARK    6  A    between atoms: C_5  and  C_7
REMARK                            x       y       z     vdW  Elec       q    Type
REMARK                         _______ _______ _______ _____ _____    ______ ____
ROOT
ATOM      1  C   UNL     1       2.636   3.224  17.741  0.00  0.00    +0.000 C 
ATOM      2  C   UNL     1       4.038   2.600  17.774  0.00  0.00    +0.000 C 
ATOM      3  C   UNL     1       4.870   3.818  17.682  0.00  0.00    +0.000 A 
ATOM      4  C   UNL     1       6.224   4.007  17.974  0.00  0.00    +0.000 A 
ATOM      5  C   UNL     1       6.745   5.290  17.779  0.00  0.00    +0.000 A 
ATOM      6  C   UNL     1       7.987   5.687  18.473  0.00  0.00    +0.000 A 
ATOM      7  C   UNL     1       8.035   7.000  18.699  0.00  0.00    +0.000 A 
ATOM      8  C   UNL     1       7.581   7.970  17.674  0.00  0.00    +0.000 A 
ATOM      9  O   UNL     1       8.172   9.035  17.495  0.00  0.00    +0.000 OA
ATOM     10  O   UNL     1       6.448   7.598  17.002  0.00  0.00    +0.000 OA
ATOM     11  C   UNL     1       5.939   6.288  17.207  0.00  0.00    +0.000 A 
ATOM     12  C   UNL     1       4.617   6.097  16.900  0.00  0.00    +0.000 A 
ATOM     13  C   UNL     1       4.079   4.851  17.204  0.00  0.00    +0.000 A 
ATOM     14  O   UNL     1       2.752   4.536  17.097  0.00  0.00    +0.000 OA
ENDROOT
BRANCH   1  16
ATOM     15  C   UNL     1       2.800   2.949  20.258  0.00  0.00    +0.000 C 
ATOM     16  C   UNL     1       1.839   3.316  19.103  0.00  0.00    +0.000 C 
ATOM     17  C   UNL     1       0.670   2.309  19.031  0.00  0.00    +0.000 C 
BRANCH  16  18
ATOM     18  O   UNL     1       1.310   4.669  19.305  0.00  0.00    +0.000 OA
BRANCH  18  19
ATOM     19  C   UNL     1       1.904   5.451  20.259  0.00  0.00    +0.000 C 
ATOM     20  O   UNL     1       2.489   5.056  21.252  0.00  0.00    +0.000 OA
BRANCH  19  21
ATOM     21  C   UNL     1       1.743   6.913  20.030  0.00  0.00    +0.000 A 
ATOM     22  C   UNL     1       1.157   7.667  21.071  0.00  0.00    +0.000 A 
ATOM     23  C   UNL     1       0.904   9.030  20.916  0.00  0.00    +0.000 A 
ATOM     24  C   UNL     1       1.237   9.655  19.720  0.00  0.00    +0.000 A 
ATOM     25  C   UNL     1       1.843   8.927  18.693  0.00  0.00    +0.000 A 
ATOM     26  C   UNL     1       2.100   7.554  18.840  0.00  0.00    +0.000 A 
ENDBRANCH  19  21
ENDBRANCH  18  19
ENDBRANCH  16  18
ENDBRANCH   1  16
TORSDOF 4
ENDMDL
MODEL 7
REMARK VINA RESULT:      -7.6      3.129      7.497
REMARK  Name = 
REMARK  6 active torsions:
REMARK  status: ('A' for Active; 'I' for Inactive)
REMARK    1  A    between atoms: C_1  and  C_2
REMARK    2  A    between atoms: C_2  and  C_3
REMARK    3  A    between atoms: C_2  and  O_4
REMARK    4  A    between atoms: C_2  and  C_13
REMARK    5  A    between atoms: O_4  and  C_5
REMARK    6  A    between atoms: C_5  and  C_7
REMARK                            x       y       z     vdW  Elec       q    Type
REMARK                         _______ _______ _______ _____ _____    ______ ____
ROOT
ATOM      1  C   UNL     1       3.257   3.550  19.351  0.00  0.00    +0.000 C 
ATOM      2  C   UNL     1       4.724   3.920  19.608  0.00  0.00    +0.000 C 
ATOM      3  C   UNL     1       5.233   3.960  18.221  0.00  0.00    +0.000 A 
ATOM      4  C   UNL     1       6.398   4.536  17.706  0.00  0.00    +0.000 A 
ATOM      5  C   UNL     1       6.621   4.403  16.332  0.00  0.00    +0.000 A 
ATOM      6  C   UNL     1       7.538   5.337  15.647  0.00  0.00    +0.000 A 
ATOM      7  C   UNL     1       7.213   5.507  14.366  0.00  0.00    +0.000 A 
ATOM      8  C   UNL     1       6.781   4.364  13.527  0.00  0.00    +0.000 A 
ATOM      9  O   UNL     1       7.119   4.272  12.347  0.00  0.00    +0.000 OA
ATOM     10  O   UNL     1       5.954   3.475  14.161  0.00  0.00    +0.000 OA
ATOM     11  C   UNL     1       5.746   3.622  15.558  0.00  0.00    +0.000 A 
ATOM     12  C   UNL     1       4.616   3.038  16.068  0.00  0.00    +0.000 A 
ATOM     13  C   UNL     1       4.343   3.272  17.412  0.00  0.00    +0.000 A 
ATOM     14  O   UNL     1       3.192   2.888  18.044  0.00  0.00    +0.000 OA
ENDROOT
BRANCH   1  16
ATOM     15  C   UNL     1       1.171   4.303  20.582  0.00  0.00    +0.000 C 
ATOM     16  C   UNL     1       2.175   4.696  19.474  0.00  0.00    +0.000 C 
ATOM     17  C   UNL     1       1.459   4.812  18.111  0.00  0.00    +0.000 C 
BRANCH  16  18
ATOM     18  O   UNL     1       2.810   5.976  19.806  0.00  0.00    +0.000 OA
BRANCH  18  19
ATOM     19  C   UNL     1       2.829   6.947  18.841  0.00  0.00    +0.000 C 
ATOM     20  O   UNL     1       3.526   6.956  17.843  0.00  0.00    +0.000 OA
BRANCH  19  21
ATOM     21  C   UNL     1       1.927   8.098  19.123  0.00  0.00    +0.000 A 
ATOM     22  C   UNL     1       1.624   8.957  18.044  0.00  0.00    +0.000 A 
ATOM     23  C   UNL     1       0.845  10.099  18.231  0.00  0.00    +0.000 A 
ATOM     24  C   UNL     1       0.357  10.392  19.500  0.00  0.00    +0.000 A 
ATOM     25  C   UNL     1       0.625   9.535  20.570  0.00  0.00    +0.000 A 
ATOM     26  C   UNL     1       1.410   8.384  20.390  0.00  0.00    +0.000 A 
ENDBRANCH  19  21
ENDBRANCH  18  19
ENDBRANCH  16  18
ENDBRANCH   1  16
TORSDOF 4
ENDMDL
MODEL 8
REMARK VINA RESULT:      -7.6      3.283      7.368
REMARK  Name = 
REMARK  6 active torsions:
REMARK  status: ('A' for Active; 'I' for Inactive)
REMARK    1  A    between atoms: C_1  and  C_2
REMARK    2  A    between atoms: C_2  and  C_3
REMARK    3  A    between atoms: C_2  and  O_4
REMARK    4  A    between atoms: C_2  and  C_13
REMARK    5  A    between atoms: O_4  and  C_5
REMARK    6  A    between atoms: C_5  and  C_7
REMARK                            x       y       z     vdW  Elec       q    Type
REMARK                         _______ _______ _______ _____ _____    ______ ____
ROOT
ATOM      1  C   UNL     1       2.857   3.381  17.691  0.00  0.00    +0.000 C 
ATOM      2  C   UNL     1       4.264   2.782  17.825  0.00  0.00    +0.000 C 
ATOM      3  C   UNL     1       5.083   4.008  17.722  0.00  0.00    +0.000 A 
ATOM      4  C   UNL     1       6.417   4.231  18.076  0.00  0.00    +0.000 A 
ATOM      5  C   UNL     1       6.931   5.512  17.851  0.00  0.00    +0.000 A 
ATOM      6  C   UNL     1       8.129   5.959  18.591  0.00  0.00    +0.000 A 
ATOM      7  C   UNL     1       8.147   7.281  18.759  0.00  0.00    +0.000 A 
ATOM      8  C   UNL     1       7.736   8.197  17.669  0.00  0.00    +0.000 A 
ATOM      9  O   UNL     1       8.321   9.262  17.473  0.00  0.00    +0.000 OA
ATOM     10  O   UNL     1       6.645   7.778  16.955  0.00  0.00    +0.000 OA
ATOM     11  C   UNL     1       6.143   6.471  17.192  0.00  0.00    +0.000 A 
ATOM     12  C   UNL     1       4.842   6.245  16.825  0.00  0.00    +0.000 A 
ATOM     13  C   UNL     1       4.305   5.005  17.157  0.00  0.00    +0.000 A 
ATOM     14  O   UNL     1       2.990   4.665  16.994  0.00  0.00    +0.000 OA
ENDROOT
BRANCH   1  16
ATOM     15  C   UNL     1       2.863   3.124  20.214  0.00  0.00    +0.000 C 
ATOM     16  C   UNL     1       1.988   3.522  19.003  0.00  0.00    +0.000 C 
ATOM     17  C   UNL     1       0.782   2.567  18.870  0.00  0.00    +0.000 C 
BRANCH  16  18
ATOM     18  O   UNL     1       1.508   4.899  19.164  0.00  0.00    +0.000 OA
BRANCH  18  19
ATOM     19  C   UNL     1       2.360   5.808  19.733  0.00  0.00    +0.000 C 
ATOM     20  O   UNL     1       3.392   5.554  20.326  0.00  0.00    +0.000 OA
BRANCH  19  21
ATOM     21  C   UNL     1       1.898   7.219  19.625  0.00  0.00    +0.000 A 
ATOM     22  C   UNL     1       2.074   7.861  18.379  0.00  0.00    +0.000 A 
ATOM     23  C   UNL     1       1.735   9.203  18.208  0.00  0.00    +0.000 A 
ATOM     24  C   UNL     1       1.213   9.918  19.280  0.00  0.00    +0.000 A 
ATOM     25  C   UNL     1       1.006   9.287  20.509  0.00  0.00    +0.000 A 
ATOM     26  C   UNL     1       1.346   7.937  20.691  0.00  0.00    +0.000 A 
ENDBRANCH  19  21
ENDBRANCH  18  19
ENDBRANCH  16  18
ENDBRANCH   1  16
TORSDOF 4
ENDMDL
MODEL 9
REMARK VINA RESULT:      -7.6      1.731      2.553
REMARK  Name = 
REMARK  6 active torsions:
REMARK  status: ('A' for Active; 'I' for Inactive)
REMARK    1  A    between atoms: C_1  and  C_2
REMARK    2  A    between atoms: C_2  and  C_3
REMARK    3  A    between atoms: C_2  and  O_4
REMARK    4  A    between atoms: C_2  and  C_13
REMARK    5  A    between atoms: O_4  and  C_5
REMARK    6  A    between atoms: C_5  and  C_7
REMARK                            x       y       z     vdW  Elec       q    Type
REMARK                         _______ _______ _______ _____ _____    ______ ____
ROOT
ATOM      1  C   UNL     1       5.281   6.919  16.603  0.00  0.00    +0.000 C 
ATOM      2  C   UNL     1       4.280   7.700  17.466  0.00  0.00    +0.000 C 
ATOM      3  C   UNL     1       3.586   6.583  18.140  0.00  0.00    +0.000 A 
ATOM      4  C   UNL     1       2.782   6.582  19.284  0.00  0.00    +0.000 A 
ATOM      5  C   UNL     1       2.246   5.355  19.685  0.00  0.00    +0.000 A 
ATOM      6  C   UNL     1       1.794   5.176  21.080  0.00  0.00    +0.000 A 
ATOM      7  C   UNL     1       1.890   3.908  21.478  0.00  0.00    +0.000 A 
ATOM      8  C   UNL     1       1.516   2.792  20.576  0.00  0.00    +0.000 A 
ATOM      9  O   UNL     1       0.943   1.790  21.002  0.00  0.00    +0.000 OA
ATOM     10  O   UNL     1       1.903   2.961  19.273  0.00  0.00    +0.000 OA
ATOM     11  C   UNL     1       2.437   4.217  18.883  0.00  0.00    +0.000 A 
ATOM     12  C   UNL     1       3.206   4.223  17.749  0.00  0.00    +0.000 A 
ATOM     13  C   UNL     1       3.829   5.423  17.421  0.00  0.00    +0.000 A 
ATOM     14  O   UNL     1       4.739   5.570  16.411  0.00  0.00    +0.000 OA
ENDROOT
BRANCH   1  16
ATOM     15  C   UNL     1       6.878   5.971  18.331  0.00  0.00    +0.000 C 
ATOM     16  C   UNL     1       6.788   6.875  17.080  0.00  0.00    +0.000 C 
ATOM     17  C   UNL     1       7.212   8.319  17.424  0.00  0.00    +0.000 C 
BRANCH  16  18
ATOM     18  O   UNL     1       7.653   6.348  16.019  0.00  0.00    +0.000 OA
BRANCH  18  19
ATOM     19  C   UNL     1       7.588   5.007  15.751  0.00  0.00    +0.000 C 
ATOM     20  O   UNL     1       7.856   4.104  16.523  0.00  0.00    +0.000 OA
BRANCH  19  21
ATOM     21  C   UNL     1       7.194   4.688  14.351  0.00  0.00    +0.000 A 
ATOM     22  C   UNL     1       6.124   3.782  14.174  0.00  0.00    +0.000 A 
ATOM     23  C   UNL     1       5.733   3.373  12.899  0.00  0.00    +0.000 A 
ATOM     24  C   UNL     1       6.405   3.867  11.786  0.00  0.00    +0.000 A 
ATOM     25  C   UNL     1       7.445   4.786  11.946  0.00  0.00    +0.000 A 
ATOM     26  C   UNL     1       7.847   5.202  13.226  0.00  0.00    +0.000 A 
ENDBRANCH  19  21
ENDBRANCH  18  19
ENDBRANCH  16  18
ENDBRANCH   1  16
TORSDOF 4
ENDMDL
