MODEL 1
REMARK VINA RESULT:      -8.5      0.000      0.000
REMARK  Name = 
REMARK  5 active torsions:
REMARK  status: ('A' for Active; 'I' for Inactive)
REMARK    1  A    between atoms: C_2  and  C_15
REMARK    2  A    between atoms: N_3  and  N_4
REMARK    3  A    between atoms: C_12  and  O_13
REMARK    4  A    between atoms: C_19  and  C_20
REMARK    5  A    between atoms: N_22  and  C_23
REMARK                            x       y       z     vdW  Elec       q    Type
REMARK                         _______ _______ _______ _____ _____    ______ ____
ROOT
ATOM      1  O   UNL     1       1.350   8.977  19.109  0.00  0.00    +0.000 OA
ATOM      2  C   UNL     1       1.213   8.571  20.263  0.00  0.00    +0.000 C 
ATOM      3  N   UNL     1       1.707   7.377  20.768  0.00  0.00    +0.000 N 
ATOM      4  H   UNL     1       1.469   7.034  21.693  0.00  0.00    +0.000 HD
ENDROOT
BRANCH   3   5
ATOM      5  N   UNL     1       2.393   6.587  19.914  0.00  0.00    +0.000 NA
ATOM      6  C   UNL     1       2.106   5.338  19.764  0.00  0.00    +0.000 C 
ATOM      7  C   UNL     1       1.044   4.524  20.456  0.00  0.00    +0.000 C 
ATOM      8  C   UNL     1       1.214   3.095  19.906  0.00  0.00    +0.000 C 
ATOM      9  C   UNL     1       2.337   3.201  18.926  0.00  0.00    +0.000 A 
ATOM     10  C   UNL     1       2.885   2.189  18.150  0.00  0.00    +0.000 A 
ATOM     11  C   UNL     1       3.945   2.498  17.287  0.00  0.00    +0.000 A 
ATOM     12  C   UNL     1       4.445   3.807  17.200  0.00  0.00    +0.000 A 
ATOM     13  C   UNL     1       3.889   4.817  17.981  0.00  0.00    +0.000 A 
ATOM     14  C   UNL     1       2.847   4.492  18.835  0.00  0.00    +0.000 A 
BRANCH  13  15
ATOM     15  O   UNL     1       4.360   6.090  17.903  0.00  0.00    +0.000 OA
ATOM     16  H   UNL     1       3.933   6.568  17.182  0.00  0.00    +0.000 HD
ENDBRANCH  13  15
ENDBRANCH   3   5
BRANCH   2  17
ATOM     17  C   UNL     1       0.424   9.411  21.191  0.00  0.00    +0.000 A 
ATOM     18  C   UNL     1       0.394   9.165  22.569  0.00  0.00    +0.000 A 
ATOM     19  C   UNL     1      -0.343  10.006  23.399  0.00  0.00    +0.000 A 
ATOM     20  C   UNL     1      -1.062  11.074  22.854  0.00  0.00    +0.000 A 
ATOM     21  C   UNL     1      -1.042  11.320  21.474  0.00  0.00    +0.000 A 
ATOM     22  C   UNL     1      -0.282  10.496  20.644  0.00  0.00    +0.000 A 
BRANCH  21  23
ATOM     23  C   UNL     1      -1.921  12.396  20.937  0.00  0.00    +0.000 C 
ATOM     24  O   UNL     1      -1.496  13.112  20.035  0.00  0.00    +0.000 OA
ATOM     25  N   UNL     1      -3.178  12.535  21.490  0.00  0.00    +0.000 N 
ATOM     26  H   UNL     1      -3.463  11.927  22.246  0.00  0.00    +0.000 HD
BRANCH  25  27
ATOM     27  C   UNL     1      -4.039  13.666  21.143  0.00  0.00    +0.000 C 
ATOM     28  C   UNL     1      -5.107  13.274  20.114  0.00  0.00    +0.000 C 
ATOM     29  C   UNL     1      -6.177  12.349  20.692  0.00  0.00    +0.000 C 
ATOM     30  C   UNL     1      -6.796  12.912  21.968  0.00  0.00    +0.000 C 
ATOM     31  C   UNL     1      -5.741  13.317  22.995  0.00  0.00    +0.000 C 
ATOM     32  C   UNL     1      -4.700  14.260  22.394  0.00  0.00    +0.000 C 
ENDBRANCH  25  27
ENDBRANCH  21  23
ENDBRANCH   2  17
TORSDOF 5
ENDMDL
MODEL 2
REMARK VINA RESULT:      -8.4      2.557      3.146
REMARK  Name = 
REMARK  5 active torsions:
REMARK  status: ('A' for Active; 'I' for Inactive)
REMARK    1  A    between atoms: C_2  and  C_15
REMARK    2  A    between atoms: N_3  and  N_4
REMARK    3  A    between atoms: C_12  and  O_13
REMARK    4  A    between atoms: C_19  and  C_20
REMARK    5  A    between atoms: N_22  and  C_23
REMARK                            x       y       z     vdW  Elec       q    Type
REMARK                         _______ _______ _______ _____ _____    ______ ____
ROOT
ATOM      1  O   UNL     1       2.349  10.151  17.365  0.00  0.00    +0.000 OA
ATOM      2  C   UNL     1       1.712   9.548  18.229  0.00  0.00    +0.000 C 
ATOM      3  N   UNL     1       2.002   8.282  18.716  0.00  0.00    +0.000 N 
ATOM      4  H   UNL     1       1.380   7.782  19.344  0.00  0.00    +0.000 HD
ENDROOT
BRANCH   3   5
ATOM      5  N   UNL     1       3.074   7.652  18.190  0.00  0.00    +0.000 NA
ATOM      6  C   UNL     1       3.049   6.395  17.897  0.00  0.00    +0.000 C 
ATOM      7  C   UNL     1       1.924   5.408  18.074  0.00  0.00    +0.000 C 
ATOM      8  C   UNL     1       2.498   4.060  17.597  0.00  0.00    +0.000 C 
ATOM      9  C   UNL     1       3.891   4.379  17.158  0.00  0.00    +0.000 A 
ATOM     10  C   UNL     1       4.838   3.507  16.641  0.00  0.00    +0.000 A 
ATOM     11  C   UNL     1       6.099   4.009  16.291  0.00  0.00    +0.000 A 
ATOM     12  C   UNL     1       6.403   5.369  16.454  0.00  0.00    +0.000 A 
ATOM     13  C   UNL     1       5.447   6.238  16.974  0.00  0.00    +0.000 A 
ATOM     14  C   UNL     1       4.208   5.724  17.322  0.00  0.00    +0.000 A 
BRANCH  13  15
ATOM     15  O   UNL     1       5.726   7.559  17.133  0.00  0.00    +0.000 OA
ATOM     16  H   UNL     1       5.901   7.761  18.061  0.00  0.00    +0.000 HD
ENDBRANCH  13  15
ENDBRANCH   3   5
BRANCH   2  17
ATOM     17  C   UNL     1       0.510  10.214  18.778  0.00  0.00    +0.000 A 
ATOM     18  C   UNL     1       0.553  10.966  19.958  0.00  0.00    +0.000 A 
ATOM     19  C   UNL     1      -0.603  11.596  20.412  0.00  0.00    +0.000 A 
ATOM     20  C   UNL     1      -1.800  11.458  19.703  0.00  0.00    +0.000 A 
ATOM     21  C   UNL     1      -1.852  10.700  18.525  0.00  0.00    +0.000 A 
ATOM     22  C   UNL     1      -0.688  10.091  18.052  0.00  0.00    +0.000 A 
BRANCH  21  23
ATOM     23  C   UNL     1      -3.177  10.489  17.879  0.00  0.00    +0.000 C 
ATOM     24  O   UNL     1      -3.263   9.688  16.952  0.00  0.00    +0.000 OA
ATOM     25  N   UNL     1      -4.248  11.214  18.359  0.00  0.00    +0.000 N 
ATOM     26  H   UNL     1      -4.110  11.875  19.112  0.00  0.00    +0.000 HD
BRANCH  25  27
ATOM     27  C   UNL     1      -5.543  11.197  17.677  0.00  0.00    +0.000 C 
ATOM     28  C   UNL     1      -6.629  10.532  18.533  0.00  0.00    +0.000 C 
ATOM     29  C   UNL     1      -7.027  11.373  19.746  0.00  0.00    +0.000 C 
ATOM     30  C   UNL     1      -7.402  12.801  19.357  0.00  0.00    +0.000 C 
ATOM     31  C   UNL     1      -6.334  13.468  18.494  0.00  0.00    +0.000 C 
ATOM     32  C   UNL     1      -5.975  12.615  17.278  0.00  0.00    +0.000 C 
ENDBRANCH  25  27
ENDBRANCH  21  23
ENDBRANCH   2  17
TORSDOF 5
ENDMDL
MODEL 3
REMARK VINA RESULT:      -8.4      7.268     11.167
REMARK  Name = 
REMARK  5 active torsions:
REMARK  status: ('A' for Active; 'I' for Inactive)
REMARK    1  A    between atoms: C_2  and  C_15
REMARK    2  A    between atoms: N_3  and  N_4
REMARK    3  A    between atoms: C_12  and  O_13
REMARK    4  A    between atoms: C_19  and  C_20
REMARK    5  A    between atoms: N_22  and  C_23
REMARK                            x       y       z     vdW  Elec       q    Type
REMARK                         _______ _______ _______ _____ _____    ______ ____
ROOT
ATOM      1  O   UNL     1       7.325   9.528  17.077  0.00  0.00    +0.000 OA
ATOM      2  C   UNL     1       7.948   8.936  17.957  0.00  0.00    +0.000 C 
ATOM      3  N   UNL     1       8.959   9.474  18.739  0.00  0.00    +0.000 N 
ATOM      4  H   UNL     1       9.521   8.912  19.371  0.00  0.00    +0.000 HD
ENDROOT
BRANCH   3   5
ATOM      5  N   UNL     1       9.294  10.762  18.509  0.00  0.00    +0.000 NA
ATOM      6  C   UNL     1       9.522  11.589  19.473  0.00  0.00    +0.000 C 
ATOM      7  C   UNL     1       9.457  11.345  20.958  0.00  0.00    +0.000 C 
ATOM      8  C   UNL     1       9.778  12.709  21.600  0.00  0.00    +0.000 C 
ATOM      9  C   UNL     1      10.028  13.620  20.442  0.00  0.00    +0.000 A 
ATOM     10  C   UNL     1      10.359  14.967  20.477  0.00  0.00    +0.000 A 
ATOM     11  C   UNL     1      10.550  15.648  19.268  0.00  0.00    +0.000 A 
ATOM     12  C   UNL     1      10.415  14.985  18.038  0.00  0.00    +0.000 A 
ATOM     13  C   UNL     1      10.083  13.633  18.011  0.00  0.00    +0.000 A 
ATOM     14  C   UNL     1       9.890  12.976  19.216  0.00  0.00    +0.000 A 
BRANCH  13  15
ATOM     15  O   UNL     1       9.953  12.975  16.828  0.00  0.00    +0.000 OA
ATOM     16  H   UNL     1       9.022  12.872  16.595  0.00  0.00    +0.000 HD
ENDBRANCH  13  15
ENDBRANCH   3   5
BRANCH   2  17
ATOM     17  C   UNL     1       7.618   7.511  18.184  0.00  0.00    +0.000 A 
ATOM     18  C   UNL     1       8.420   6.681  18.976  0.00  0.00    +0.000 A 
ATOM     19  C   UNL     1       8.044   5.356  19.180  0.00  0.00    +0.000 A 
ATOM     20  C   UNL     1       6.886   4.856  18.578  0.00  0.00    +0.000 A 
ATOM     21  C   UNL     1       6.082   5.680  17.778  0.00  0.00    +0.000 A 
ATOM     22  C   UNL     1       6.441   7.016  17.596  0.00  0.00    +0.000 A 
BRANCH  21  23
ATOM     23  C   UNL     1       4.927   5.063  17.067  0.00  0.00    +0.000 C 
ATOM     24  O   UNL     1       4.742   5.343  15.886  0.00  0.00    +0.000 OA
ATOM     25  N   UNL     1       4.118   4.204  17.781  0.00  0.00    +0.000 N 
ATOM     26  H   UNL     1       4.310   4.029  18.758  0.00  0.00    +0.000 HD
BRANCH  25  27
ATOM     27  C   UNL     1       2.870   3.689  17.214  0.00  0.00    +0.000 C 
ATOM     28  C   UNL     1       2.673   2.201  17.531  0.00  0.00    +0.000 C 
ATOM     29  C   UNL     1       2.370   1.944  19.007  0.00  0.00    +0.000 C 
ATOM     30  C   UNL     1       1.207   2.793  19.512  0.00  0.00    +0.000 C 
ATOM     31  C   UNL     1       1.387   4.275  19.190  0.00  0.00    +0.000 C 
ATOM     32  C   UNL     1       1.665   4.502  17.705  0.00  0.00    +0.000 C 
ENDBRANCH  25  27
ENDBRANCH  21  23
ENDBRANCH   2  17
TORSDOF 5
ENDMDL
MODEL 4
REMARK VINA RESULT:      -8.3      2.403      2.837
REMARK  Name = 
REMARK  5 active torsions:
REMARK  status: ('A' for Active; 'I' for Inactive)
REMARK    1  A    between atoms: C_2  and  C_15
REMARK    2  A    between atoms: N_3  and  N_4
REMARK    3  A    between atoms: C_12  and  O_13
REMARK    4  A    between atoms: C_19  and  C_20
REMARK    5  A    between atoms: N_22  and  C_23
REMARK                            x       y       z     vdW  Elec       q    Type
REMARK                         _______ _______ _______ _____ _____    ______ ____
ROOT
ATOM      1  O   UNL     1       1.773   9.308  17.410  0.00  0.00    +0.000 OA
ATOM      2  C   UNL     1       1.274   9.327  18.535  0.00  0.00    +0.000 C 
ATOM      3  N   UNL     1       1.560   8.444  19.566  0.00  0.00    +0.000 N 
ATOM      4  H   UNL     1       1.037   8.431  20.436  0.00  0.00    +0.000 HD
ENDROOT
BRANCH   3   5
ATOM      5  N   UNL     1       2.460   7.471  19.309  0.00  0.00    +0.000 NA
ATOM      6  C   UNL     1       2.315   6.272  19.763  0.00  0.00    +0.000 C 
ATOM      7  C   UNL     1       1.213   5.720  20.630  0.00  0.00    +0.000 C 
ATOM      8  C   UNL     1       1.607   4.252  20.887  0.00  0.00    +0.000 C 
ATOM      9  C   UNL     1       2.882   4.067  20.130  0.00  0.00    +0.000 A 
ATOM     10  C   UNL     1       3.652   2.916  20.033  0.00  0.00    +0.000 A 
ATOM     11  C   UNL     1       4.826   2.952  19.270  0.00  0.00    +0.000 A 
ATOM     12  C   UNL     1       5.220   4.125  18.608  0.00  0.00    +0.000 A 
ATOM     13  C   UNL     1       4.442   5.275  18.709  0.00  0.00    +0.000 A 
ATOM     14  C   UNL     1       3.288   5.225  19.475  0.00  0.00    +0.000 A 
BRANCH  13  15
ATOM     15  O   UNL     1       4.808   6.418  18.070  0.00  0.00    +0.000 OA
ATOM     16  H   UNL     1       5.456   6.908  18.591  0.00  0.00    +0.000 HD
ENDBRANCH  13  15
ENDBRANCH   3   5
BRANCH   2  17
ATOM     17  C   UNL     1       0.253  10.363  18.809  0.00  0.00    +0.000 A 
ATOM     18  C   UNL     1       0.446  11.355  19.778  0.00  0.00    +0.000 A 
ATOM     19  C   UNL     1      -0.538  12.322  19.973  0.00  0.00    +0.000 A 
ATOM     20  C   UNL     1      -1.714  12.287  19.219  0.00  0.00    +0.000 A 
ATOM     21  C   UNL     1      -1.916  11.292  18.252  0.00  0.00    +0.000 A 
ATOM     22  C   UNL     1      -0.920  10.339  18.035  0.00  0.00    +0.000 A 
BRANCH  21  23
ATOM     23  C   UNL     1      -3.236  11.233  17.565  0.00  0.00    +0.000 C 
ATOM     24  O   UNL     1      -3.262  11.142  16.341  0.00  0.00    +0.000 OA
ATOM     25  N   UNL     1      -4.370  11.288  18.348  0.00  0.00    +0.000 N 
ATOM     26  H   UNL     1      -4.284  11.385  19.351  0.00  0.00    +0.000 HD
BRANCH  25  27
ATOM     27  C   UNL     1      -5.701  11.408  17.749  0.00  0.00    +0.000 C 
ATOM     28  C   UNL     1      -6.758  10.644  18.556  0.00  0.00    +0.000 C 
ATOM     29  C   UNL     1      -7.062  11.296  19.904  0.00  0.00    +0.000 C 
ATOM     30  C   UNL     1      -7.412  12.775  19.762  0.00  0.00    +0.000 C 
ATOM     31  C   UNL     1      -6.372  13.542  18.950  0.00  0.00    +0.000 C 
ATOM     32  C   UNL     1      -6.108  12.880  17.599  0.00  0.00    +0.000 C 
ENDBRANCH  25  27
ENDBRANCH  21  23
ENDBRANCH   2  17
TORSDOF 5
ENDMDL
MODEL 5
REMARK VINA RESULT:      -8.2      6.617     10.478
REMARK  Name = 
REMARK  5 active torsions:
REMARK  status: ('A' for Active; 'I' for Inactive)
REMARK    1  A    between atoms: C_2  and  C_15
REMARK    2  A    between atoms: N_3  and  N_4
REMARK    3  A    between atoms: C_12  and  O_13
REMARK    4  A    between atoms: C_19  and  C_20
REMARK    5  A    between atoms: N_22  and  C_23
REMARK                            x       y       z     vdW  Elec       q    Type
REMARK                         _______ _______ _______ _____ _____    ______ ____
ROOT
ATOM      1  O   UNL     1       8.521   7.096  18.909  0.00  0.00    +0.000 OA
ATOM      2  C   UNL     1       7.789   7.596  18.055  0.00  0.00    +0.000 C 
ATOM      3  N   UNL     1       7.754   8.935  17.697  0.00  0.00    +0.000 N 
ATOM      4  H   UNL     1       7.053   9.316  17.070  0.00  0.00    +0.000 HD
ENDROOT
BRANCH   3   5
ATOM      5  N   UNL     1       8.593   9.767  18.350  0.00  0.00    +0.000 NA
ATOM      6  C   UNL     1       8.584  11.041  18.146  0.00  0.00    +0.000 C 
ATOM      7  C   UNL     1       7.724  11.838  17.200  0.00  0.00    +0.000 C 
ATOM      8  C   UNL     1       8.199  13.295  17.360  0.00  0.00    +0.000 C 
ATOM      9  C   UNL     1       9.271  13.229  18.400  0.00  0.00    +0.000 A 
ATOM     10  C   UNL     1      10.024  14.276  18.911  0.00  0.00    +0.000 A 
ATOM     11  C   UNL     1      10.990  14.001  19.887  0.00  0.00    +0.000 A 
ATOM     12  C   UNL     1      11.195  12.691  20.349  0.00  0.00    +0.000 A 
ATOM     13  C   UNL     1      10.434  11.645  19.832  0.00  0.00    +0.000 A 
ATOM     14  C   UNL     1       9.488  11.934  18.861  0.00  0.00    +0.000 A 
BRANCH  13  15
ATOM     15  O   UNL     1      10.618  10.372  20.272  0.00  0.00    +0.000 OA
ATOM     16  H   UNL     1      10.646   9.755  19.531  0.00  0.00    +0.000 HD
ENDBRANCH  13  15
ENDBRANCH   3   5
BRANCH   2  17
ATOM     17  C   UNL     1       6.835   6.697  17.367  0.00  0.00    +0.000 A 
ATOM     18  C   UNL     1       7.184   5.993  16.209  0.00  0.00    +0.000 A 
ATOM     19  C   UNL     1       6.254   5.138  15.620  0.00  0.00    +0.000 A 
ATOM     20  C   UNL     1       4.978   5.004  16.173  0.00  0.00    +0.000 A 
ATOM     21  C   UNL     1       4.620   5.713  17.329  0.00  0.00    +0.000 A 
ATOM     22  C   UNL     1       5.558   6.548  17.937  0.00  0.00    +0.000 A 
BRANCH  21  23
ATOM     23  C   UNL     1       3.211   5.623  17.803  0.00  0.00    +0.000 C 
ATOM     24  O   UNL     1       2.518   6.637  17.795  0.00  0.00    +0.000 OA
ATOM     25  N   UNL     1       2.754   4.394  18.233  0.00  0.00    +0.000 N 
ATOM     26  H   UNL     1       3.379   3.600  18.234  0.00  0.00    +0.000 HD
BRANCH  25  27
ATOM     27  C   UNL     1       1.445   4.251  18.871  0.00  0.00    +0.000 C 
ATOM     28  C   UNL     1       1.004   2.784  18.943  0.00  0.00    +0.000 C 
ATOM     29  C   UNL     1       1.827   1.965  19.938  0.00  0.00    +0.000 C 
ATOM     30  C   UNL     1       1.873   2.615  21.318  0.00  0.00    +0.000 C 
ATOM     31  C   UNL     1       2.299   4.080  21.256  0.00  0.00    +0.000 C 
ATOM     32  C   UNL     1       1.443   4.877  20.273  0.00  0.00    +0.000 C 
ENDBRANCH  25  27
ENDBRANCH  21  23
ENDBRANCH   2  17
TORSDOF 5
ENDMDL
MODEL 6
REMARK VINA RESULT:      -8.2      2.587      3.915
REMARK  Name = 
REMARK  5 active torsions:
REMARK  status: ('A' for Active; 'I' for Inactive)
REMARK    1  A    between atoms: C_2  and  C_15
REMARK    2  A    between atoms: N_3  and  N_4
REMARK    3  A    between atoms: C_12  and  O_13
REMARK    4  A    between atoms: C_19  and  C_20
REMARK    5  A    between atoms: N_22  and  C_23
REMARK                            x       y       z     vdW  Elec       q    Type
REMARK                         _______ _______ _______ _____ _____    ______ ____
ROOT
ATOM      1  O   UNL     1       1.418   8.933  19.033  0.00  0.00    +0.000 OA
ATOM      2  C   UNL     1       1.301   8.590  20.209  0.00  0.00    +0.000 C 
ATOM      3  N   UNL     1       1.778   7.410  20.761  0.00  0.00    +0.000 N 
ATOM      4  H   UNL     1       1.556   7.121  21.708  0.00  0.00    +0.000 HD
ENDROOT
BRANCH   3   5
ATOM      5  N   UNL     1       2.420   6.560  19.932  0.00  0.00    +0.000 NA
ATOM      6  C   UNL     1       2.086   5.316  19.841  0.00  0.00    +0.000 C 
ATOM      7  C   UNL     1       1.008   4.573  20.585  0.00  0.00    +0.000 C 
ATOM      8  C   UNL     1       1.117   3.116  20.095  0.00  0.00    +0.000 C 
ATOM      9  C   UNL     1       2.226   3.139  19.093  0.00  0.00    +0.000 A 
ATOM     10  C   UNL     1       2.724   2.075  18.354  0.00  0.00    +0.000 A 
ATOM     11  C   UNL     1       3.779   2.308  17.462  0.00  0.00    +0.000 A 
ATOM     12  C   UNL     1       4.324   3.592  17.309  0.00  0.00    +0.000 A 
ATOM     13  C   UNL     1       3.818   4.655  18.054  0.00  0.00    +0.000 A 
ATOM     14  C   UNL     1       2.780   4.406  18.938  0.00  0.00    +0.000 A 
BRANCH  13  15
ATOM     15  O   UNL     1       4.333   5.905  17.914  0.00  0.00    +0.000 OA
ATOM     16  H   UNL     1       5.296   5.874  17.866  0.00  0.00    +0.000 HD
ENDBRANCH  13  15
ENDBRANCH   3   5
BRANCH   2  17
ATOM     17  C   UNL     1       0.559   9.497  21.112  0.00  0.00    +0.000 A 
ATOM     18  C   UNL     1      -0.034   9.041  22.296  0.00  0.00    +0.000 A 
ATOM     19  C   UNL     1      -0.695   9.945  23.124  0.00  0.00    +0.000 A 
ATOM     20  C   UNL     1      -0.782  11.292  22.761  0.00  0.00    +0.000 A 
ATOM     21  C   UNL     1      -0.198  11.753  21.573  0.00  0.00    +0.000 A 
ATOM     22  C   UNL     1       0.490  10.855  20.756  0.00  0.00    +0.000 A 
BRANCH  21  23
ATOM     23  C   UNL     1      -0.426  13.171  21.178  0.00  0.00    +0.000 C 
ATOM     24  O   UNL     1      -1.576  13.554  20.983  0.00  0.00    +0.000 OA
ATOM     25  N   UNL     1       0.679  13.988  21.049  0.00  0.00    +0.000 N 
ATOM     26  H   UNL     1       1.604  13.609  21.203  0.00  0.00    +0.000 HD
BRANCH  25  27
ATOM     27  C   UNL     1       0.563  15.341  20.504  0.00  0.00    +0.000 C 
ATOM     28  C   UNL     1       1.577  16.300  21.141  0.00  0.00    +0.000 C 
ATOM     29  C   UNL     1       3.017  16.011  20.716  0.00  0.00    +0.000 C 
ATOM     30  C   UNL     1       3.167  15.949  19.198  0.00  0.00    +0.000 C 
ATOM     31  C   UNL     1       2.154  15.007  18.552  0.00  0.00    +0.000 C 
ATOM     32  C   UNL     1       0.723  15.336  18.977  0.00  0.00    +0.000 C 
ENDBRANCH  25  27
ENDBRANCH  21  23
ENDBRANCH   2  17
TORSDOF 5
ENDMDL
MODEL 7
REMARK VINA RESULT:      -8.2      0.935      1.183
REMARK  Name = 
REMARK  5 active torsions:
REMARK  status: ('A' for Active; 'I' for Inactive)
REMARK    1  A    between atoms: C_2  and  C_15
REMARK    2  A    between atoms: N_3  and  N_4
REMARK    3  A    between atoms: C_12  and  O_13
REMARK    4  A    between atoms: C_19  and  C_20
REMARK    5  A    between atoms: N_22  and  C_23
REMARK                            x       y       z     vdW  Elec       q    Type
REMARK                         _______ _______ _______ _____ _____    ______ ____
ROOT
ATOM      1  O   UNL     1       1.108   9.337  18.965  0.00  0.00    +0.000 OA
ATOM      2  C   UNL     1       1.013   8.959  20.132  0.00  0.00    +0.000 C 
ATOM      3  N   UNL     1       1.609   7.828  20.670  0.00  0.00    +0.000 N 
ATOM      4  H   UNL     1       1.407   7.497  21.608  0.00  0.00    +0.000 HD
ENDROOT
BRANCH   3   5
ATOM      5  N   UNL     1       2.353   7.070  19.836  0.00  0.00    +0.000 NA
ATOM      6  C   UNL     1       2.178   5.796  19.737  0.00  0.00    +0.000 C 
ATOM      7  C   UNL     1       1.202   4.918  20.475  0.00  0.00    +0.000 C 
ATOM      8  C   UNL     1       1.494   3.489  19.977  0.00  0.00    +0.000 C 
ATOM      9  C   UNL     1       2.590   3.658  18.975  0.00  0.00    +0.000 A 
ATOM     10  C   UNL     1       3.218   2.670  18.230  0.00  0.00    +0.000 A 
ATOM     11  C   UNL     1       4.235   3.039  17.339  0.00  0.00    +0.000 A 
ATOM     12  C   UNL     1       4.614   4.383  17.196  0.00  0.00    +0.000 A 
ATOM     13  C   UNL     1       3.979   5.368  17.947  0.00  0.00    +0.000 A 
ATOM     14  C   UNL     1       2.981   4.985  18.828  0.00  0.00    +0.000 A 
BRANCH  13  15
ATOM     15  O   UNL     1       4.332   6.674  17.815  0.00  0.00    +0.000 OA
ATOM     16  H   UNL     1       4.329   6.937  16.886  0.00  0.00    +0.000 HD
ENDBRANCH  13  15
ENDBRANCH   3   5
BRANCH   2  17
ATOM     17  C   UNL     1       0.163   9.760  21.040  0.00  0.00    +0.000 A 
ATOM     18  C   UNL     1       0.161   9.557  22.425  0.00  0.00    +0.000 A 
ATOM     19  C   UNL     1      -0.638  10.361  23.235  0.00  0.00    +0.000 A 
ATOM     20  C   UNL     1      -1.446  11.347  22.663  0.00  0.00    +0.000 A 
ATOM     21  C   UNL     1      -1.455  11.550  21.276  0.00  0.00    +0.000 A 
ATOM     22  C   UNL     1      -0.634  10.766  20.465  0.00  0.00    +0.000 A 
BRANCH  21  23
ATOM     23  C   UNL     1      -2.423  12.532  20.713  0.00  0.00    +0.000 C 
ATOM     24  O   UNL     1      -2.194  13.731  20.843  0.00  0.00    +0.000 OA
ATOM     25  N   UNL     1      -3.540  12.038  20.071  0.00  0.00    +0.000 N 
ATOM     26  H   UNL     1      -3.684  11.038  20.014  0.00  0.00    +0.000 HD
BRANCH  25  27
ATOM     27  C   UNL     1      -4.623  12.923  19.640  0.00  0.00    +0.000 C 
ATOM     28  C   UNL     1      -5.321  12.396  18.380  0.00  0.00    +0.000 C 
ATOM     29  C   UNL     1      -6.152  11.141  18.642  0.00  0.00    +0.000 C 
ATOM     30  C   UNL     1      -7.130  11.329  19.798  0.00  0.00    +0.000 C 
ATOM     31  C   UNL     1      -6.447  11.866  21.055  0.00  0.00    +0.000 C 
ATOM     32  C   UNL     1      -5.645  13.133  20.765  0.00  0.00    +0.000 C 
ENDBRANCH  25  27
ENDBRANCH  21  23
ENDBRANCH   2  17
TORSDOF 5
ENDMDL
MODEL 8
REMARK VINA RESULT:      -8.2      2.585     10.779
REMARK  Name = 
REMARK  5 active torsions:
REMARK  status: ('A' for Active; 'I' for Inactive)
REMARK    1  A    between atoms: C_2  and  C_15
REMARK    2  A    between atoms: N_3  and  N_4
REMARK    3  A    between atoms: C_12  and  O_13
REMARK    4  A    between atoms: C_19  and  C_20
REMARK    5  A    between atoms: N_22  and  C_23
REMARK                            x       y       z     vdW  Elec       q    Type
REMARK                         _______ _______ _______ _____ _____    ______ ____
ROOT
ATOM      1  O   UNL     1       0.272   9.678  22.183  0.00  0.00    +0.000 OA
ATOM      2  C   UNL     1       0.168  10.165  21.058  0.00  0.00    +0.000 C 
ATOM      3  N   UNL     1      -0.624  11.251  20.713  0.00  0.00    +0.000 N 
ATOM      4  H   UNL     1      -0.764  11.542  19.751  0.00  0.00    +0.000 HD
ENDROOT
BRANCH   3   5
ATOM      5  N   UNL     1      -1.350  11.819  21.699  0.00  0.00    +0.000 NA
ATOM      6  C   UNL     1      -1.042  12.971  22.194  0.00  0.00    +0.000 C 
ATOM      7  C   UNL     1       0.112  13.871  21.838  0.00  0.00    +0.000 C 
ATOM      8  C   UNL     1      -0.011  15.074  22.794  0.00  0.00    +0.000 C 
ATOM      9  C   UNL     1      -1.235  14.787  23.603  0.00  0.00    +0.000 A 
ATOM     10  C   UNL     1      -1.787  15.564  24.610  0.00  0.00    +0.000 A 
ATOM     11  C   UNL     1      -2.947  15.112  25.254  0.00  0.00    +0.000 A 
ATOM     12  C   UNL     1      -3.547  13.897  24.888  0.00  0.00    +0.000 A 
ATOM     13  C   UNL     1      -2.986  13.122  23.875  0.00  0.00    +0.000 A 
ATOM     14  C   UNL     1      -1.835  13.581  23.254  0.00  0.00    +0.000 A 
BRANCH  13  15
ATOM     15  O   UNL     1      -3.558  11.946  23.506  0.00  0.00    +0.000 OA
ATOM     16  H   UNL     1      -4.501  12.064  23.334  0.00  0.00    +0.000 HD
ENDBRANCH  13  15
ENDBRANCH   3   5
BRANCH   2  17
ATOM     17  C   UNL     1       0.926   9.519  19.963  0.00  0.00    +0.000 A 
ATOM     18  C   UNL     1       1.115  10.143  18.724  0.00  0.00    +0.000 A 
ATOM     19  C   UNL     1       1.863   9.501  17.740  0.00  0.00    +0.000 A 
ATOM     20  C   UNL     1       2.401   8.234  17.985  0.00  0.00    +0.000 A 
ATOM     21  C   UNL     1       2.209   7.601  19.221  0.00  0.00    +0.000 A 
ATOM     22  C   UNL     1       1.484   8.254  20.218  0.00  0.00    +0.000 A 
BRANCH  21  23
ATOM     23  C   UNL     1       2.702   6.204  19.383  0.00  0.00    +0.000 C 
ATOM     24  O   UNL     1       2.400   5.584  20.399  0.00  0.00    +0.000 OA
ATOM     25  N   UNL     1       3.481   5.678  18.374  0.00  0.00    +0.000 N 
ATOM     26  H   UNL     1       3.713   6.246  17.570  0.00  0.00    +0.000 HD
BRANCH  25  27
ATOM     27  C   UNL     1       4.146   4.382  18.526  0.00  0.00    +0.000 C 
ATOM     28  C   UNL     1       4.150   3.588  17.214  0.00  0.00    +0.000 C 
ATOM     29  C   UNL     1       5.075   4.190  16.157  0.00  0.00    +0.000 C 
ATOM     30  C   UNL     1       6.487   4.415  16.691  0.00  0.00    +0.000 C 
ATOM     31  C   UNL     1       6.494   5.195  18.003  0.00  0.00    +0.000 C 
ATOM     32  C   UNL     1       5.579   4.555  19.046  0.00  0.00    +0.000 C 
ENDBRANCH  25  27
ENDBRANCH  21  23
ENDBRANCH   2  17
TORSDOF 5
ENDMDL
MODEL 9
REMARK VINA RESULT:      -8.1      1.353      1.864
REMARK  Name = 
REMARK  5 active torsions:
REMARK  status: ('A' for Active; 'I' for Inactive)
REMARK    1  A    between atoms: C_2  and  C_15
REMARK    2  A    between atoms: N_3  and  N_4
REMARK    3  A    between atoms: C_12  and  O_13
REMARK    4  A    between atoms: C_19  and  C_20
REMARK    5  A    between atoms: N_22  and  C_23
REMARK                            x       y       z     vdW  Elec       q    Type
REMARK                         _______ _______ _______ _____ _____    ______ ____
ROOT
ATOM      1  O   UNL     1       1.082   9.563  19.011  0.00  0.00    +0.000 OA
ATOM      2  C   UNL     1       1.070   9.084  20.144  0.00  0.00    +0.000 C 
ATOM      3  N   UNL     1       1.741   7.939  20.549  0.00  0.00    +0.000 N 
ATOM      4  H   UNL     1       1.606   7.521  21.464  0.00  0.00    +0.000 HD
ENDROOT
BRANCH   3   5
ATOM      5  N   UNL     1       2.467   7.290  19.614  0.00  0.00    +0.000 NA
ATOM      6  C   UNL     1       2.444   6.004  19.507  0.00  0.00    +0.000 C 
ATOM      7  C   UNL     1       1.684   5.002  20.337  0.00  0.00    +0.000 C 
ATOM      8  C   UNL     1       2.091   3.627  19.774  0.00  0.00    +0.000 C 
ATOM      9  C   UNL     1       3.026   3.943  18.651  0.00  0.00    +0.000 A 
ATOM     10  C   UNL     1       3.677   3.050  17.812  0.00  0.00    +0.000 A 
ATOM     11  C   UNL     1       4.523   3.553  16.814  0.00  0.00    +0.000 A 
ATOM     12  C   UNL     1       4.708   4.935  16.657  0.00  0.00    +0.000 A 
ATOM     13  C   UNL     1       4.051   5.826  17.503  0.00  0.00    +0.000 A 
ATOM     14  C   UNL     1       3.224   5.310  18.489  0.00  0.00    +0.000 A 
BRANCH  13  15
ATOM     15  O   UNL     1       4.216   7.167  17.360  0.00  0.00    +0.000 OA
ATOM     16  H   UNL     1       5.134   7.377  17.147  0.00  0.00    +0.000 HD
ENDBRANCH  13  15
ENDBRANCH   3   5
BRANCH   2  17
ATOM     17  C   UNL     1       0.240   9.765  21.163  0.00  0.00    +0.000 A 
ATOM     18  C   UNL     1       0.102   9.263  22.462  0.00  0.00    +0.000 A 
ATOM     19  C   UNL     1      -0.668   9.963  23.389  0.00  0.00    +0.000 A 
ATOM     20  C   UNL     1      -1.313  11.144  23.013  0.00  0.00    +0.000 A 
ATOM     21  C   UNL     1      -1.185  11.648  21.711  0.00  0.00    +0.000 A 
ATOM     22  C   UNL     1      -0.391  10.964  20.789  0.00  0.00    +0.000 A 
BRANCH  21  23
ATOM     23  C   UNL     1      -1.990  12.843  21.335  0.00  0.00    +0.000 C 
ATOM     24  O   UNL     1      -2.315  12.992  20.160  0.00  0.00    +0.000 OA
ATOM     25  N   UNL     1      -2.329  13.731  22.334  0.00  0.00    +0.000 N 
ATOM     26  H   UNL     1      -2.013  13.565  23.281  0.00  0.00    +0.000 HD
BRANCH  25  27
ATOM     27  C   UNL     1      -2.968  15.012  22.029  0.00  0.00    +0.000 C 
ATOM     28  C   UNL     1      -4.476  14.975  22.306  0.00  0.00    +0.000 C 
ATOM     29  C   UNL     1      -4.805  14.913  23.798  0.00  0.00    +0.000 C 
ATOM     30  C   UNL     1      -4.107  16.018  24.587  0.00  0.00    +0.000 C 
ATOM     31  C   UNL     1      -2.607  16.071  24.308  0.00  0.00    +0.000 C 
ATOM     32  C   UNL     1      -2.312  16.157  22.812  0.00  0.00    +0.000 C 
ENDBRANCH  25  27
ENDBRANCH  21  23
ENDBRANCH   2  17
TORSDOF 5
ENDMDL
