MODEL 1
REMARK VINA RESULT:      -7.7      0.000      0.000
REMARK  Name = 
REMARK  12 active torsions:
REMARK  status: ('A' for Active; 'I' for Inactive)
REMARK    1  A    between atoms: C_1  and  O_2
REMARK    2  A    between atoms: O_2  and  C_3
REMARK    3  A    between atoms: C_4  and  N_5
REMARK    4  A    between atoms: C_6  and  C_8
REMARK    5  A    between atoms: C_11  and  N_12
REMARK    6  A    between atoms: N_12  and  S_13
REMARK    7  A    between atoms: S_13  and  C_14
REMARK    8  A    between atoms: C_20  and  C_21
REMARK    9  A    between atoms: C_29  and  C_30
REMARK   10  A    between atoms: C_30  and  C_31
REMARK   11  A    between atoms: C_30  and  C_32
REMARK   12  A    between atoms: C_30  and  C_33
REMARK                            x       y       z     vdW  Elec       q    Type
REMARK                         _______ _______ _______ _____ _____    ______ ____
ROOT
ATOM      1  C   UNL     1       0.663  12.237  19.269  0.00  0.00    +0.000 A 
ATOM      2  C   UNL     1       0.153  10.963  18.882  0.00  0.00    +0.000 A 
ATOM      3  C   UNL     1      -1.177  10.832  18.503  0.00  0.00    +0.000 A 
ATOM      4  C   UNL     1      -2.043  11.911  18.666  0.00  0.00    +0.000 A 
ATOM      5  C   UNL     1      -1.567  13.123  19.194  0.00  0.00    +0.000 A 
ATOM      6  C   UNL     1      -0.203  13.340  19.498  0.00  0.00    +0.000 A 
ENDROOT
BRANCH   4   7
ATOM      7  C   UNL     1      -3.471  11.749  18.377  0.00  0.00    +0.000 A 
ATOM      8  C   UNL     1      -4.377  11.926  19.358  0.00  0.00    +0.000 A 
ATOM      9  C   UNL     1      -5.790  11.769  19.108  0.00  0.00    +0.000 A 
ATOM     10  C   UNL     1      -6.216  11.445  17.881  0.00  0.00    +0.000 A 
ATOM     11  N   UNL     1      -5.319  11.260  16.864  0.00  0.00    +0.000 N 
ATOM     12  C   UNL     1      -3.955  11.379  17.004  0.00  0.00    +0.000 A 
ATOM     13  O   UNL     1      -3.188  11.187  16.062  0.00  0.00    +0.000 OA
ATOM     14  H   UNL     1      -5.640  11.011  15.933  0.00  0.00    +0.000 HD
ENDBRANCH   4   7
BRANCH   2  15
ATOM     15  N   UNL     1       0.939   9.774  18.911  0.00  0.00    +0.000 N 
ATOM     16  C   UNL     1       1.057   9.064  20.100  0.00  0.00    +0.000 C 
ATOM     17  O   UNL     1       0.410   9.320  21.112  0.00  0.00    +0.000 OA
ATOM     18  H   UNL     1       0.970   9.219  18.065  0.00  0.00    +0.000 HD
BRANCH  16  19
ATOM     19  C   UNL     1       2.011   7.864  20.045  0.00  0.00    +0.000 C 
ATOM     20  C   UNL     1       1.319   6.707  20.779  0.00  0.00    +0.000 C 
ATOM     21  C   UNL     1       2.049   5.382  20.678  0.00  0.00    +0.000 C 
ATOM     22  C   UNL     1       2.308   4.986  19.228  0.00  0.00    +0.000 C 
ATOM     23  C   UNL     1       3.094   6.112  18.528  0.00  0.00    +0.000 C 
ATOM     24  C   UNL     1       2.363   7.463  18.604  0.00  0.00    +0.000 C 
BRANCH  22  25
ATOM     25  N   UNL     1       3.080   3.728  19.145  0.00  0.00    +0.000 NA
ATOM     26  H   UNL     1       3.940   3.675  19.693  0.00  0.00    +0.000 HD
BRANCH  25  27
ATOM     27  S   UNL     1       3.230   2.865  17.703  0.00  0.00    +0.000 S 
ATOM     28  C   UNL     1       4.687   3.580  16.966  0.00  0.00    +0.000 C 
ATOM     29  O   UNL     1       3.558   1.512  18.098  0.00  0.00    +0.000 OA
ATOM     30  O   UNL     1       2.097   3.139  16.853  0.00  0.00    +0.000 OA
ENDBRANCH  25  27
ENDBRANCH  22  25
ENDBRANCH  16  19
ENDBRANCH   2  15
BRANCH   6  31
ATOM     31  C   UNL     1       0.209  14.704  20.120  0.00  0.00    +0.000 C 
ATOM     32  C   UNL     1      -1.069  15.446  20.577  0.00  0.00    +0.000 C 
ATOM     33  C   UNL     1       1.167  14.601  21.328  0.00  0.00    +0.000 C 
ATOM     34  C   UNL     1       0.932  15.642  19.111  0.00  0.00    +0.000 C 
ENDBRANCH   6  31
BRANCH   1  36
ATOM     35  C   UNL     1       2.696  12.708  18.184  0.00  0.00    +0.000 C 
ATOM     36  O   UNL     1       2.018  12.418  19.413  0.00  0.00    +0.000 OA
ENDBRANCH   1  36
TORSDOF 7
ENDMDL
MODEL 2
REMARK VINA RESULT:      -7.6      0.719      1.034
REMARK  Name = 
REMARK  12 active torsions:
REMARK  status: ('A' for Active; 'I' for Inactive)
REMARK    1  A    between atoms: C_1  and  O_2
REMARK    2  A    between atoms: O_2  and  C_3
REMARK    3  A    between atoms: C_4  and  N_5
REMARK    4  A    between atoms: C_6  and  C_8
REMARK    5  A    between atoms: C_11  and  N_12
REMARK    6  A    between atoms: N_12  and  S_13
REMARK    7  A    between atoms: S_13  and  C_14
REMARK    8  A    between atoms: C_20  and  C_21
REMARK    9  A    between atoms: C_29  and  C_30
REMARK   10  A    between atoms: C_30  and  C_31
REMARK   11  A    between atoms: C_30  and  C_32
REMARK   12  A    between atoms: C_30  and  C_33
REMARK                            x       y       z     vdW  Elec       q    Type
REMARK                         _______ _______ _______ _____ _____    ______ ____
ROOT
ATOM      1  C   UNL     1       0.381  12.319  19.559  0.00  0.00    +0.000 A 
ATOM      2  C   UNL     1      -0.074  11.056  19.079  0.00  0.00    +0.000 A 
ATOM      3  C   UNL     1      -1.394  10.901  18.670  0.00  0.00    +0.000 A 
ATOM      4  C   UNL     1      -2.302  11.933  18.891  0.00  0.00    +0.000 A 
ATOM      5  C   UNL     1      -1.880  13.124  19.507  0.00  0.00    +0.000 A 
ATOM      6  C   UNL     1      -0.530  13.370  19.846  0.00  0.00    +0.000 A 
ENDROOT
BRANCH   4   7
ATOM      7  C   UNL     1      -3.719  11.738  18.569  0.00  0.00    +0.000 A 
ATOM      8  C   UNL     1      -4.652  11.905  19.526  0.00  0.00    +0.000 A 
ATOM      9  C   UNL     1      -6.055  11.715  19.242  0.00  0.00    +0.000 A 
ATOM     10  C   UNL     1      -6.444  11.370  18.009  0.00  0.00    +0.000 A 
ATOM     11  N   UNL     1      -5.518  11.196  17.016  0.00  0.00    +0.000 N 
ATOM     12  C   UNL     1      -4.160  11.345  17.187  0.00  0.00    +0.000 A 
ATOM     13  O   UNL     1      -3.367  11.161  16.267  0.00  0.00    +0.000 OA
ATOM     14  H   UNL     1      -5.810  10.932  16.080  0.00  0.00    +0.000 HD
ENDBRANCH   4   7
BRANCH   2  15
ATOM     15  N   UNL     1       0.756   9.898  19.041  0.00  0.00    +0.000 N 
ATOM     16  C   UNL     1       0.931   9.146  20.199  0.00  0.00    +0.000 C 
ATOM     17  O   UNL     1       0.301   9.338  21.235  0.00  0.00    +0.000 OA
ATOM     18  H   UNL     1       0.785   9.377  18.174  0.00  0.00    +0.000 HD
BRANCH  16  19
ATOM     19  C   UNL     1       1.927   7.987  20.072  0.00  0.00    +0.000 C 
ATOM     20  C   UNL     1       1.268   6.758  20.714  0.00  0.00    +0.000 C 
ATOM     21  C   UNL     1       2.046   5.469  20.530  0.00  0.00    +0.000 C 
ATOM     22  C   UNL     1       2.335   5.186  19.059  0.00  0.00    +0.000 C 
ATOM     23  C   UNL     1       3.089   6.385  18.451  0.00  0.00    +0.000 C 
ATOM     24  C   UNL     1       2.310   7.701  18.612  0.00  0.00    +0.000 C 
BRANCH  22  25
ATOM     25  N   UNL     1       3.152   3.964  18.899  0.00  0.00    +0.000 NA
ATOM     26  H   UNL     1       4.160   4.091  18.794  0.00  0.00    +0.000 HD
BRANCH  25  27
ATOM     27  S   UNL     1       2.614   2.642  18.001  0.00  0.00    +0.000 S 
ATOM     28  C   UNL     1       1.316   1.973  19.024  0.00  0.00    +0.000 C 
ATOM     29  O   UNL     1       1.995   3.205  16.820  0.00  0.00    +0.000 OA
ATOM     30  O   UNL     1       3.671   1.665  17.894  0.00  0.00    +0.000 OA
ENDBRANCH  25  27
ENDBRANCH  22  25
ENDBRANCH  16  19
ENDBRANCH   2  15
BRANCH   6  31
ATOM     31  C   UNL     1      -0.179  14.704  20.565  0.00  0.00    +0.000 C 
ATOM     32  C   UNL     1      -1.491  15.367  21.047  0.00  0.00    +0.000 C 
ATOM     33  C   UNL     1       0.764  14.555  21.779  0.00  0.00    +0.000 C 
ATOM     34  C   UNL     1       0.524  15.734  19.633  0.00  0.00    +0.000 C 
ENDBRANCH   6  31
BRANCH   1  36
ATOM     35  C   UNL     1       2.446  12.731  18.512  0.00  0.00    +0.000 C 
ATOM     36  O   UNL     1       1.726  12.540  19.737  0.00  0.00    +0.000 OA
ENDBRANCH   1  36
TORSDOF 7
ENDMDL
MODEL 3
REMARK VINA RESULT:      -7.5      3.916     10.265
REMARK  Name = 
REMARK  12 active torsions:
REMARK  status: ('A' for Active; 'I' for Inactive)
REMARK    1  A    between atoms: C_1  and  O_2
REMARK    2  A    between atoms: O_2  and  C_3
REMARK    3  A    between atoms: C_4  and  N_5
REMARK    4  A    between atoms: C_6  and  C_8
REMARK    5  A    between atoms: C_11  and  N_12
REMARK    6  A    between atoms: N_12  and  S_13
REMARK    7  A    between atoms: S_13  and  C_14
REMARK    8  A    between atoms: C_20  and  C_21
REMARK    9  A    between atoms: C_29  and  C_30
REMARK   10  A    between atoms: C_30  and  C_31
REMARK   11  A    between atoms: C_30  and  C_32
REMARK   12  A    between atoms: C_30  and  C_33
REMARK                            x       y       z     vdW  Elec       q    Type
REMARK                         _______ _______ _______ _____ _____    ______ ____
ROOT
ATOM      1  C   UNL     1       2.524   5.095  18.850  0.00  0.00    +0.000 A 
ATOM      2  C   UNL     1       3.022   6.311  18.298  0.00  0.00    +0.000 A 
ATOM      3  C   UNL     1       3.928   6.278  17.245  0.00  0.00    +0.000 A 
ATOM      4  C   UNL     1       4.470   5.057  16.850  0.00  0.00    +0.000 A 
ATOM      5  C   UNL     1       4.090   3.873  17.502  0.00  0.00    +0.000 A 
ATOM      6  C   UNL     1       3.097   3.841  18.508  0.00  0.00    +0.000 A 
ENDROOT
BRANCH   4   7
ATOM      7  C   UNL     1       5.511   5.023  15.818  0.00  0.00    +0.000 A 
ATOM      8  C   UNL     1       5.295   4.351  14.670  0.00  0.00    +0.000 A 
ATOM      9  C   UNL     1       6.301   4.294  13.637  0.00  0.00    +0.000 A 
ATOM     10  C   UNL     1       7.471   4.919  13.812  0.00  0.00    +0.000 A 
ATOM     11  N   UNL     1       7.718   5.612  14.967  0.00  0.00    +0.000 N 
ATOM     12  C   UNL     1       6.829   5.718  16.012  0.00  0.00    +0.000 A 
ATOM     13  O   UNL     1       7.105   6.339  17.036  0.00  0.00    +0.000 OA
ATOM     14  H   UNL     1       8.607   6.085  15.103  0.00  0.00    +0.000 HD
ENDBRANCH   4   7
BRANCH   2  15
ATOM     15  N   UNL     1       2.674   7.594  18.812  0.00  0.00    +0.000 N 
ATOM     16  C   UNL     1       1.627   8.301  18.230  0.00  0.00    +0.000 C 
ATOM     17  O   UNL     1       0.881   7.829  17.376  0.00  0.00    +0.000 OA
ATOM     18  H   UNL     1       2.806   7.747  19.804  0.00  0.00    +0.000 HD
BRANCH  16  19
ATOM     19  C   UNL     1       1.408   9.712  18.791  0.00  0.00    +0.000 C 
ATOM     20  C   UNL     1       0.067  10.211  18.236  0.00  0.00    +0.000 C 
ATOM     21  C   UNL     1      -0.394  11.532  18.822  0.00  0.00    +0.000 C 
ATOM     22  C   UNL     1      -0.455  11.486  20.345  0.00  0.00    +0.000 C 
ATOM     23  C   UNL     1       0.926  11.083  20.895  0.00  0.00    +0.000 C 
ATOM     24  C   UNL     1       1.407   9.737  20.326  0.00  0.00    +0.000 C 
BRANCH  22  25
ATOM     25  N   UNL     1      -0.839  12.799  20.906  0.00  0.00    +0.000 NA
ATOM     26  H   UNL     1      -0.278  13.605  20.625  0.00  0.00    +0.000 HD
BRANCH  25  27
ATOM     27  S   UNL     1      -1.384  12.967  22.494  0.00  0.00    +0.000 S 
ATOM     28  C   UNL     1      -1.559  11.276  23.031  0.00  0.00    +0.000 C 
ATOM     29  O   UNL     1      -0.275  13.546  23.221  0.00  0.00    +0.000 OA
ATOM     30  O   UNL     1      -2.685  13.592  22.497  0.00  0.00    +0.000 OA
ENDBRANCH  25  27
ENDBRANCH  22  25
ENDBRANCH  16  19
ENDBRANCH   2  15
BRANCH   6  31
ATOM     31  C   UNL     1       2.783   2.482  19.197  0.00  0.00    +0.000 C 
ATOM     32  C   UNL     1       3.528   1.359  18.437  0.00  0.00    +0.000 C 
ATOM     33  C   UNL     1       3.180   2.405  20.687  0.00  0.00    +0.000 C 
ATOM     34  C   UNL     1       1.271   2.114  19.162  0.00  0.00    +0.000 C 
ENDBRANCH   6  31
BRANCH   1  36
ATOM     35  C   UNL     1       1.813   5.532  21.049  0.00  0.00    +0.000 C 
ATOM     36  O   UNL     1       1.461   5.123  19.721  0.00  0.00    +0.000 OA
ENDBRANCH   1  36
TORSDOF 7
ENDMDL
MODEL 4
REMARK VINA RESULT:      -7.5      3.824     10.373
REMARK  Name = 
REMARK  12 active torsions:
REMARK  status: ('A' for Active; 'I' for Inactive)
REMARK    1  A    between atoms: C_1  and  O_2
REMARK    2  A    between atoms: O_2  and  C_3
REMARK    3  A    between atoms: C_4  and  N_5
REMARK    4  A    between atoms: C_6  and  C_8
REMARK    5  A    between atoms: C_11  and  N_12
REMARK    6  A    between atoms: N_12  and  S_13
REMARK    7  A    between atoms: S_13  and  C_14
REMARK    8  A    between atoms: C_20  and  C_21
REMARK    9  A    between atoms: C_29  and  C_30
REMARK   10  A    between atoms: C_30  and  C_31
REMARK   11  A    between atoms: C_30  and  C_32
REMARK   12  A    between atoms: C_30  and  C_33
REMARK                            x       y       z     vdW  Elec       q    Type
REMARK                         _______ _______ _______ _____ _____    ______ ____
ROOT
ATOM      1  C   UNL     1       2.617   4.948  18.894  0.00  0.00    +0.000 A 
ATOM      2  C   UNL     1       3.078   6.182  18.347  0.00  0.00    +0.000 A 
ATOM      3  C   UNL     1       3.969   6.180  17.281  0.00  0.00    +0.000 A 
ATOM      4  C   UNL     1       4.534   4.976  16.866  0.00  0.00    +0.000 A 
ATOM      5  C   UNL     1       4.191   3.776  17.512  0.00  0.00    +0.000 A 
ATOM      6  C   UNL     1       3.213   3.711  18.532  0.00  0.00    +0.000 A 
ENDROOT
BRANCH   4   7
ATOM      7  C   UNL     1       5.560   4.975  15.819  0.00  0.00    +0.000 A 
ATOM      8  C   UNL     1       5.338   4.321  14.663  0.00  0.00    +0.000 A 
ATOM      9  C   UNL     1       6.330   4.297  13.615  0.00  0.00    +0.000 A 
ATOM     10  C   UNL     1       7.492   4.938  13.785  0.00  0.00    +0.000 A 
ATOM     11  N   UNL     1       7.745   5.614  14.948  0.00  0.00    +0.000 N 
ATOM     12  C   UNL     1       6.869   5.689  16.007  0.00  0.00    +0.000 A 
ATOM     13  O   UNL     1       7.150   6.295  17.038  0.00  0.00    +0.000 OA
ATOM     14  H   UNL     1       8.629   6.098  15.080  0.00  0.00    +0.000 HD
ENDBRANCH   4   7
BRANCH   2  15
ATOM     15  N   UNL     1       2.707   7.451  18.879  0.00  0.00    +0.000 N 
ATOM     16  C   UNL     1       1.679   8.169  18.276  0.00  0.00    +0.000 C 
ATOM     17  O   UNL     1       0.967   7.716  17.384  0.00  0.00    +0.000 OA
ATOM     18  H   UNL     1       2.803   7.580  19.878  0.00  0.00    +0.000 HD
BRANCH  16  19
ATOM     19  C   UNL     1       1.436   9.565  18.862  0.00  0.00    +0.000 C 
ATOM     20  C   UNL     1       0.229  10.158  18.121  0.00  0.00    +0.000 C 
ATOM     21  C   UNL     1      -0.261  11.476  18.688  0.00  0.00    +0.000 C 
ATOM     22  C   UNL     1      -0.575  11.371  20.177  0.00  0.00    +0.000 C 
ATOM     23  C   UNL     1       0.677  10.873  20.925  0.00  0.00    +0.000 C 
ATOM     24  C   UNL     1       1.183   9.528  20.376  0.00  0.00    +0.000 C 
BRANCH  22  25
ATOM     25  N   UNL     1      -0.986  12.679  20.731  0.00  0.00    +0.000 NA
ATOM     26  H   UNL     1      -0.483  13.011  21.556  0.00  0.00    +0.000 HD
BRANCH  25  27
ATOM     27  S   UNL     1      -2.602  13.163  20.774  0.00  0.00    +0.000 S 
ATOM     28  C   UNL     1      -3.101  12.725  22.428  0.00  0.00    +0.000 C 
ATOM     29  O   UNL     1      -2.572  14.607  20.692  0.00  0.00    +0.000 OA
ATOM     30  O   UNL     1      -3.368  12.379  19.835  0.00  0.00    +0.000 OA
ENDBRANCH  25  27
ENDBRANCH  22  25
ENDBRANCH  16  19
ENDBRANCH   2  15
BRANCH   6  31
ATOM     31  C   UNL     1       2.941   2.339  19.212  0.00  0.00    +0.000 C 
ATOM     32  C   UNL     1       3.552   2.362  20.633  0.00  0.00    +0.000 C 
ATOM     33  C   UNL     1       1.448   1.962  19.331  0.00  0.00    +0.000 C 
ATOM     34  C   UNL     1       3.601   1.145  18.463  0.00  0.00    +0.000 C 
ENDBRANCH   6  31
BRANCH   1  36
ATOM     35  C   UNL     1       1.937   5.304  21.118  0.00  0.00    +0.000 C 
ATOM     36  O   UNL     1       1.566   4.943  19.781  0.00  0.00    +0.000 OA
ENDBRANCH   1  36
TORSDOF 7
ENDMDL
MODEL 5
REMARK VINA RESULT:      -7.4      4.357      9.965
REMARK  Name = 
REMARK  12 active torsions:
REMARK  status: ('A' for Active; 'I' for Inactive)
REMARK    1  A    between atoms: C_1  and  O_2
REMARK    2  A    between atoms: O_2  and  C_3
REMARK    3  A    between atoms: C_4  and  N_5
REMARK    4  A    between atoms: C_6  and  C_8
REMARK    5  A    between atoms: C_11  and  N_12
REMARK    6  A    between atoms: N_12  and  S_13
REMARK    7  A    between atoms: S_13  and  C_14
REMARK    8  A    between atoms: C_20  and  C_21
REMARK    9  A    between atoms: C_29  and  C_30
REMARK   10  A    between atoms: C_30  and  C_31
REMARK   11  A    between atoms: C_30  and  C_32
REMARK   12  A    between atoms: C_30  and  C_33
REMARK                            x       y       z     vdW  Elec       q    Type
REMARK                         _______ _______ _______ _____ _____    ______ ____
ROOT
ATOM      1  C   UNL     1       2.099   5.993  19.336  0.00  0.00    +0.000 A 
ATOM      2  C   UNL     1       2.651   7.093  18.616  0.00  0.00    +0.000 A 
ATOM      3  C   UNL     1       3.587   6.870  17.614  0.00  0.00    +0.000 A 
ATOM      4  C   UNL     1       4.103   5.589  17.435  0.00  0.00    +0.000 A 
ATOM      5  C   UNL     1       3.666   4.533  18.253  0.00  0.00    +0.000 A 
ATOM      6  C   UNL     1       2.643   4.686  19.216  0.00  0.00    +0.000 A 
ENDROOT
BRANCH   4   7
ATOM      7  C   UNL     1       5.173   5.364  16.458  0.00  0.00    +0.000 A 
ATOM      8  C   UNL     1       4.934   4.619  15.363  0.00  0.00    +0.000 A 
ATOM      9  C   UNL     1       5.967   4.375  14.385  0.00  0.00    +0.000 A 
ATOM     10  C   UNL     1       7.186   4.898  14.561  0.00  0.00    +0.000 A 
ATOM     11  N   UNL     1       7.458   5.662  15.663  0.00  0.00    +0.000 N 
ATOM     12  C   UNL     1       6.545   5.945  16.654  0.00  0.00    +0.000 A 
ATOM     13  O   UNL     1       6.843   6.623  17.635  0.00  0.00    +0.000 OA
ATOM     14  H   UNL     1       8.383   6.058  15.801  0.00  0.00    +0.000 HD
ENDBRANCH   4   7
BRANCH   2  15
ATOM     15  N   UNL     1       2.327   8.450  18.909  0.00  0.00    +0.000 N 
ATOM     16  C   UNL     1       1.332   9.088  18.175  0.00  0.00    +0.000 C 
ATOM     17  O   UNL     1       0.609   8.511  17.368  0.00  0.00    +0.000 OA
ATOM     18  H   UNL     1       2.420   8.751  19.871  0.00  0.00    +0.000 HD
BRANCH  16  19
ATOM     19  C   UNL     1       1.140  10.574  18.501  0.00  0.00    +0.000 C 
ATOM     20  C   UNL     1       0.913  10.674  20.016  0.00  0.00    +0.000 C 
ATOM     21  C   UNL     1       0.871  12.096  20.544  0.00  0.00    +0.000 C 
ATOM     22  C   UNL     1       2.121  12.881  20.160  0.00  0.00    +0.000 C 
ATOM     23  C   UNL     1       2.281  12.860  18.628  0.00  0.00    +0.000 C 
ATOM     24  C   UNL     1       2.343  11.427  18.071  0.00  0.00    +0.000 C 
BRANCH  22  25
ATOM     25  N   UNL     1       2.035  14.283  20.622  0.00  0.00    +0.000 NA
ATOM     26  H   UNL     1       1.751  14.981  19.933  0.00  0.00    +0.000 HD
BRANCH  25  27
ATOM     27  S   UNL     1       3.143  14.931  21.717  0.00  0.00    +0.000 S 
ATOM     28  C   UNL     1       3.982  16.167  20.744  0.00  0.00    +0.000 C 
ATOM     29  O   UNL     1       2.345  15.621  22.708  0.00  0.00    +0.000 OA
ATOM     30  O   UNL     1       4.096  13.917  22.101  0.00  0.00    +0.000 OA
ENDBRANCH  25  27
ENDBRANCH  22  25
ENDBRANCH  16  19
ENDBRANCH   2  15
BRANCH   6  31
ATOM     31  C   UNL     1       2.266   3.462  20.099  0.00  0.00    +0.000 C 
ATOM     32  C   UNL     1       3.286   2.329  19.834  0.00  0.00    +0.000 C 
ATOM     33  C   UNL     1       2.238   3.744  21.617  0.00  0.00    +0.000 C 
ATOM     34  C   UNL     1       0.860   2.881  19.770  0.00  0.00    +0.000 C 
ENDBRANCH   6  31
BRANCH   1  36
ATOM     35  C   UNL     1       1.237   7.141  21.199  0.00  0.00    +0.000 C 
ATOM     36  O   UNL     1       1.011   6.186  20.154  0.00  0.00    +0.000 OA
ENDBRANCH   1  36
TORSDOF 7
ENDMDL
MODEL 6
REMARK VINA RESULT:      -7.4      2.144      2.486
REMARK  Name = 
REMARK  12 active torsions:
REMARK  status: ('A' for Active; 'I' for Inactive)
REMARK    1  A    between atoms: C_1  and  O_2
REMARK    2  A    between atoms: O_2  and  C_3
REMARK    3  A    between atoms: C_4  and  N_5
REMARK    4  A    between atoms: C_6  and  C_8
REMARK    5  A    between atoms: C_11  and  N_12
REMARK    6  A    between atoms: N_12  and  S_13
REMARK    7  A    between atoms: S_13  and  C_14
REMARK    8  A    between atoms: C_20  and  C_21
REMARK    9  A    between atoms: C_29  and  C_30
REMARK   10  A    between atoms: C_30  and  C_31
REMARK   11  A    between atoms: C_30  and  C_32
REMARK   12  A    between atoms: C_30  and  C_33
REMARK                            x       y       z     vdW  Elec       q    Type
REMARK                         _______ _______ _______ _____ _____    ______ ____
ROOT
ATOM      1  C   UNL     1       0.661  11.770  18.896  0.00  0.00    +0.000 A 
ATOM      2  C   UNL     1       0.030  10.673  18.240  0.00  0.00    +0.000 A 
ATOM      3  C   UNL     1      -1.333  10.714  17.970  0.00  0.00    +0.000 A 
ATOM      4  C   UNL     1      -2.101  11.751  18.493  0.00  0.00    +0.000 A 
ATOM      5  C   UNL     1      -1.497  12.752  19.272  0.00  0.00    +0.000 A 
ATOM      6  C   UNL     1      -0.101  12.813  19.489  0.00  0.00    +0.000 A 
ENDROOT
BRANCH   4   7
ATOM      7  C   UNL     1      -3.556  11.743  18.311  0.00  0.00    +0.000 A 
ATOM      8  C   UNL     1      -4.363  12.004  19.358  0.00  0.00    +0.000 A 
ATOM      9  C   UNL     1      -5.799  11.999  19.213  0.00  0.00    +0.000 A 
ATOM     10  C   UNL     1      -6.346  11.734  18.021  0.00  0.00    +0.000 A 
ATOM     11  N   UNL     1      -5.551  11.469  16.939  0.00  0.00    +0.000 N 
ATOM     12  C   UNL     1      -4.176  11.442  16.976  0.00  0.00    +0.000 A 
ATOM     13  O   UNL     1      -3.506  11.181  15.979  0.00  0.00    +0.000 OA
ATOM     14  H   UNL     1      -5.965  11.265  16.033  0.00  0.00    +0.000 HD
ENDBRANCH   4   7
BRANCH   2  15
ATOM     15  N   UNL     1       0.726   9.482  17.880  0.00  0.00    +0.000 N 
ATOM     16  C   UNL     1       1.279   8.688  18.879  0.00  0.00    +0.000 C 
ATOM     17  O   UNL     1       1.090   8.874  20.078  0.00  0.00    +0.000 OA
ATOM     18  H   UNL     1       0.405   8.989  17.057  0.00  0.00    +0.000 HD
BRANCH  16  19
ATOM     19  C   UNL     1       2.096   7.491  18.375  0.00  0.00    +0.000 C 
ATOM     20  C   UNL     1       3.236   8.057  17.517  0.00  0.00    +0.000 C 
ATOM     21  C   UNL     1       4.250   7.021  17.069  0.00  0.00    +0.000 C 
ATOM     22  C   UNL     1       4.831   6.250  18.250  0.00  0.00    +0.000 C 
ATOM     23  C   UNL     1       3.683   5.601  19.046  0.00  0.00    +0.000 C 
ATOM     24  C   UNL     1       2.651   6.636  19.524  0.00  0.00    +0.000 C 
BRANCH  22  25
ATOM     25  N   UNL     1       5.765   5.198  17.795  0.00  0.00    +0.000 NA
ATOM     26  H   UNL     1       5.605   4.253  18.145  0.00  0.00    +0.000 HD
BRANCH  25  27
ATOM     27  S   UNL     1       7.414   5.495  17.593  0.00  0.00    +0.000 S 
ATOM     28  C   UNL     1       7.950   5.883  19.248  0.00  0.00    +0.000 C 
ATOM     29  O   UNL     1       7.992   4.218  17.233  0.00  0.00    +0.000 OA
ATOM     30  O   UNL     1       7.600   6.658  16.760  0.00  0.00    +0.000 OA
ENDBRANCH  25  27
ENDBRANCH  22  25
ENDBRANCH  16  19
ENDBRANCH   2  15
BRANCH   6  31
ATOM     31  C   UNL     1       0.459  13.939  20.404  0.00  0.00    +0.000 C 
ATOM     32  C   UNL     1       0.880  15.133  19.516  0.00  0.00    +0.000 C 
ATOM     33  C   UNL     1      -0.529  14.454  21.473  0.00  0.00    +0.000 C 
ATOM     34  C   UNL     1       1.725  13.507  21.198  0.00  0.00    +0.000 C 
ENDBRANCH   6  31
BRANCH   1  36
ATOM     35  C   UNL     1       2.627  12.449  17.798  0.00  0.00    +0.000 C 
ATOM     36  O   UNL     1       2.033  11.838  18.951  0.00  0.00    +0.000 OA
ENDBRANCH   1  36
TORSDOF 7
ENDMDL
MODEL 7
REMARK VINA RESULT:      -7.3      3.673     10.381
REMARK  Name = 
REMARK  12 active torsions:
REMARK  status: ('A' for Active; 'I' for Inactive)
REMARK    1  A    between atoms: C_1  and  O_2
REMARK    2  A    between atoms: O_2  and  C_3
REMARK    3  A    between atoms: C_4  and  N_5
REMARK    4  A    between atoms: C_6  and  C_8
REMARK    5  A    between atoms: C_11  and  N_12
REMARK    6  A    between atoms: N_12  and  S_13
REMARK    7  A    between atoms: S_13  and  C_14
REMARK    8  A    between atoms: C_20  and  C_21
REMARK    9  A    between atoms: C_29  and  C_30
REMARK   10  A    between atoms: C_30  and  C_31
REMARK   11  A    between atoms: C_30  and  C_32
REMARK   12  A    between atoms: C_30  and  C_33
REMARK                            x       y       z     vdW  Elec       q    Type
REMARK                         _______ _______ _______ _____ _____    ______ ____
ROOT
ATOM      1  C   UNL     1       2.789   4.920  18.773  0.00  0.00    +0.000 A 
ATOM      2  C   UNL     1       3.248   6.148  18.213  0.00  0.00    +0.000 A 
ATOM      3  C   UNL     1       4.105   6.137  17.119  0.00  0.00    +0.000 A 
ATOM      4  C   UNL     1       4.640   4.926  16.685  0.00  0.00    +0.000 A 
ATOM      5  C   UNL     1       4.302   3.730  17.340  0.00  0.00    +0.000 A 
ATOM      6  C   UNL     1       3.357   3.676  18.390  0.00  0.00    +0.000 A 
ENDROOT
BRANCH   4   7
ATOM      7  C   UNL     1       5.633   4.915  15.606  0.00  0.00    +0.000 A 
ATOM      8  C   UNL     1       5.375   4.246  14.465  0.00  0.00    +0.000 A 
ATOM      9  C   UNL     1       6.333   4.212  13.386  0.00  0.00    +0.000 A 
ATOM     10  C   UNL     1       7.499   4.855  13.511  0.00  0.00    +0.000 A 
ATOM     11  N   UNL     1       7.788   5.546  14.657  0.00  0.00    +0.000 N 
ATOM     12  C   UNL     1       6.946   5.632  15.743  0.00  0.00    +0.000 A 
ATOM     13  O   UNL     1       7.259   6.251  16.757  0.00  0.00    +0.000 OA
ATOM     14  H   UNL     1       8.674   6.033  14.756  0.00  0.00    +0.000 HD
ENDBRANCH   4   7
BRANCH   2  15
ATOM     15  N   UNL     1       2.911   7.421  18.759  0.00  0.00    +0.000 N 
ATOM     16  C   UNL     1       1.803   8.103  18.265  0.00  0.00    +0.000 C 
ATOM     17  O   UNL     1       1.004   7.614  17.472  0.00  0.00    +0.000 OA
ATOM     18  H   UNL     1       3.118   7.575  19.737  0.00  0.00    +0.000 HD
BRANCH  16  19
ATOM     19  C   UNL     1       1.596   9.507  18.847  0.00  0.00    +0.000 C 
ATOM     20  C   UNL     1       0.469  10.164  18.038  0.00  0.00    +0.000 C 
ATOM     21  C   UNL     1       0.013  11.504  18.585  0.00  0.00    +0.000 C 
ATOM     22  C   UNL     1      -0.396  11.407  20.052  0.00  0.00    +0.000 C 
ATOM     23  C   UNL     1       0.780  10.841  20.870  0.00  0.00    +0.000 C 
ATOM     24  C   UNL     1       1.249   9.475  20.343  0.00  0.00    +0.000 C 
BRANCH  22  25
ATOM     25  N   UNL     1      -0.773  12.731  20.591  0.00  0.00    +0.000 NA
ATOM     26  H   UNL     1      -0.069  13.225  21.142  0.00  0.00    +0.000 HD
BRANCH  25  27
ATOM     27  S   UNL     1      -2.326  13.051  21.170  0.00  0.00    +0.000 S 
ATOM     28  C   UNL     1      -3.369  12.429  19.865  0.00  0.00    +0.000 C 
ATOM     29  O   UNL     1      -2.494  12.183  22.316  0.00  0.00    +0.000 OA
ATOM     30  O   UNL     1      -2.519  14.476  21.280  0.00  0.00    +0.000 OA
ENDBRANCH  25  27
ENDBRANCH  22  25
ENDBRANCH  16  19
ENDBRANCH   2  15
BRANCH   6  31
ATOM     31  C   UNL     1       3.089   2.306  19.076  0.00  0.00    +0.000 C 
ATOM     32  C   UNL     1       1.564   2.048  19.086  0.00  0.00    +0.000 C 
ATOM     33  C   UNL     1       3.780   1.100  18.402  0.00  0.00    +0.000 C 
ATOM     34  C   UNL     1       3.558   2.262  20.559  0.00  0.00    +0.000 C 
ENDBRANCH   6  31
BRANCH   1  36
ATOM     35  C   UNL     1       2.176   5.321  21.008  0.00  0.00    +0.000 C 
ATOM     36  O   UNL     1       1.766   4.927  19.692  0.00  0.00    +0.000 OA
ENDBRANCH   1  36
TORSDOF 7
ENDMDL
MODEL 8
REMARK VINA RESULT:      -7.3      1.109      1.323
REMARK  Name = 
REMARK  12 active torsions:
REMARK  status: ('A' for Active; 'I' for Inactive)
REMARK    1  A    between atoms: C_1  and  O_2
REMARK    2  A    between atoms: O_2  and  C_3
REMARK    3  A    between atoms: C_4  and  N_5
REMARK    4  A    between atoms: C_6  and  C_8
REMARK    5  A    between atoms: C_11  and  N_12
REMARK    6  A    between atoms: N_12  and  S_13
REMARK    7  A    between atoms: S_13  and  C_14
REMARK    8  A    between atoms: C_20  and  C_21
REMARK    9  A    between atoms: C_29  and  C_30
REMARK   10  A    between atoms: C_30  and  C_31
REMARK   11  A    between atoms: C_30  and  C_32
REMARK   12  A    between atoms: C_30  and  C_33
REMARK                            x       y       z     vdW  Elec       q    Type
REMARK                         _______ _______ _______ _____ _____    ______ ____
ROOT
ATOM      1  C   UNL     1      -0.005  12.280  20.658  0.00  0.00    +0.000 A 
ATOM      2  C   UNL     1      -0.259  11.171  19.798  0.00  0.00    +0.000 A 
ATOM      3  C   UNL     1      -1.456  11.094  19.096  0.00  0.00    +0.000 A 
ATOM      4  C   UNL     1      -2.466  12.014  19.368  0.00  0.00    +0.000 A 
ATOM      5  C   UNL     1      -2.266  13.017  20.331  0.00  0.00    +0.000 A 
ATOM      6  C   UNL     1      -1.032  13.201  20.997  0.00  0.00    +0.000 A 
ENDROOT
BRANCH   4   7
ATOM      7  C   UNL     1      -3.773  11.874  18.718  0.00  0.00    +0.000 A 
ATOM      8  C   UNL     1      -4.899  12.101  19.421  0.00  0.00    +0.000 A 
ATOM      9  C   UNL     1      -6.200  11.967  18.811  0.00  0.00    +0.000 A 
ATOM     10  C   UNL     1      -6.299  11.615  17.524  0.00  0.00    +0.000 A 
ATOM     11  N   UNL     1      -5.172  11.380  16.784  0.00  0.00    +0.000 N 
ATOM     12  C   UNL     1      -3.889  11.474  17.274  0.00  0.00    +0.000 A 
ATOM     13  O   UNL     1      -2.909  11.236  16.572  0.00  0.00    +0.000 OA
ATOM     14  H   UNL     1      -5.245  11.110  15.807  0.00  0.00    +0.000 HD
ENDBRANCH   4   7
BRANCH   2  15
ATOM     15  N   UNL     1       0.648  10.081  19.653  0.00  0.00    +0.000 N 
ATOM     16  C   UNL     1       0.655   9.068  20.606  0.00  0.00    +0.000 C 
ATOM     17  O   UNL     1      -0.173   8.978  21.507  0.00  0.00    +0.000 OA
ATOM     18  H   UNL     1       0.881   9.796  18.710  0.00  0.00    +0.000 HD
BRANCH  16  19
ATOM     19  C   UNL     1       1.742   8.003  20.409  0.00  0.00    +0.000 C 
ATOM     20  C   UNL     1       1.187   6.688  20.974  0.00  0.00    +0.000 C 
ATOM     21  C   UNL     1       2.067   5.480  20.712  0.00  0.00    +0.000 C 
ATOM     22  C   UNL     1       2.372   5.313  19.227  0.00  0.00    +0.000 C 
ATOM     23  C   UNL     1       3.023   6.603  18.695  0.00  0.00    +0.000 C 
ATOM     24  C   UNL     1       2.141   7.840  18.935  0.00  0.00    +0.000 C 
BRANCH  22  25
ATOM     25  N   UNL     1       3.285   4.173  18.993  0.00  0.00    +0.000 NA
ATOM     26  H   UNL     1       4.246   4.274  19.324  0.00  0.00    +0.000 HD
BRANCH  25  27
ATOM     27  S   UNL     1       3.227   3.259  17.577  0.00  0.00    +0.000 S 
ATOM     28  C   UNL     1       4.518   3.985  16.585  0.00  0.00    +0.000 C 
ATOM     29  O   UNL     1       3.662   1.932  17.958  0.00  0.00    +0.000 OA
ATOM     30  O   UNL     1       1.961   3.467  16.916  0.00  0.00    +0.000 OA
ENDBRANCH  25  27
ENDBRANCH  22  25
ENDBRANCH  16  19
ENDBRANCH   2  15
BRANCH   6  31
ATOM     31  C   UNL     1      -0.932  14.314  22.078  0.00  0.00    +0.000 C 
ATOM     32  C   UNL     1      -1.132  13.671  23.470  0.00  0.00    +0.000 C 
ATOM     33  C   UNL     1       0.406  15.086  22.088  0.00  0.00    +0.000 C 
ATOM     34  C   UNL     1      -2.028  15.409  21.932  0.00  0.00    +0.000 C 
ENDBRANCH   6  31
BRANCH   1  36
ATOM     35  C   UNL     1       2.179  13.031  20.213  0.00  0.00    +0.000 C 
ATOM     36  O   UNL     1       1.258  12.479  21.163  0.00  0.00    +0.000 OA
ENDBRANCH   1  36
TORSDOF 7
ENDMDL
MODEL 9
REMARK VINA RESULT:      -7.2      1.061      1.252
REMARK  Name = 
REMARK  12 active torsions:
REMARK  status: ('A' for Active; 'I' for Inactive)
REMARK    1  A    between atoms: C_1  and  O_2
REMARK    2  A    between atoms: O_2  and  C_3
REMARK    3  A    between atoms: C_4  and  N_5
REMARK    4  A    between atoms: C_6  and  C_8
REMARK    5  A    between atoms: C_11  and  N_12
REMARK    6  A    between atoms: N_12  and  S_13
REMARK    7  A    between atoms: S_13  and  C_14
REMARK    8  A    between atoms: C_20  and  C_21
REMARK    9  A    between atoms: C_29  and  C_30
REMARK   10  A    between atoms: C_30  and  C_31
REMARK   11  A    between atoms: C_30  and  C_32
REMARK   12  A    between atoms: C_30  and  C_33
REMARK                            x       y       z     vdW  Elec       q    Type
REMARK                         _______ _______ _______ _____ _____    ______ ____
ROOT
ATOM      1  C   UNL     1       0.686  12.237  19.256  0.00  0.00    +0.000 A 
ATOM      2  C   UNL     1       0.109  10.959  18.998  0.00  0.00    +0.000 A 
ATOM      3  C   UNL     1      -1.249  10.851  18.721  0.00  0.00    +0.000 A 
ATOM      4  C   UNL     1      -2.065  11.971  18.865  0.00  0.00    +0.000 A 
ATOM      5  C   UNL     1      -1.514  13.198  19.271  0.00  0.00    +0.000 A 
ATOM      6  C   UNL     1      -0.126  13.384  19.464  0.00  0.00    +0.000 A 
ENDROOT
BRANCH   4   7
ATOM      7  C   UNL     1      -3.515  11.842  18.688  0.00  0.00    +0.000 A 
ATOM      8  C   UNL     1      -4.011  11.417  17.510  0.00  0.00    +0.000 A 
ATOM      9  C   UNL     1      -5.433  11.285  17.302  0.00  0.00    +0.000 A 
ATOM     10  C   UNL     1      -6.281  11.584  18.293  0.00  0.00    +0.000 A 
ATOM     11  N   UNL     1      -5.806  12.016  19.502  0.00  0.00    +0.000 N 
ATOM     12  C   UNL     1      -4.472  12.182  19.795  0.00  0.00    +0.000 A 
ATOM     13  O   UNL     1      -4.096  12.589  20.892  0.00  0.00    +0.000 OA
ATOM     14  H   UNL     1      -6.448  12.246  20.254  0.00  0.00    +0.000 HD
ENDBRANCH   4   7
BRANCH   2  15
ATOM     15  N   UNL     1       0.856   9.747  19.058  0.00  0.00    +0.000 N 
ATOM     16  C   UNL     1       1.066   9.136  20.290  0.00  0.00    +0.000 C 
ATOM     17  O   UNL     1       0.528   9.504  21.331  0.00  0.00    +0.000 OA
ATOM     18  H   UNL     1       0.786   9.120  18.267  0.00  0.00    +0.000 HD
BRANCH  16  19
ATOM     19  C   UNL     1       1.971   7.898  20.252  0.00  0.00    +0.000 C 
ATOM     20  C   UNL     1       1.155   6.729  20.820  0.00  0.00    +0.000 C 
ATOM     21  C   UNL     1       1.839   5.380  20.704  0.00  0.00    +0.000 C 
ATOM     22  C   UNL     1       2.244   5.072  19.266  0.00  0.00    +0.000 C 
ATOM     23  C   UNL     1       3.148   6.204  18.741  0.00  0.00    +0.000 C 
ATOM     24  C   UNL     1       2.468   7.580  18.834  0.00  0.00    +0.000 C 
BRANCH  22  25
ATOM     25  N   UNL     1       2.969   3.787  19.177  0.00  0.00    +0.000 NA
ATOM     26  H   UNL     1       3.843   3.711  19.701  0.00  0.00    +0.000 HD
BRANCH  25  27
ATOM     27  S   UNL     1       3.048   2.903  17.743  0.00  0.00    +0.000 S 
ATOM     28  C   UNL     1       4.510   3.553  16.958  0.00  0.00    +0.000 C 
ATOM     29  O   UNL     1       3.335   1.543  18.145  0.00  0.00    +0.000 OA
ATOM     30  O   UNL     1       1.903   3.211  16.919  0.00  0.00    +0.000 OA
ENDBRANCH  25  27
ENDBRANCH  22  25
ENDBRANCH  16  19
ENDBRANCH   2  15
BRANCH   6  31
ATOM     31  C   UNL     1       0.374  14.773  19.956  0.00  0.00    +0.000 C 
ATOM     32  C   UNL     1      -0.852  15.689  20.178  0.00  0.00    +0.000 C 
ATOM     33  C   UNL     1       1.196  14.737  21.263  0.00  0.00    +0.000 C 
ATOM     34  C   UNL     1       1.288  15.494  18.923  0.00  0.00    +0.000 C 
ENDBRANCH   6  31
BRANCH   1  36
ATOM     35  C   UNL     1       2.667  12.388  17.998  0.00  0.00    +0.000 C 
ATOM     36  O   UNL     1       2.053  12.377  19.293  0.00  0.00    +0.000 OA
ENDBRANCH   1  36
TORSDOF 7
ENDMDL
