MODEL 1
REMARK VINA RESULT:      -6.1      0.000      0.000
REMARK  Name = 
REMARK  1 active torsions:
REMARK  status: ('A' for Active; 'I' for Inactive)
REMARK    1  A    between atoms: N_1  and  C_2
REMARK                            x       y       z     vdW  Elec       q    Type
REMARK                         _______ _______ _______ _____ _____    ______ ____
ROOT
ATOM      1  C   UNL     1       2.516   2.356  19.417  0.00  0.00    +0.000 C 
ATOM      2  C   UNL     1       1.856   2.939  20.664  0.00  0.00    +0.000 C 
ATOM      3  C   UNL     1       1.021   4.142  20.265  0.00  0.00    +0.000 C 
ATOM      4  O   UNL     1       1.837   5.191  19.738  0.00  0.00    +0.000 OA
ATOM      5  C   UNL     1       2.741   4.804  18.779  0.00  0.00    +0.000 A 
ATOM      6  C   UNL     1       3.333   5.814  18.004  0.00  0.00    +0.000 A 
ATOM      7 CL   UNL     1       2.912   7.477  18.218  0.00  0.00    +0.000 Cl
ATOM      8  C   UNL     1       4.283   5.500  17.032  0.00  0.00    +0.000 A 
ATOM      9  C   UNL     1       4.650   4.173  16.838  0.00  0.00    +0.000 A 
ATOM     10 CL   UNL     1       5.824   3.776  15.645  0.00  0.00    +0.000 Cl
ATOM     11  C   UNL     1       4.078   3.160  17.608  0.00  0.00    +0.000 A 
ATOM     12  C   UNL     1       3.119   3.465  18.588  0.00  0.00    +0.000 A 
ENDROOT
BRANCH   1  13
ATOM     13  N   UNL     1       1.536   1.606  18.631  0.00  0.00    +0.000 NA
ATOM     14  H   UNL     1       1.904   0.679  18.419  0.00  0.00    +0.000 HD
ATOM     15  H   UNL     1       1.390   2.065  17.732  0.00  0.00    +0.000 HD
ENDBRANCH   1  13
TORSDOF 1
ENDMDL
MODEL 2
REMARK VINA RESULT:      -6.0      2.860      4.207
REMARK  Name = 
REMARK  1 active torsions:
REMARK  status: ('A' for Active; 'I' for Inactive)
REMARK    1  A    between atoms: N_1  and  C_2
REMARK                            x       y       z     vdW  Elec       q    Type
REMARK                         _______ _______ _______ _____ _____    ______ ____
ROOT
ATOM      1  C   UNL     1       6.310   4.528  16.981  0.00  0.00    +0.000 C 
ATOM      2  C   UNL     1       6.862   5.820  16.383  0.00  0.00    +0.000 C 
ATOM      3  C   UNL     1       6.457   6.986  17.268  0.00  0.00    +0.000 C 
ATOM      4  O   UNL     1       5.038   7.151  17.292  0.00  0.00    +0.000 OA
ATOM      5  C   UNL     1       4.318   6.006  17.526  0.00  0.00    +0.000 A 
ATOM      6  C   UNL     1       2.966   6.152  17.880  0.00  0.00    +0.000 A 
ATOM      7 CL   UNL     1       2.246   7.713  18.055  0.00  0.00    +0.000 Cl
ATOM      8  C   UNL     1       2.165   5.032  18.102  0.00  0.00    +0.000 A 
ATOM      9  C   UNL     1       2.711   3.761  17.963  0.00  0.00    +0.000 A 
ATOM     10 CL   UNL     1       1.729   2.374  18.230  0.00  0.00    +0.000 Cl
ATOM     11  C   UNL     1       4.049   3.600  17.602  0.00  0.00    +0.000 A 
ATOM     12  C   UNL     1       4.866   4.721  17.377  0.00  0.00    +0.000 A 
ENDROOT
BRANCH   1  13
ATOM     13  N   UNL     1       7.109   4.124  18.139  0.00  0.00    +0.000 NA
ATOM     14  H   UNL     1       7.556   4.943  18.549  0.00  0.00    +0.000 HD
ATOM     15  H   UNL     1       7.865   3.509  17.838  0.00  0.00    +0.000 HD
ENDBRANCH   1  13
TORSDOF 1
ENDMDL
MODEL 3
REMARK VINA RESULT:      -6.0      2.722      4.067
REMARK  Name = 
REMARK  1 active torsions:
REMARK  status: ('A' for Active; 'I' for Inactive)
REMARK    1  A    between atoms: N_1  and  C_2
REMARK                            x       y       z     vdW  Elec       q    Type
REMARK                         _______ _______ _______ _____ _____    ______ ____
ROOT
ATOM      1  C   UNL     1       4.929   4.399  16.077  0.00  0.00    +0.000 C 
ATOM      2  C   UNL     1       5.391   5.787  15.643  0.00  0.00    +0.000 C 
ATOM      3  C   UNL     1       5.602   6.646  16.877  0.00  0.00    +0.000 C 
ATOM      4  O   UNL     1       4.375   6.854  17.581  0.00  0.00    +0.000 OA
ATOM      5  C   UNL     1       3.637   5.721  17.818  0.00  0.00    +0.000 A 
ATOM      6  C   UNL     1       2.606   5.807  18.768  0.00  0.00    +0.000 A 
ATOM      7 CL   UNL     1       2.304   7.270  19.638  0.00  0.00    +0.000 Cl
ATOM      8  C   UNL     1       1.793   4.705  19.038  0.00  0.00    +0.000 A 
ATOM      9  C   UNL     1       2.005   3.515  18.351  0.00  0.00    +0.000 A 
ATOM     10 CL   UNL     1       1.005   2.153  18.673  0.00  0.00    +0.000 Cl
ATOM     11  C   UNL     1       3.017   3.417  17.397  0.00  0.00    +0.000 A 
ATOM     12  C   UNL     1       3.842   4.520  17.118  0.00  0.00    +0.000 A 
ENDROOT
BRANCH   1  13
ATOM     13  N   UNL     1       6.059   3.632  16.604  0.00  0.00    +0.000 NA
ATOM     14  H   UNL     1       6.455   3.054  15.864  0.00  0.00    +0.000 HD
ATOM     15  H   UNL     1       5.732   2.987  17.323  0.00  0.00    +0.000 HD
ENDBRANCH   1  13
TORSDOF 1
ENDMDL
MODEL 4
REMARK VINA RESULT:      -5.9      2.850      4.122
REMARK  Name = 
REMARK  1 active torsions:
REMARK  status: ('A' for Active; 'I' for Inactive)
REMARK    1  A    between atoms: N_1  and  C_2
REMARK                            x       y       z     vdW  Elec       q    Type
REMARK                         _______ _______ _______ _____ _____    ______ ____
ROOT
ATOM      1  C   UNL     1       4.981   4.173  17.641  0.00  0.00    +0.000 C 
ATOM      2  C   UNL     1       5.045   5.188  16.503  0.00  0.00    +0.000 C 
ATOM      3  C   UNL     1       5.094   6.587  17.091  0.00  0.00    +0.000 C 
ATOM      4  O   UNL     1       3.896   6.891  17.809  0.00  0.00    +0.000 OA
ATOM      5  C   UNL     1       3.488   5.932  18.702  0.00  0.00    +0.000 A 
ATOM      6  C   UNL     1       2.523   6.301  19.653  0.00  0.00    +0.000 A 
ATOM      7 CL   UNL     1       1.903   7.913  19.726  0.00  0.00    +0.000 Cl
ATOM      8  C   UNL     1       2.038   5.371  20.573  0.00  0.00    +0.000 A 
ATOM      9  C   UNL     1       2.511   4.064  20.537  0.00  0.00    +0.000 A 
ATOM     10 CL   UNL     1       1.914   2.908  21.664  0.00  0.00    +0.000 Cl
ATOM     11  C   UNL     1       3.461   3.679  19.592  0.00  0.00    +0.000 A 
ATOM     12  C   UNL     1       3.958   4.608  18.662  0.00  0.00    +0.000 A 
ENDROOT
BRANCH   1  13
ATOM     13  N   UNL     1       6.297   4.028  18.265  0.00  0.00    +0.000 NA
ATOM     14  H   UNL     1       6.950   4.688  17.844  0.00  0.00    +0.000 HD
ATOM     15  H   UNL     1       6.670   3.099  18.073  0.00  0.00    +0.000 HD
ENDBRANCH   1  13
TORSDOF 1
ENDMDL
MODEL 5
REMARK VINA RESULT:      -5.9      2.620      3.416
REMARK  Name = 
REMARK  1 active torsions:
REMARK  status: ('A' for Active; 'I' for Inactive)
REMARK    1  A    between atoms: N_1  and  C_2
REMARK                            x       y       z     vdW  Elec       q    Type
REMARK                         _______ _______ _______ _____ _____    ______ ____
ROOT
ATOM      1  C   UNL     1       4.281   3.417  19.617  0.00  0.00    +0.000 C 
ATOM      2  C   UNL     1       2.990   2.941  18.957  0.00  0.00    +0.000 C 
ATOM      3  C   UNL     1       3.318   2.357  17.594  0.00  0.00    +0.000 C 
ATOM      4  O   UNL     1       3.853   3.352  16.717  0.00  0.00    +0.000 OA
ATOM      5  C   UNL     1       4.861   4.118  17.246  0.00  0.00    +0.000 A 
ATOM      6  C   UNL     1       5.635   4.876  16.352  0.00  0.00    +0.000 A 
ATOM      7 CL   UNL     1       5.356   4.816  14.647  0.00  0.00    +0.000 Cl
ATOM      8  C   UNL     1       6.657   5.702  16.819  0.00  0.00    +0.000 A 
ATOM      9  C   UNL     1       6.904   5.779  18.186  0.00  0.00    +0.000 A 
ATOM     10 CL   UNL     1       8.159   6.799  18.772  0.00  0.00    +0.000 Cl
ATOM     11  C   UNL     1       6.137   5.040  19.087  0.00  0.00    +0.000 A 
ATOM     12  C   UNL     1       5.106   4.204  18.627  0.00  0.00    +0.000 A 
ENDROOT
BRANCH   1  13
ATOM     13  N   UNL     1       5.043   2.274  20.122  0.00  0.00    +0.000 NA
ATOM     14  H   UNL     1       5.645   2.574  20.887  0.00  0.00    +0.000 HD
ATOM     15  H   UNL     1       5.664   1.924  19.393  0.00  0.00    +0.000 HD
ENDBRANCH   1  13
TORSDOF 1
ENDMDL
MODEL 6
REMARK VINA RESULT:      -5.9      1.024      1.160
REMARK  Name = 
REMARK  1 active torsions:
REMARK  status: ('A' for Active; 'I' for Inactive)
REMARK    1  A    between atoms: N_1  and  C_2
REMARK                            x       y       z     vdW  Elec       q    Type
REMARK                         _______ _______ _______ _____ _____    ______ ____
ROOT
ATOM      1  C   UNL     1       2.764   2.575  19.230  0.00  0.00    +0.000 C 
ATOM      2  C   UNL     1       2.179   2.595  20.640  0.00  0.00    +0.000 C 
ATOM      3  C   UNL     1       1.088   3.649  20.708  0.00  0.00    +0.000 C 
ATOM      4  O   UNL     1       1.618   4.959  20.495  0.00  0.00    +0.000 OA
ATOM      5  C   UNL     1       2.442   5.088  19.405  0.00  0.00    +0.000 A 
ATOM      6  C   UNL     1       2.728   6.390  18.960  0.00  0.00    +0.000 A 
ATOM      7 CL   UNL     1       2.037   7.775  19.728  0.00  0.00    +0.000 Cl
ATOM      8  C   UNL     1       3.583   6.600  17.877  0.00  0.00    +0.000 A 
ATOM      9  C   UNL     1       4.161   5.507  17.240  0.00  0.00    +0.000 A 
ATOM     10 CL   UNL     1       5.220   5.756  15.908  0.00  0.00    +0.000 Cl
ATOM     11  C   UNL     1       3.895   4.209  17.677  0.00  0.00    +0.000 A 
ATOM     12  C   UNL     1       3.035   3.986  18.766  0.00  0.00    +0.000 A 
ENDROOT
BRANCH   1  13
ATOM     13  N   UNL     1       1.845   1.902  18.310  0.00  0.00    +0.000 NA
ATOM     14  H   UNL     1       1.149   1.382  18.842  0.00  0.00    +0.000 HD
ATOM     15  H   UNL     1       2.354   1.213  17.758  0.00  0.00    +0.000 HD
ENDBRANCH   1  13
TORSDOF 1
ENDMDL
MODEL 7
REMARK VINA RESULT:      -5.8      2.018      3.616
REMARK  Name = 
REMARK  1 active torsions:
REMARK  status: ('A' for Active; 'I' for Inactive)
REMARK    1  A    between atoms: N_1  and  C_2
REMARK                            x       y       z     vdW  Elec       q    Type
REMARK                         _______ _______ _______ _____ _____    ______ ____
ROOT
ATOM      1  C   UNL     1       1.452   3.211  20.720  0.00  0.00    +0.000 C 
ATOM      2  C   UNL     1       1.641   2.073  19.721  0.00  0.00    +0.000 C 
ATOM      3  C   UNL     1       3.032   2.169  19.120  0.00  0.00    +0.000 C 
ATOM      4  O   UNL     1       3.191   3.372  18.365  0.00  0.00    +0.000 OA
ATOM      5  C   UNL     1       2.784   4.520  18.999  0.00  0.00    +0.000 A 
ATOM      6  C   UNL     1       3.204   5.744  18.454  0.00  0.00    +0.000 A 
ATOM      7 CL   UNL     1       4.229   5.805  17.063  0.00  0.00    +0.000 Cl
ATOM      8  C   UNL     1       2.804   6.952  19.026  0.00  0.00    +0.000 A 
ATOM      9  C   UNL     1       1.974   6.939  20.142  0.00  0.00    +0.000 A 
ATOM     10 CL   UNL     1       1.471   8.423  20.850  0.00  0.00    +0.000 Cl
ATOM     11  C   UNL     1       1.539   5.731  20.687  0.00  0.00    +0.000 A 
ATOM     12  C   UNL     1       1.938   4.509  20.120  0.00  0.00    +0.000 A 
ENDROOT
BRANCH   1  13
ATOM     13  N   UNL     1       2.172   2.920  21.961  0.00  0.00    +0.000 NA
ATOM     14  H   UNL     1       2.440   3.793  22.414  0.00  0.00    +0.000 HD
ATOM     15  H   UNL     1       3.043   2.433  21.748  0.00  0.00    +0.000 HD
ENDBRANCH   1  13
TORSDOF 1
ENDMDL
MODEL 8
REMARK VINA RESULT:      -5.8      1.773      3.114
REMARK  Name = 
REMARK  1 active torsions:
REMARK  status: ('A' for Active; 'I' for Inactive)
REMARK    1  A    between atoms: N_1  and  C_2
REMARK                            x       y       z     vdW  Elec       q    Type
REMARK                         _______ _______ _______ _____ _____    ______ ____
ROOT
ATOM      1  C   UNL     1       1.196   3.576  18.797  0.00  0.00    +0.000 C 
ATOM      2  C   UNL     1       1.654   2.148  18.516  0.00  0.00    +0.000 C 
ATOM      3  C   UNL     1       3.045   1.952  19.094  0.00  0.00    +0.000 C 
ATOM      4  O   UNL     1       4.000   2.796  18.447  0.00  0.00    +0.000 OA
ATOM      5  C   UNL     1       3.633   4.113  18.328  0.00  0.00    +0.000 A 
ATOM      6  C   UNL     1       4.639   5.039  18.003  0.00  0.00    +0.000 A 
ATOM      7 CL   UNL     1       6.283   4.546  17.803  0.00  0.00    +0.000 Cl
ATOM      8  C   UNL     1       4.335   6.390  17.836  0.00  0.00    +0.000 A 
ATOM      9  C   UNL     1       3.020   6.818  17.984  0.00  0.00    +0.000 A 
ATOM     10 CL   UNL     1       2.635   8.482  17.773  0.00  0.00    +0.000 Cl
ATOM     11  C   UNL     1       2.009   5.910  18.295  0.00  0.00    +0.000 A 
ATOM     12  C   UNL     1       2.304   4.547  18.468  0.00  0.00    +0.000 A 
ENDROOT
BRANCH   1  13
ATOM     13  N   UNL     1       0.797   3.712  20.199  0.00  0.00    +0.000 NA
ATOM     14  H   UNL     1       0.063   3.038  20.414  0.00  0.00    +0.000 HD
ATOM     15  H   UNL     1       0.390   4.634  20.354  0.00  0.00    +0.000 HD
ENDBRANCH   1  13
TORSDOF 1
ENDMDL
MODEL 9
REMARK VINA RESULT:      -5.8      2.525      2.955
REMARK  Name = 
REMARK  1 active torsions:
REMARK  status: ('A' for Active; 'I' for Inactive)
REMARK    1  A    between atoms: N_1  and  C_2
REMARK                            x       y       z     vdW  Elec       q    Type
REMARK                         _______ _______ _______ _____ _____    ______ ____
ROOT
ATOM      1  C   UNL     1       3.560   2.866  17.479  0.00  0.00    +0.000 C 
ATOM      2  C   UNL     1       3.525   2.418  18.938  0.00  0.00    +0.000 C 
ATOM      3  C   UNL     1       3.859   3.603  19.827  0.00  0.00    +0.000 C 
ATOM      4  O   UNL     1       5.192   4.065  19.600  0.00  0.00    +0.000 OA
ATOM      5  C   UNL     1       5.531   4.251  18.283  0.00  0.00    +0.000 A 
ATOM      6  C   UNL     1       6.691   4.997  18.012  0.00  0.00    +0.000 A 
ATOM      7 CL   UNL     1       7.632   5.690  19.285  0.00  0.00    +0.000 Cl
ATOM      8  C   UNL     1       7.114   5.201  16.698  0.00  0.00    +0.000 A 
ATOM      9  C   UNL     1       6.384   4.651  15.651  0.00  0.00    +0.000 A 
ATOM     10 CL   UNL     1       6.902   4.893  14.028  0.00  0.00    +0.000 Cl
ATOM     11  C   UNL     1       5.237   3.899  15.904  0.00  0.00    +0.000 A 
ATOM     12  C   UNL     1       4.800   3.688  17.223  0.00  0.00    +0.000 A 
ENDROOT
BRANCH   1  13
ATOM     13  N   UNL     1       2.359   3.638  17.158  0.00  0.00    +0.000 NA
ATOM     14  H   UNL     1       1.546   3.203  17.593  0.00  0.00    +0.000 HD
ATOM     15  H   UNL     1       2.191   3.612  16.153  0.00  0.00    +0.000 HD
ENDBRANCH   1  13
TORSDOF 1
ENDMDL
