MODEL 1
REMARK VINA RESULT:      -6.5      0.000      0.000
REMARK  Name = 
REMARK  4 active torsions:
REMARK  status: ('A' for Active; 'I' for Inactive)
REMARK    1  A    between atoms: C_2  and  C_3
REMARK    2  A    between atoms: C_8  and  C_10
REMARK    3  A    between atoms: C_10  and  C_11
REMARK    4  A    between atoms: N_14  and  C_15
REMARK                            x       y       z     vdW  Elec       q    Type
REMARK                         _______ _______ _______ _____ _____    ______ ____
ROOT
ATOM      1  C   UNL     1      -0.405  11.024  22.014  0.00  0.00    +0.000 A 
ATOM      2  C   UNL     1      -0.053   9.825  22.632  0.00  0.00    +0.000 A 
ATOM      3  C   UNL     1       0.662   8.857  21.912  0.00  0.00    +0.000 A 
ATOM      4  C   UNL     1       1.010   9.117  20.589  0.00  0.00    +0.000 A 
ATOM      5  N   UNL     1       1.712   8.137  19.865  0.00  0.00    +0.000 N 
ATOM      6  C   UNL     1       2.125   8.303  18.554  0.00  0.00    +0.000 C 
ATOM      7  O   UNL     1       1.916   9.283  17.848  0.00  0.00    +0.000 OA
ATOM      8  N   UNL     1       0.680  10.280  19.999  0.00  0.00    +0.000 NA
ATOM      9  C   UNL     1      -0.013  11.203  20.703  0.00  0.00    +0.000 A 
ATOM     10  H   UNL     1       1.930   7.275  20.342  0.00  0.00    +0.000 HD
ENDROOT
BRANCH   1  12
ATOM     11  N   UNL     1      -1.762  12.853  23.241  0.00  0.00    +0.000 NA
ATOM     12  C   UNL     1      -1.150  12.036  22.691  0.00  0.00    +0.000 C 
ENDBRANCH   1  12
BRANCH   6  13
ATOM     13  C   UNL     1       2.851   7.093  17.980  0.00  0.00    +0.000 C 
BRANCH  13  14
ATOM     14  C   UNL     1       2.556   5.811  18.775  0.00  0.00    +0.000 C 
ATOM     15  C   UNL     1       1.993   4.696  17.898  0.00  0.00    +0.000 C 
ATOM     16  C   UNL     1       2.159   3.457  18.765  0.00  0.00    +0.000 C 
ATOM     17  N   UNL     1       3.424   3.689  19.496  0.00  0.00    +0.000 N 
ATOM     18  C   UNL     1       3.778   5.136  19.417  0.00  0.00    +0.000 C 
BRANCH  17  19
ATOM     19  C   UNL     1       4.235   2.730  19.959  0.00  0.00    +0.000 C 
ATOM     20  N   UNL     1       4.936   1.891  20.340  0.00  0.00    +0.000 NA
ENDBRANCH  17  19
ENDBRANCH  13  14
ENDBRANCH   6  13
TORSDOF 4
ENDMDL
MODEL 2
REMARK VINA RESULT:      -6.4      6.430      7.536
REMARK  Name = 
REMARK  4 active torsions:
REMARK  status: ('A' for Active; 'I' for Inactive)
REMARK    1  A    between atoms: C_2  and  C_3
REMARK    2  A    between atoms: C_8  and  C_10
REMARK    3  A    between atoms: C_10  and  C_11
REMARK    4  A    between atoms: N_14  and  C_15
REMARK                            x       y       z     vdW  Elec       q    Type
REMARK                         _______ _______ _______ _____ _____    ______ ____
ROOT
ATOM      1  C   UNL     1       9.641  12.779  18.818  0.00  0.00    +0.000 A 
ATOM      2  C   UNL     1      10.113  12.080  19.927  0.00  0.00    +0.000 A 
ATOM      3  C   UNL     1       9.851  10.708  20.044  0.00  0.00    +0.000 A 
ATOM      4  C   UNL     1       9.123  10.069  19.044  0.00  0.00    +0.000 A 
ATOM      5  N   UNL     1       8.848   8.696  19.174  0.00  0.00    +0.000 N 
ATOM      6  C   UNL     1       8.153   7.962  18.227  0.00  0.00    +0.000 C 
ATOM      7  O   UNL     1       7.666   8.395  17.190  0.00  0.00    +0.000 OA
ATOM      8  N   UNL     1       8.679  10.744  17.969  0.00  0.00    +0.000 NA
ATOM      9  C   UNL     1       8.935  12.067  17.869  0.00  0.00    +0.000 A 
ATOM     10  H   UNL     1       9.190   8.230  20.001  0.00  0.00    +0.000 HD
ENDROOT
BRANCH   1  12
ATOM     11  N   UNL     1      10.040  15.320  18.531  0.00  0.00    +0.000 NA
ATOM     12  C   UNL     1       9.859  14.181  18.656  0.00  0.00    +0.000 C 
ENDBRANCH   1  12
BRANCH   6  13
ATOM     13  C   UNL     1       7.965   6.497  18.603  0.00  0.00    +0.000 C 
BRANCH  13  14
ATOM     14  C   UNL     1       6.654   5.921  18.046  0.00  0.00    +0.000 C 
ATOM     15  C   UNL     1       6.890   4.885  16.950  0.00  0.00    +0.000 C 
ATOM     16  C   UNL     1       5.543   4.183  16.842  0.00  0.00    +0.000 C 
ATOM     17  N   UNL     1       5.035   4.154  18.231  0.00  0.00    +0.000 N 
ATOM     18  C   UNL     1       5.794   5.142  19.053  0.00  0.00    +0.000 C 
BRANCH  17  19
ATOM     19  C   UNL     1       4.191   3.241  18.726  0.00  0.00    +0.000 C 
ATOM     20  N   UNL     1       3.457   2.463  19.172  0.00  0.00    +0.000 NA
ENDBRANCH  17  19
ENDBRANCH  13  14
ENDBRANCH   6  13
TORSDOF 4
ENDMDL
MODEL 3
REMARK VINA RESULT:      -6.3      5.849      6.674
REMARK  Name = 
REMARK  4 active torsions:
REMARK  status: ('A' for Active; 'I' for Inactive)
REMARK    1  A    between atoms: C_2  and  C_3
REMARK    2  A    between atoms: C_8  and  C_10
REMARK    3  A    between atoms: C_10  and  C_11
REMARK    4  A    between atoms: N_14  and  C_15
REMARK                            x       y       z     vdW  Elec       q    Type
REMARK                         _______ _______ _______ _____ _____    ______ ____
ROOT
ATOM      1  C   UNL     1       8.209   8.594  18.188  0.00  0.00    +0.000 A 
ATOM      2  C   UNL     1       8.559   7.509  18.991  0.00  0.00    +0.000 A 
ATOM      3  C   UNL     1       7.856   6.302  18.869  0.00  0.00    +0.000 A 
ATOM      4  C   UNL     1       6.822   6.210  17.941  0.00  0.00    +0.000 A 
ATOM      5  N   UNL     1       6.109   5.003  17.833  0.00  0.00    +0.000 N 
ATOM      6  C   UNL     1       5.079   4.800  16.930  0.00  0.00    +0.000 C 
ATOM      7  O   UNL     1       4.634   5.627  16.142  0.00  0.00    +0.000 OA
ATOM      8  N   UNL     1       6.495   7.255  17.159  0.00  0.00    +0.000 NA
ATOM      9  C   UNL     1       7.177   8.415  17.290  0.00  0.00    +0.000 A 
ATOM     10  H   UNL     1       6.379   4.249  18.446  0.00  0.00    +0.000 HD
ENDROOT
BRANCH   1  12
ATOM     11  N   UNL     1       9.412  10.878  18.368  0.00  0.00    +0.000 NA
ATOM     12  C   UNL     1       8.875   9.853  18.284  0.00  0.00    +0.000 C 
ENDBRANCH   1  12
BRANCH   6  13
ATOM     13  C   UNL     1       4.449   3.416  17.017  0.00  0.00    +0.000 C 
BRANCH  13  14
ATOM     14  C   UNL     1       3.116   3.435  17.781  0.00  0.00    +0.000 C 
ATOM     15  C   UNL     1       2.348   2.122  17.649  0.00  0.00    +0.000 C 
ATOM     16  C   UNL     1       1.316   2.211  18.764  0.00  0.00    +0.000 C 
ATOM     17  N   UNL     1       2.019   2.917  19.856  0.00  0.00    +0.000 N 
ATOM     18  C   UNL     1       3.229   3.594  19.305  0.00  0.00    +0.000 C 
BRANCH  17  19
ATOM     19  C   UNL     1       1.746   2.789  21.160  0.00  0.00    +0.000 C 
ATOM     20  N   UNL     1       1.529   2.668  22.292  0.00  0.00    +0.000 NA
ENDBRANCH  17  19
ENDBRANCH  13  14
ENDBRANCH   6  13
TORSDOF 4
ENDMDL
MODEL 4
REMARK VINA RESULT:      -6.3      3.430      4.464
REMARK  Name = 
REMARK  4 active torsions:
REMARK  status: ('A' for Active; 'I' for Inactive)
REMARK    1  A    between atoms: C_2  and  C_3
REMARK    2  A    between atoms: C_8  and  C_10
REMARK    3  A    between atoms: C_10  and  C_11
REMARK    4  A    between atoms: N_14  and  C_15
REMARK                            x       y       z     vdW  Elec       q    Type
REMARK                         _______ _______ _______ _____ _____    ______ ____
ROOT
ATOM      1  C   UNL     1       0.961   9.640  19.444  0.00  0.00    +0.000 A 
ATOM      2  C   UNL     1       1.460   9.598  18.143  0.00  0.00    +0.000 A 
ATOM      3  C   UNL     1       2.250   8.513  17.738  0.00  0.00    +0.000 A 
ATOM      4  C   UNL     1       2.517   7.493  18.648  0.00  0.00    +0.000 A 
ATOM      5  N   UNL     1       3.323   6.414  18.243  0.00  0.00    +0.000 N 
ATOM      6  C   UNL     1       3.631   5.340  19.060  0.00  0.00    +0.000 C 
ATOM      7  O   UNL     1       3.283   5.194  20.227  0.00  0.00    +0.000 OA
ATOM      8  N   UNL     1       2.024   7.530  19.898  0.00  0.00    +0.000 NA
ATOM      9  C   UNL     1       1.267   8.584  20.277  0.00  0.00    +0.000 A 
ATOM     10  H   UNL     1       3.682   6.431  17.300  0.00  0.00    +0.000 HD
ENDROOT
BRANCH   1  12
ATOM     11  N   UNL     1      -0.468  11.621  20.300  0.00  0.00    +0.000 NA
ATOM     12  C   UNL     1       0.170  10.730  19.918  0.00  0.00    +0.000 C 
ENDBRANCH   1  12
BRANCH   6  13
ATOM     13  C   UNL     1       4.537   4.307  18.402  0.00  0.00    +0.000 C 
BRANCH  13  14
ATOM     14  C   UNL     1       5.251   4.870  17.163  0.00  0.00    +0.000 C 
ATOM     15  C   UNL     1       6.763   4.662  17.215  0.00  0.00    +0.000 C 
ATOM     16  C   UNL     1       7.195   4.908  15.777  0.00  0.00    +0.000 C 
ATOM     17  N   UNL     1       6.082   4.370  14.964  0.00  0.00    +0.000 N 
ATOM     18  C   UNL     1       4.876   4.208  15.827  0.00  0.00    +0.000 C 
BRANCH  17  19
ATOM     19  C   UNL     1       6.196   3.895  13.718  0.00  0.00    +0.000 C 
ATOM     20  N   UNL     1       6.280   3.499  12.632  0.00  0.00    +0.000 NA
ENDBRANCH  17  19
ENDBRANCH  13  14
ENDBRANCH   6  13
TORSDOF 4
ENDMDL
MODEL 5
REMARK VINA RESULT:      -6.0      3.112      7.763
REMARK  Name = 
REMARK  4 active torsions:
REMARK  status: ('A' for Active; 'I' for Inactive)
REMARK    1  A    between atoms: C_2  and  C_3
REMARK    2  A    between atoms: C_8  and  C_10
REMARK    3  A    between atoms: C_10  and  C_11
REMARK    4  A    between atoms: N_14  and  C_15
REMARK                            x       y       z     vdW  Elec       q    Type
REMARK                         _______ _______ _______ _____ _____    ______ ____
ROOT
ATOM      1  C   UNL     1       3.691   5.285  19.115  0.00  0.00    +0.000 A 
ATOM      2  C   UNL     1       3.893   6.061  17.975  0.00  0.00    +0.000 A 
ATOM      3  C   UNL     1       3.211   7.278  17.836  0.00  0.00    +0.000 A 
ATOM      4  C   UNL     1       2.344   7.689  18.845  0.00  0.00    +0.000 A 
ATOM      5  N   UNL     1       1.649   8.901  18.693  0.00  0.00    +0.000 N 
ATOM      6  C   UNL     1       0.781   9.410  19.645  0.00  0.00    +0.000 C 
ATOM      7  O   UNL     1       0.480   8.880  20.708  0.00  0.00    +0.000 OA
ATOM      8  N   UNL     1       2.160   6.943  19.949  0.00  0.00    +0.000 NA
ATOM      9  C   UNL     1       2.821   5.770  20.070  0.00  0.00    +0.000 A 
ATOM     10  H   UNL     1       1.807   9.424  17.845  0.00  0.00    +0.000 HD
ENDROOT
BRANCH   1  12
ATOM     11  N   UNL     1       4.878   3.010  19.452  0.00  0.00    +0.000 NA
ATOM     12  C   UNL     1       4.342   4.028  19.301  0.00  0.00    +0.000 C 
ENDBRANCH   1  12
BRANCH   6  13
ATOM     13  C   UNL     1       0.134  10.730  19.243  0.00  0.00    +0.000 C 
BRANCH  13  14
ATOM     14  C   UNL     1      -1.287  10.533  18.692  0.00  0.00    +0.000 C 
ATOM     15  C   UNL     1      -2.063  11.844  18.595  0.00  0.00    +0.000 C 
ATOM     16  C   UNL     1      -3.230  11.488  17.685  0.00  0.00    +0.000 C 
ATOM     17  N   UNL     1      -2.658  10.525  16.718  0.00  0.00    +0.000 N 
ATOM     18  C   UNL     1      -1.370   9.997  17.254  0.00  0.00    +0.000 C 
BRANCH  17  19
ATOM     19  C   UNL     1      -3.102  10.326  15.471  0.00  0.00    +0.000 C 
ATOM     20  N   UNL     1      -3.467  10.147  14.386  0.00  0.00    +0.000 NA
ENDBRANCH  17  19
ENDBRANCH  13  14
ENDBRANCH   6  13
TORSDOF 4
ENDMDL
MODEL 6
REMARK VINA RESULT:      -6.0      6.160      7.403
REMARK  Name = 
REMARK  4 active torsions:
REMARK  status: ('A' for Active; 'I' for Inactive)
REMARK    1  A    between atoms: C_2  and  C_3
REMARK    2  A    between atoms: C_8  and  C_10
REMARK    3  A    between atoms: C_10  and  C_11
REMARK    4  A    between atoms: N_14  and  C_15
REMARK                            x       y       z     vdW  Elec       q    Type
REMARK                         _______ _______ _______ _____ _____    ______ ____
ROOT
ATOM      1  C   UNL     1       9.726  12.004  19.278  0.00  0.00    +0.000 A 
ATOM      2  C   UNL     1       8.940  12.228  18.149  0.00  0.00    +0.000 A 
ATOM      3  C   UNL     1       8.274  11.153  17.543  0.00  0.00    +0.000 A 
ATOM      4  C   UNL     1       8.410   9.879  18.088  0.00  0.00    +0.000 A 
ATOM      5  N   UNL     1       7.754   8.801  17.467  0.00  0.00    +0.000 N 
ATOM      6  C   UNL     1       7.805   7.500  17.939  0.00  0.00    +0.000 C 
ATOM      7  O   UNL     1       8.434   7.108  18.915  0.00  0.00    +0.000 OA
ATOM      8  N   UNL     1       9.158   9.668  19.185  0.00  0.00    +0.000 NA
ATOM      9  C   UNL     1       9.799  10.712  19.757  0.00  0.00    +0.000 A 
ATOM     10  H   UNL     1       7.212   9.001  16.640  0.00  0.00    +0.000 HD
ENDROOT
BRANCH   1  12
ATOM     11  N   UNL     1      11.027  13.915  20.441  0.00  0.00    +0.000 NA
ATOM     12  C   UNL     1      10.443  13.056  19.924  0.00  0.00    +0.000 C 
ENDBRANCH   1  12
BRANCH   6  13
ATOM     13  C   UNL     1       7.029   6.506  17.085  0.00  0.00    +0.000 C 
BRANCH  13  14
ATOM     14  C   UNL     1       5.805   5.941  17.823  0.00  0.00    +0.000 C 
ATOM     15  C   UNL     1       4.487   6.356  17.174  0.00  0.00    +0.000 C 
ATOM     16  C   UNL     1       3.480   5.395  17.789  0.00  0.00    +0.000 C 
ATOM     17  N   UNL     1       4.231   4.128  17.940  0.00  0.00    +0.000 N 
ATOM     18  C   UNL     1       5.692   4.408  17.839  0.00  0.00    +0.000 C 
BRANCH  17  19
ATOM     19  C   UNL     1       3.687   2.905  17.943  0.00  0.00    +0.000 C 
ATOM     20  N   UNL     1       3.213   1.848  17.924  0.00  0.00    +0.000 NA
ENDBRANCH  17  19
ENDBRANCH  13  14
ENDBRANCH   6  13
TORSDOF 4
ENDMDL
MODEL 7
REMARK VINA RESULT:      -5.9      3.191      4.242
REMARK  Name = 
REMARK  4 active torsions:
REMARK  status: ('A' for Active; 'I' for Inactive)
REMARK    1  A    between atoms: C_2  and  C_3
REMARK    2  A    between atoms: C_8  and  C_10
REMARK    3  A    between atoms: C_10  and  C_11
REMARK    4  A    between atoms: N_14  and  C_15
REMARK                            x       y       z     vdW  Elec       q    Type
REMARK                         _______ _______ _______ _____ _____    ______ ____
ROOT
ATOM      1  C   UNL     1       1.195   9.113  20.290  0.00  0.00    +0.000 A 
ATOM      2  C   UNL     1       1.451   9.297  18.932  0.00  0.00    +0.000 A 
ATOM      3  C   UNL     1       1.995   8.245  18.180  0.00  0.00    +0.000 A 
ATOM      4  C   UNL     1       2.265   7.032  18.808  0.00  0.00    +0.000 A 
ATOM      5  N   UNL     1       2.825   5.986  18.055  0.00  0.00    +0.000 N 
ATOM      6  C   UNL     1       3.112   4.736  18.576  0.00  0.00    +0.000 C 
ATOM      7  O   UNL     1       2.953   4.382  19.739  0.00  0.00    +0.000 OA
ATOM      8  N   UNL     1       2.005   6.854  20.116  0.00  0.00    +0.000 NA
ATOM      9  C   UNL     1       1.485   7.877  20.830  0.00  0.00    +0.000 A 
ATOM     10  H   UNL     1       3.015   6.166  17.080  0.00  0.00    +0.000 HD
ENDROOT
BRANCH   1  12
ATOM     11  N   UNL     1       0.228  11.004  21.768  0.00  0.00    +0.000 NA
ATOM     12  C   UNL     1       0.663  10.154  21.109  0.00  0.00    +0.000 C 
ENDBRANCH   1  12
BRANCH   6  13
ATOM     13  C   UNL     1       3.732   3.777  17.568  0.00  0.00    +0.000 C 
BRANCH  13  14
ATOM     14  C   UNL     1       5.166   4.181  17.191  0.00  0.00    +0.000 C 
ATOM     15  C   UNL     1       5.290   4.601  15.728  0.00  0.00    +0.000 C 
ATOM     16  C   UNL     1       6.632   5.319  15.688  0.00  0.00    +0.000 C 
ATOM     17  N   UNL     1       6.718   6.006  16.995  0.00  0.00    +0.000 N 
ATOM     18  C   UNL     1       5.722   5.408  17.931  0.00  0.00    +0.000 C 
BRANCH  17  19
ATOM     19  C   UNL     1       7.412   7.125  17.234  0.00  0.00    +0.000 C 
ATOM     20  N   UNL     1       7.993   8.104  17.445  0.00  0.00    +0.000 NA
ENDBRANCH  17  19
ENDBRANCH  13  14
ENDBRANCH   6  13
TORSDOF 4
ENDMDL
MODEL 8
REMARK VINA RESULT:      -5.9      2.495      2.940
REMARK  Name = 
REMARK  4 active torsions:
REMARK  status: ('A' for Active; 'I' for Inactive)
REMARK    1  A    between atoms: C_2  and  C_3
REMARK    2  A    between atoms: C_8  and  C_10
REMARK    3  A    between atoms: C_10  and  C_11
REMARK    4  A    between atoms: N_14  and  C_15
REMARK                            x       y       z     vdW  Elec       q    Type
REMARK                         _______ _______ _______ _____ _____    ______ ____
ROOT
ATOM      1  C   UNL     1      -0.092  10.684  21.578  0.00  0.00    +0.000 A 
ATOM      2  C   UNL     1       0.281   9.737  22.530  0.00  0.00    +0.000 A 
ATOM      3  C   UNL     1       1.001   8.601  22.133  0.00  0.00    +0.000 A 
ATOM      4  C   UNL     1       1.333   8.445  20.789  0.00  0.00    +0.000 A 
ATOM      5  N   UNL     1       2.041   7.297  20.392  0.00  0.00    +0.000 N 
ATOM      6  C   UNL     1       2.439   7.056  19.088  0.00  0.00    +0.000 C 
ATOM      7  O   UNL     1       2.211   7.769  18.118  0.00  0.00    +0.000 OA
ATOM      8  N   UNL     1       0.983   9.367  19.875  0.00  0.00    +0.000 NA
ATOM      9  C   UNL     1       0.285  10.455  20.270  0.00  0.00    +0.000 A 
ATOM     10  H   UNL     1       2.275   6.625  21.108  0.00  0.00    +0.000 HD
ENDROOT
BRANCH   1  12
ATOM     11  N   UNL     1      -1.461  12.792  22.196  0.00  0.00    +0.000 NA
ATOM     12  C   UNL     1      -0.844  11.848  21.921  0.00  0.00    +0.000 C 
ENDBRANCH   1  12
BRANCH   6  13
ATOM     13  C   UNL     1       3.175   5.735  18.905  0.00  0.00    +0.000 C 
BRANCH  13  14
ATOM     14  C   UNL     1       4.637   5.942  18.478  0.00  0.00    +0.000 C 
ATOM     15  C   UNL     1       5.553   4.823  18.967  0.00  0.00    +0.000 C 
ATOM     16  C   UNL     1       6.805   5.007  18.121  0.00  0.00    +0.000 C 
ATOM     17  N   UNL     1       6.295   5.456  16.807  0.00  0.00    +0.000 N 
ATOM     18  C   UNL     1       4.890   5.932  16.962  0.00  0.00    +0.000 C 
BRANCH  17  19
ATOM     19  C   UNL     1       6.909   5.262  15.634  0.00  0.00    +0.000 C 
ATOM     20  N   UNL     1       7.444   5.115  14.617  0.00  0.00    +0.000 NA
ENDBRANCH  17  19
ENDBRANCH  13  14
ENDBRANCH   6  13
TORSDOF 4
ENDMDL
MODEL 9
REMARK VINA RESULT:      -5.8      2.791      3.478
REMARK  Name = 
REMARK  4 active torsions:
REMARK  status: ('A' for Active; 'I' for Inactive)
REMARK    1  A    between atoms: C_2  and  C_3
REMARK    2  A    between atoms: C_8  and  C_10
REMARK    3  A    between atoms: C_10  and  C_11
REMARK    4  A    between atoms: N_14  and  C_15
REMARK                            x       y       z     vdW  Elec       q    Type
REMARK                         _______ _______ _______ _____ _____    ______ ____
ROOT
ATOM      1  C   UNL     1       0.253  10.093  21.501  0.00  0.00    +0.000 A 
ATOM      2  C   UNL     1       0.801  10.375  20.251  0.00  0.00    +0.000 A 
ATOM      3  C   UNL     1       1.471   9.366  19.544  0.00  0.00    +0.000 A 
ATOM      4  C   UNL     1       1.572   8.096  20.107  0.00  0.00    +0.000 A 
ATOM      5  N   UNL     1       2.258   7.092  19.402  0.00  0.00    +0.000 N 
ATOM      6  C   UNL     1       2.397   5.793  19.862  0.00  0.00    +0.000 C 
ATOM      7  O   UNL     1       1.982   5.354  20.928  0.00  0.00    +0.000 OA
ATOM      8  N   UNL     1       1.030   7.824  21.308  0.00  0.00    +0.000 NA
ATOM      9  C   UNL     1       0.391   8.806  21.981  0.00  0.00    +0.000 A 
ATOM     10  H   UNL     1       2.659   7.341  18.511  0.00  0.00    +0.000 HD
ENDROOT
BRANCH   1  12
ATOM     11  N   UNL     1      -0.963  11.897  22.902  0.00  0.00    +0.000 NA
ATOM     12  C   UNL     1      -0.421  11.086  22.275  0.00  0.00    +0.000 C 
ENDBRANCH   1  12
BRANCH   6  13
ATOM     13  C   UNL     1       3.199   4.894  18.930  0.00  0.00    +0.000 C 
BRANCH  13  14
ATOM     14  C   UNL     1       4.468   5.587  18.408  0.00  0.00    +0.000 C 
ATOM     15  C   UNL     1       5.737   5.063  19.075  0.00  0.00    +0.000 C 
ATOM     16  C   UNL     1       6.843   5.565  18.158  0.00  0.00    +0.000 C 
ATOM     17  N   UNL     1       6.254   5.491  16.803  0.00  0.00    +0.000 N 
ATOM     18  C   UNL     1       4.771   5.374  16.916  0.00  0.00    +0.000 C 
BRANCH  17  19
ATOM     19  C   UNL     1       6.946   5.330  15.669  0.00  0.00    +0.000 C 
ATOM     20  N   UNL     1       7.553   5.210  14.689  0.00  0.00    +0.000 NA
ENDBRANCH  17  19
ENDBRANCH  13  14
ENDBRANCH   6  13
TORSDOF 4
ENDMDL
