MODEL 1
REMARK VINA RESULT:      -9.3      0.000      0.000
REMARK  Name = 
REMARK  13 active torsions:
REMARK  status: ('A' for Active; 'I' for Inactive)
REMARK    1  A    between atoms: C_1  and  O_2
REMARK    2  A    between atoms: O_2  and  C_3
REMARK    3  A    between atoms: C_6  and  C_7
REMARK    4  A    between atoms: C_10  and  C_11
REMARK    5  A    between atoms: C_13  and  C_14
REMARK    6  A    between atoms: C_14  and  C_15
REMARK    7  A    between atoms: C_14  and  C_19
REMARK    8  A    between atoms: C_15  and  C_16
REMARK    9  A    between atoms: C_16  and  O_18
REMARK   10  A    between atoms: C_19  and  O_21
REMARK   11  A    between atoms: C_23  and  C_24
REMARK   12  A    between atoms: C_28  and  C_29
REMARK   13  A    between atoms: C_36  and  O_37
REMARK                            x       y       z     vdW  Elec       q    Type
REMARK                         _______ _______ _______ _____ _____    ______ ____
ROOT
ATOM      1  C   UNL     1       4.628   5.054  17.426  0.00  0.00    +0.000 A 
ATOM      2  C   UNL     1       4.470   3.986  18.340  0.00  0.00    +0.000 A 
ATOM      3  C   UNL     1       3.620   4.049  19.463  0.00  0.00    +0.000 A 
ATOM      4  C   UNL     1       2.955   5.249  19.724  0.00  0.00    +0.000 A 
ATOM      5  C   UNL     1       3.040   6.328  18.840  0.00  0.00    +0.000 A 
ATOM      6  C   UNL     1       3.869   6.221  17.702  0.00  0.00    +0.000 A 
ENDROOT
BRANCH   5   7
ATOM      7  C   UNL     1       2.261   7.542  19.106  0.00  0.00    +0.000 A 
ATOM      8  N   UNL     1       1.726   8.336  18.196  0.00  0.00    +0.000 NA
ATOM      9  C   UNL     1       1.085   9.332  18.899  0.00  0.00    +0.000 A 
ATOM     10  C   UNL     1       0.397  10.458  18.435  0.00  0.00    +0.000 A 
ATOM     11  C   UNL     1      -0.211  11.300  19.382  0.00  0.00    +0.000 A 
ATOM     12  C   UNL     1      -0.118  11.024  20.757  0.00  0.00    +0.000 A 
ATOM     13  C   UNL     1       0.586   9.918  21.231  0.00  0.00    +0.000 A 
ATOM     14  C   UNL     1       1.172   9.101  20.267  0.00  0.00    +0.000 A 
ATOM     15  N   UNL     1       1.928   7.971  20.369  0.00  0.00    +0.000 N 
ATOM     16  H   UNL     1       2.185   7.515  21.234  0.00  0.00    +0.000 HD
BRANCH  11  17
ATOM     17  C   UNL     1      -0.956  12.507  18.940  0.00  0.00    +0.000 C 
ATOM     18  N   UNL     1      -1.741  13.181  19.718  0.00  0.00    +0.000 NA
ATOM     19  N   UNL     1      -0.836  12.957  17.658  0.00  0.00    +0.000 N 
ATOM     20  H   UNL     1      -1.743  12.805  20.670  0.00  0.00    +0.000 HD
ATOM     21  H   UNL     1      -0.766  12.244  16.942  0.00  0.00    +0.000 HD
ATOM     22  H   UNL     1      -1.556  13.643  17.452  0.00  0.00    +0.000 HD
ENDBRANCH  11  17
ENDBRANCH   5   7
BRANCH   1  28
ATOM     23  C   UNL     1       6.926   5.451  16.296  0.00  0.00    +0.000 A 
ATOM     24  C   UNL     1       7.767   5.308  15.174  0.00  0.00    +0.000 A 
ATOM     25  C   UNL     1       7.316   4.688  14.012  0.00  0.00    +0.000 A 
ATOM     26  C   UNL     1       6.014   4.208  13.953  0.00  0.00    +0.000 A 
ATOM     27  C   UNL     1       5.171   4.359  15.062  0.00  0.00    +0.000 A 
ATOM     28  C   UNL     1       5.597   4.951  16.276  0.00  0.00    +0.000 A 
BRANCH  23  30
ATOM     29  C   UNL     1       7.496   7.450  17.437  0.00  0.00    +0.000 C 
ATOM     30  O   UNL     1       7.401   6.025  17.455  0.00  0.00    +0.000 OA
ENDBRANCH  23  30
BRANCH  26  31
ATOM     31  C   UNL     1       5.541   3.554  12.768  0.00  0.00    +0.000 C 
ATOM     32  N   UNL     1       5.154   3.040  11.802  0.00  0.00    +0.000 NA
ENDBRANCH  26  31
ENDBRANCH   1  28
BRANCH   6  33
ATOM     33  O   UNL     1       3.923   7.283  16.824  0.00  0.00    +0.000 OA
ATOM     34  H   UNL     1       4.464   7.993  17.239  0.00  0.00    +0.000 HD
ENDBRANCH   6  33
BRANCH   3  35
ATOM     35  C   UNL     1       3.487   2.845  20.385  0.00  0.00    +0.000 C 
BRANCH  35  36
ATOM     36  C   UNL     1       4.587   1.792  20.273  0.00  0.00    +0.000 C 
ATOM     37  O   UNL     1       5.427   1.614  21.149  0.00  0.00    +0.000 OA
BRANCH  36  38
ATOM     38  O   UNL     1       4.605   1.085  19.123  0.00  0.00    +0.000 OA
ATOM     39  H   UNL     1       5.172   0.286  19.139  0.00  0.00    +0.000 HD
ENDBRANCH  36  38
ENDBRANCH  35  36
BRANCH  35  40
ATOM     40  C   UNL     1       2.115   2.169  20.268  0.00  0.00    +0.000 C 
BRANCH  40  41
ATOM     41  C   UNL     1       1.071   2.802  21.155  0.00  0.00    +0.000 C 
ATOM     42  O   UNL     1       1.014   2.626  22.362  0.00  0.00    +0.000 OA
BRANCH  41  43
ATOM     43  O   UNL     1       0.218   3.625  20.509  0.00  0.00    +0.000 OA
ATOM     44  H   UNL     1       0.500   3.880  19.599  0.00  0.00    +0.000 HD
ENDBRANCH  41  43
ENDBRANCH  40  41
ENDBRANCH  35  40
ENDBRANCH   3  35
TORSDOF 12
ENDMDL
MODEL 2
REMARK VINA RESULT:      -9.2      0.579      2.002
REMARK  Name = 
REMARK  13 active torsions:
REMARK  status: ('A' for Active; 'I' for Inactive)
REMARK    1  A    between atoms: C_1  and  O_2
REMARK    2  A    between atoms: O_2  and  C_3
REMARK    3  A    between atoms: C_6  and  C_7
REMARK    4  A    between atoms: C_10  and  C_11
REMARK    5  A    between atoms: C_13  and  C_14
REMARK    6  A    between atoms: C_14  and  C_15
REMARK    7  A    between atoms: C_14  and  C_19
REMARK    8  A    between atoms: C_15  and  C_16
REMARK    9  A    between atoms: C_16  and  O_18
REMARK   10  A    between atoms: C_19  and  O_21
REMARK   11  A    between atoms: C_23  and  C_24
REMARK   12  A    between atoms: C_28  and  C_29
REMARK   13  A    between atoms: C_36  and  O_37
REMARK                            x       y       z     vdW  Elec       q    Type
REMARK                         _______ _______ _______ _____ _____    ______ ____
ROOT
ATOM      1  C   UNL     1       4.365   5.025  17.184  0.00  0.00    +0.000 A 
ATOM      2  C   UNL     1       3.970   3.893  17.934  0.00  0.00    +0.000 A 
ATOM      3  C   UNL     1       3.007   3.944  18.962  0.00  0.00    +0.000 A 
ATOM      4  C   UNL     1       2.467   5.187  19.303  0.00  0.00    +0.000 A 
ATOM      5  C   UNL     1       2.786   6.336  18.576  0.00  0.00    +0.000 A 
ATOM      6  C   UNL     1       3.725   6.246  17.524  0.00  0.00    +0.000 A 
ENDROOT
BRANCH   5   7
ATOM      7  C   UNL     1       2.135   7.607  18.910  0.00  0.00    +0.000 A 
ATOM      8  N   UNL     1       1.727   8.521  18.048  0.00  0.00    +0.000 NA
ATOM      9  C   UNL     1       1.170   9.527  18.806  0.00  0.00    +0.000 A 
ATOM     10  C   UNL     1       0.629  10.754  18.410  0.00  0.00    +0.000 A 
ATOM     11  C   UNL     1       0.079  11.587  19.400  0.00  0.00    +0.000 A 
ATOM     12  C   UNL     1       0.087  11.202  20.752  0.00  0.00    +0.000 A 
ATOM     13  C   UNL     1       0.647   9.992  21.159  0.00  0.00    +0.000 A 
ATOM     14  C   UNL     1       1.177   9.189  20.154  0.00  0.00    +0.000 A 
ATOM     15  N   UNL     1       1.800   7.976  20.192  0.00  0.00    +0.000 N 
ATOM     16  H   UNL     1       1.972   7.432  21.026  0.00  0.00    +0.000 HD
BRANCH  11  17
ATOM     17  C   UNL     1      -0.511  12.900  19.029  0.00  0.00    +0.000 C 
ATOM     18  N   UNL     1      -0.799  13.229  17.811  0.00  0.00    +0.000 NA
ATOM     19  N   UNL     1      -0.774  13.831  19.991  0.00  0.00    +0.000 N 
ATOM     20  H   UNL     1      -0.612  12.463  17.159  0.00  0.00    +0.000 HD
ATOM     21  H   UNL     1      -0.101  13.892  20.745  0.00  0.00    +0.000 HD
ATOM     22  H   UNL     1      -0.966  14.734  19.568  0.00  0.00    +0.000 HD
ENDBRANCH  11  17
ENDBRANCH   5   7
BRANCH   1  28
ATOM     23  C   UNL     1       6.755   5.447  16.277  0.00  0.00    +0.000 A 
ATOM     24  C   UNL     1       7.705   5.301  15.246  0.00  0.00    +0.000 A 
ATOM     25  C   UNL     1       7.381   4.654  14.056  0.00  0.00    +0.000 A 
ATOM     26  C   UNL     1       6.099   4.149  13.880  0.00  0.00    +0.000 A 
ATOM     27  C   UNL     1       5.149   4.302  14.897  0.00  0.00    +0.000 A 
ATOM     28  C   UNL     1       5.443   4.922  16.136  0.00  0.00    +0.000 A 
BRANCH  23  30
ATOM     29  C   UNL     1       7.487   7.421  17.367  0.00  0.00    +0.000 C 
ATOM     30  O   UNL     1       7.104   6.049  17.467  0.00  0.00    +0.000 OA
ENDBRANCH  23  30
BRANCH  26  31
ATOM     31  C   UNL     1       5.757   3.466  12.666  0.00  0.00    +0.000 C 
ATOM     32  N   UNL     1       5.467   2.926  11.680  0.00  0.00    +0.000 NA
ENDBRANCH  26  31
ENDBRANCH   1  28
BRANCH   6  33
ATOM     33  O   UNL     1       4.012   7.382  16.798  0.00  0.00    +0.000 OA
ATOM     34  H   UNL     1       4.040   8.143  17.422  0.00  0.00    +0.000 HD
ENDBRANCH   6  33
BRANCH   3  35
ATOM     35  C   UNL     1       2.620   2.674  19.707  0.00  0.00    +0.000 C 
BRANCH  35  36
ATOM     36  C   UNL     1       1.139   2.530  20.054  0.00  0.00    +0.000 C 
ATOM     37  O   UNL     1       0.284   2.267  19.215  0.00  0.00    +0.000 OA
BRANCH  36  38
ATOM     38  O   UNL     1       0.817   2.747  21.347  0.00  0.00    +0.000 OA
ATOM     39  H   UNL     1       0.014   3.289  21.487  0.00  0.00    +0.000 HD
ENDBRANCH  36  38
ENDBRANCH  35  36
BRANCH  35  40
ATOM     40  C   UNL     1       3.466   2.455  20.967  0.00  0.00    +0.000 C 
BRANCH  40  41
ATOM     41  C   UNL     1       4.697   1.621  20.708  0.00  0.00    +0.000 C 
ATOM     42  O   UNL     1       5.539   1.379  21.560  0.00  0.00    +0.000 OA
BRANCH  41  43
ATOM     43  O   UNL     1       4.778   1.122  19.457  0.00  0.00    +0.000 OA
ATOM     44  H   UNL     1       5.191   1.727  18.796  0.00  0.00    +0.000 HD
ENDBRANCH  41  43
ENDBRANCH  40  41
ENDBRANCH  35  40
ENDBRANCH   3  35
TORSDOF 12
ENDMDL
MODEL 3
REMARK VINA RESULT:      -9.2      0.896      1.122
REMARK  Name = 
REMARK  13 active torsions:
REMARK  status: ('A' for Active; 'I' for Inactive)
REMARK    1  A    between atoms: C_1  and  O_2
REMARK    2  A    between atoms: O_2  and  C_3
REMARK    3  A    between atoms: C_6  and  C_7
REMARK    4  A    between atoms: C_10  and  C_11
REMARK    5  A    between atoms: C_13  and  C_14
REMARK    6  A    between atoms: C_14  and  C_15
REMARK    7  A    between atoms: C_14  and  C_19
REMARK    8  A    between atoms: C_15  and  C_16
REMARK    9  A    between atoms: C_16  and  O_18
REMARK   10  A    between atoms: C_19  and  O_21
REMARK   11  A    between atoms: C_23  and  C_24
REMARK   12  A    between atoms: C_28  and  C_29
REMARK   13  A    between atoms: C_36  and  O_37
REMARK                            x       y       z     vdW  Elec       q    Type
REMARK                         _______ _______ _______ _____ _____    ______ ____
ROOT
ATOM      1  C   UNL     1       4.539   5.127  17.535  0.00  0.00    +0.000 A 
ATOM      2  C   UNL     1       4.348   4.026  18.403  0.00  0.00    +0.000 A 
ATOM      3  C   UNL     1       3.494   4.065  19.523  0.00  0.00    +0.000 A 
ATOM      4  C   UNL     1       2.856   5.270  19.830  0.00  0.00    +0.000 A 
ATOM      5  C   UNL     1       2.973   6.381  18.992  0.00  0.00    +0.000 A 
ATOM      6  C   UNL     1       3.807   6.300  17.854  0.00  0.00    +0.000 A 
ENDROOT
BRANCH   5   7
ATOM      7  C   UNL     1       2.223   7.603  19.303  0.00  0.00    +0.000 A 
ATOM      8  N   UNL     1       1.800   8.497  18.428  0.00  0.00    +0.000 NA
ATOM      9  C   UNL     1       1.140   9.456  19.165  0.00  0.00    +0.000 A 
ATOM     10  C   UNL     1       0.540  10.650  18.752  0.00  0.00    +0.000 A 
ATOM     11  C   UNL     1      -0.114  11.433  19.719  0.00  0.00    +0.000 A 
ATOM     12  C   UNL     1      -0.150  11.033  21.066  0.00  0.00    +0.000 A 
ATOM     13  C   UNL     1       0.467   9.858  21.492  0.00  0.00    +0.000 A 
ATOM     14  C   UNL     1       1.101   9.103  20.508  0.00  0.00    +0.000 A 
ATOM     15  N   UNL     1       1.800   7.934  20.568  0.00  0.00    +0.000 N 
ATOM     16  H   UNL     1       1.964   7.392  21.405  0.00  0.00    +0.000 HD
BRANCH  11  17
ATOM     17  C   UNL     1      -0.770  12.708  19.329  0.00  0.00    +0.000 C 
ATOM     18  N   UNL     1      -0.161  13.850  19.337  0.00  0.00    +0.000 NA
ATOM     19  N   UNL     1      -2.078  12.717  18.941  0.00  0.00    +0.000 N 
ATOM     20  H   UNL     1       0.824  13.751  19.599  0.00  0.00    +0.000 HD
ATOM     21  H   UNL     1      -2.693  12.085  19.439  0.00  0.00    +0.000 HD
ATOM     22  H   UNL     1      -2.435  13.668  18.918  0.00  0.00    +0.000 HD
ENDBRANCH  11  17
ENDBRANCH   5   7
BRANCH   1  28
ATOM     23  C   UNL     1       6.830   5.575  16.411  0.00  0.00    +0.000 A 
ATOM     24  C   UNL     1       7.676   5.452  15.291  0.00  0.00    +0.000 A 
ATOM     25  C   UNL     1       7.241   4.826  14.125  0.00  0.00    +0.000 A 
ATOM     26  C   UNL     1       5.949   4.319  14.063  0.00  0.00    +0.000 A 
ATOM     27  C   UNL     1       5.101   4.450  15.170  0.00  0.00    +0.000 A 
ATOM     28  C   UNL     1       5.512   5.047  16.387  0.00  0.00    +0.000 A 
BRANCH  23  30
ATOM     29  C   UNL     1       7.544   7.559  17.495  0.00  0.00    +0.000 C 
ATOM     30  O   UNL     1       7.290   6.155  17.572  0.00  0.00    +0.000 OA
ENDBRANCH  23  30
BRANCH  26  31
ATOM     31  C   UNL     1       5.493   3.658  12.875  0.00  0.00    +0.000 C 
ATOM     32  N   UNL     1       5.111   3.114  11.924  0.00  0.00    +0.000 NA
ENDBRANCH  26  31
ENDBRANCH   1  28
BRANCH   6  33
ATOM     33  O   UNL     1       3.893   7.396  17.021  0.00  0.00    +0.000 OA
ATOM     34  H   UNL     1       3.716   8.201  17.559  0.00  0.00    +0.000 HD
ENDBRANCH   6  33
BRANCH   3  35
ATOM     35  C   UNL     1       3.324   2.828  20.394  0.00  0.00    +0.000 C 
BRANCH  35  36
ATOM     36  C   UNL     1       4.469   1.818  20.351  0.00  0.00    +0.000 C 
ATOM     37  O   UNL     1       5.258   1.670  21.278  0.00  0.00    +0.000 OA
BRANCH  36  38
ATOM     38  O   UNL     1       4.587   1.116  19.203  0.00  0.00    +0.000 OA
ATOM     39  H   UNL     1       4.906   0.197  19.314  0.00  0.00    +0.000 HD
ENDBRANCH  36  38
ENDBRANCH  35  36
BRANCH  35  40
ATOM     40  C   UNL     1       1.995   2.108  20.135  0.00  0.00    +0.000 C 
BRANCH  40  41
ATOM     41  C   UNL     1       1.525   2.241  18.707  0.00  0.00    +0.000 C 
ATOM     42  O   UNL     1       0.621   2.987  18.361  0.00  0.00    +0.000 OA
BRANCH  41  43
ATOM     43  O   UNL     1       2.218   1.495  17.822  0.00  0.00    +0.000 OA
ATOM     44  H   UNL     1       3.187   1.679  17.795  0.00  0.00    +0.000 HD
ENDBRANCH  41  43
ENDBRANCH  40  41
ENDBRANCH  35  40
ENDBRANCH   3  35
TORSDOF 12
ENDMDL
MODEL 4
REMARK VINA RESULT:      -9.0      1.094      1.706
REMARK  Name = 
REMARK  13 active torsions:
REMARK  status: ('A' for Active; 'I' for Inactive)
REMARK    1  A    between atoms: C_1  and  O_2
REMARK    2  A    between atoms: O_2  and  C_3
REMARK    3  A    between atoms: C_6  and  C_7
REMARK    4  A    between atoms: C_10  and  C_11
REMARK    5  A    between atoms: C_13  and  C_14
REMARK    6  A    between atoms: C_14  and  C_15
REMARK    7  A    between atoms: C_14  and  C_19
REMARK    8  A    between atoms: C_15  and  C_16
REMARK    9  A    between atoms: C_16  and  O_18
REMARK   10  A    between atoms: C_19  and  O_21
REMARK   11  A    between atoms: C_23  and  C_24
REMARK   12  A    between atoms: C_28  and  C_29
REMARK   13  A    between atoms: C_36  and  O_37
REMARK                            x       y       z     vdW  Elec       q    Type
REMARK                         _______ _______ _______ _____ _____    ______ ____
ROOT
ATOM      1  C   UNL     1       4.548   5.068  17.531  0.00  0.00    +0.000 A 
ATOM      2  C   UNL     1       4.372   3.965  18.399  0.00  0.00    +0.000 A 
ATOM      3  C   UNL     1       3.520   3.993  19.521  0.00  0.00    +0.000 A 
ATOM      4  C   UNL     1       2.869   5.190  19.830  0.00  0.00    +0.000 A 
ATOM      5  C   UNL     1       2.971   6.303  18.992  0.00  0.00    +0.000 A 
ATOM      6  C   UNL     1       3.803   6.232  17.852  0.00  0.00    +0.000 A 
ENDROOT
BRANCH   5   7
ATOM      7  C   UNL     1       2.207   7.516  19.306  0.00  0.00    +0.000 A 
ATOM      8  N   UNL     1       1.706   7.833  20.486  0.00  0.00    +0.000 NA
ATOM      9  C   UNL     1       1.086   9.051  20.313  0.00  0.00    +0.000 A 
ATOM     10  C   UNL     1       0.354   9.823  21.221  0.00  0.00    +0.000 A 
ATOM     11  C   UNL     1      -0.137  11.067  20.788  0.00  0.00    +0.000 A 
ATOM     12  C   UNL     1       0.088  11.514  19.476  0.00  0.00    +0.000 A 
ATOM     13  C   UNL     1       0.795  10.741  18.556  0.00  0.00    +0.000 A 
ATOM     14  C   UNL     1       1.273   9.518  19.017  0.00  0.00    +0.000 A 
ATOM     15  N   UNL     1       1.976   8.525  18.401  0.00  0.00    +0.000 N 
ATOM     16  H   UNL     1       2.289   8.538  17.440  0.00  0.00    +0.000 HD
BRANCH  11  17
ATOM     17  C   UNL     1      -0.918  11.926  21.717  0.00  0.00    +0.000 C 
ATOM     18  N   UNL     1      -0.616  12.077  22.966  0.00  0.00    +0.000 NA
ATOM     19  N   UNL     1      -2.015  12.601  21.269  0.00  0.00    +0.000 N 
ATOM     20  H   UNL     1       0.241  11.572  23.211  0.00  0.00    +0.000 HD
ATOM     21  H   UNL     1      -2.591  12.114  20.593  0.00  0.00    +0.000 HD
ATOM     22  H   UNL     1      -2.555  12.960  22.051  0.00  0.00    +0.000 HD
ENDBRANCH  11  17
ENDBRANCH   5   7
BRANCH   1  28
ATOM     23  C   UNL     1       6.836   5.532  16.406  0.00  0.00    +0.000 A 
ATOM     24  C   UNL     1       7.680   5.420  15.284  0.00  0.00    +0.000 A 
ATOM     25  C   UNL     1       7.244   4.803  14.114  0.00  0.00    +0.000 A 
ATOM     26  C   UNL     1       5.953   4.293  14.050  0.00  0.00    +0.000 A 
ATOM     27  C   UNL     1       5.107   4.412  15.160  0.00  0.00    +0.000 A 
ATOM     28  C   UNL     1       5.518   5.001  16.380  0.00  0.00    +0.000 A 
BRANCH  23  30
ATOM     29  C   UNL     1       7.498   7.517  17.520  0.00  0.00    +0.000 C 
ATOM     30  O   UNL     1       7.297   6.103  17.572  0.00  0.00    +0.000 OA
ENDBRANCH  23  30
BRANCH  26  31
ATOM     31  C   UNL     1       5.496   3.641  12.858  0.00  0.00    +0.000 C 
ATOM     32  N   UNL     1       5.143   3.106  11.889  0.00  0.00    +0.000 NA
ENDBRANCH  26  31
ENDBRANCH   1  28
BRANCH   6  33
ATOM     33  O   UNL     1       3.873   7.330  17.020  0.00  0.00    +0.000 OA
ATOM     34  H   UNL     1       3.045   7.364  16.491  0.00  0.00    +0.000 HD
ENDBRANCH   6  33
BRANCH   3  35
ATOM     35  C   UNL     1       3.367   2.754  20.392  0.00  0.00    +0.000 C 
BRANCH  35  36
ATOM     36  C   UNL     1       4.517   1.750  20.333  0.00  0.00    +0.000 C 
ATOM     37  O   UNL     1       5.347   1.639  21.229  0.00  0.00    +0.000 OA
BRANCH  36  38
ATOM     38  O   UNL     1       4.590   1.009  19.207  0.00  0.00    +0.000 OA
ATOM     39  H   UNL     1       5.087   0.169  19.298  0.00  0.00    +0.000 HD
ENDBRANCH  36  38
ENDBRANCH  35  36
BRANCH  35  40
ATOM     40  C   UNL     1       2.039   2.027  20.147  0.00  0.00    +0.000 C 
BRANCH  40  41
ATOM     41  C   UNL     1       1.535   2.189  18.734  0.00  0.00    +0.000 C 
ATOM     42  O   UNL     1       0.606   2.922  18.429  0.00  0.00    +0.000 OA
BRANCH  41  43
ATOM     43  O   UNL     1       2.225   1.484  17.813  0.00  0.00    +0.000 OA
ATOM     44  H   UNL     1       1.667   0.970  17.183  0.00  0.00    +0.000 HD
ENDBRANCH  41  43
ENDBRANCH  40  41
ENDBRANCH  35  40
ENDBRANCH   3  35
TORSDOF 12
ENDMDL
MODEL 5
REMARK VINA RESULT:      -8.9      0.802      1.416
REMARK  Name = 
REMARK  13 active torsions:
REMARK  status: ('A' for Active; 'I' for Inactive)
REMARK    1  A    between atoms: C_1  and  O_2
REMARK    2  A    between atoms: O_2  and  C_3
REMARK    3  A    between atoms: C_6  and  C_7
REMARK    4  A    between atoms: C_10  and  C_11
REMARK    5  A    between atoms: C_13  and  C_14
REMARK    6  A    between atoms: C_14  and  C_15
REMARK    7  A    between atoms: C_14  and  C_19
REMARK    8  A    between atoms: C_15  and  C_16
REMARK    9  A    between atoms: C_16  and  O_18
REMARK   10  A    between atoms: C_19  and  O_21
REMARK   11  A    between atoms: C_23  and  C_24
REMARK   12  A    between atoms: C_28  and  C_29
REMARK   13  A    between atoms: C_36  and  O_37
REMARK                            x       y       z     vdW  Elec       q    Type
REMARK                         _______ _______ _______ _____ _____    ______ ____
ROOT
ATOM      1  C   UNL     1       4.617   4.887  17.287  0.00  0.00    +0.000 A 
ATOM      2  C   UNL     1       4.468   3.781  18.156  0.00  0.00    +0.000 A 
ATOM      3  C   UNL     1       3.668   3.811  19.316  0.00  0.00    +0.000 A 
ATOM      4  C   UNL     1       3.046   5.014  19.661  0.00  0.00    +0.000 A 
ATOM      5  C   UNL     1       3.122   6.131  18.826  0.00  0.00    +0.000 A 
ATOM      6  C   UNL     1       3.900   6.058  17.649  0.00  0.00    +0.000 A 
ENDROOT
BRANCH   5   7
ATOM      7  C   UNL     1       2.387   7.350  19.181  0.00  0.00    +0.000 A 
ATOM      8  N   UNL     1       2.002   7.697  20.396  0.00  0.00    +0.000 NA
ATOM      9  C   UNL     1       1.363   8.909  20.252  0.00  0.00    +0.000 A 
ATOM     10  C   UNL     1       0.720   9.703  21.207  0.00  0.00    +0.000 A 
ATOM     11  C   UNL     1       0.183  10.934  20.792  0.00  0.00    +0.000 A 
ATOM     12  C   UNL     1       0.277  11.348  19.453  0.00  0.00    +0.000 A 
ATOM     13  C   UNL     1       0.895  10.552  18.488  0.00  0.00    +0.000 A 
ATOM     14  C   UNL     1       1.421   9.342  18.933  0.00  0.00    +0.000 A 
ATOM     15  N   UNL     1       2.065   8.334  18.277  0.00  0.00    +0.000 N 
ATOM     16  H   UNL     1       2.283   8.323  17.290  0.00  0.00    +0.000 HD
BRANCH  11  17
ATOM     17  C   UNL     1      -0.508  11.816  21.770  0.00  0.00    +0.000 C 
ATOM     18  N   UNL     1      -0.685  11.495  23.011  0.00  0.00    +0.000 NA
ATOM     19  N   UNL     1      -0.995  13.028  21.377  0.00  0.00    +0.000 N 
ATOM     20  H   UNL     1      -0.256  10.593  23.233  0.00  0.00    +0.000 HD
ATOM     21  H   UNL     1      -1.398  13.065  20.449  0.00  0.00    +0.000 HD
ATOM     22  H   UNL     1      -1.616  13.408  22.086  0.00  0.00    +0.000 HD
ENDBRANCH  11  17
ENDBRANCH   5   7
BRANCH   1  28
ATOM     23  C   UNL     1       6.869   5.298  16.074  0.00  0.00    +0.000 A 
ATOM     24  C   UNL     1       7.659   5.186  14.912  0.00  0.00    +0.000 A 
ATOM     25  C   UNL     1       7.149   4.618  13.748  0.00  0.00    +0.000 A 
ATOM     26  C   UNL     1       5.839   4.158  13.728  0.00  0.00    +0.000 A 
ATOM     27  C   UNL     1       5.047   4.277  14.877  0.00  0.00    +0.000 A 
ATOM     28  C   UNL     1       5.533   4.816  16.093  0.00  0.00    +0.000 A 
BRANCH  23  30
ATOM     29  C   UNL     1       7.422   7.246  17.306  0.00  0.00    +0.000 C 
ATOM     30  O   UNL     1       7.402   5.820  17.232  0.00  0.00    +0.000 OA
ENDBRANCH  23  30
BRANCH  26  31
ATOM     31  C   UNL     1       5.306   3.555  12.541  0.00  0.00    +0.000 C 
ATOM     32  N   UNL     1       4.891   3.069  11.572  0.00  0.00    +0.000 NA
ENDBRANCH  26  31
ENDBRANCH   1  28
BRANCH   6  33
ATOM     33  O   UNL     1       3.945   7.159  16.821  0.00  0.00    +0.000 OA
ATOM     34  H   UNL     1       4.830   7.578  16.919  0.00  0.00    +0.000 HD
ENDBRANCH   6  33
BRANCH   3  35
ATOM     35  C   UNL     1       3.542   2.569  20.187  0.00  0.00    +0.000 C 
BRANCH  35  36
ATOM     36  C   UNL     1       4.570   1.468  19.933  0.00  0.00    +0.000 C 
ATOM     37  O   UNL     1       5.491   1.229  20.706  0.00  0.00    +0.000 OA
BRANCH  36  38
ATOM     38  O   UNL     1       4.426   0.789  18.774  0.00  0.00    +0.000 OA
ATOM     39  H   UNL     1       5.263   0.590  18.307  0.00  0.00    +0.000 HD
ENDBRANCH  36  38
ENDBRANCH  35  36
BRANCH  35  40
ATOM     40  C   UNL     1       2.130   1.971  20.149  0.00  0.00    +0.000 C 
BRANCH  40  41
ATOM     41  C   UNL     1       1.170   2.676  21.076  0.00  0.00    +0.000 C 
ATOM     42  O   UNL     1       1.233   2.605  22.294  0.00  0.00    +0.000 OA
BRANCH  41  43
ATOM     43  O   UNL     1       0.249   3.437  20.449  0.00  0.00    +0.000 OA
ATOM     44  H   UNL     1       0.271   3.384  19.464  0.00  0.00    +0.000 HD
ENDBRANCH  41  43
ENDBRANCH  40  41
ENDBRANCH  35  40
ENDBRANCH   3  35
TORSDOF 12
ENDMDL
MODEL 6
REMARK VINA RESULT:      -8.9      1.027      2.412
REMARK  Name = 
REMARK  13 active torsions:
REMARK  status: ('A' for Active; 'I' for Inactive)
REMARK    1  A    between atoms: C_1  and  O_2
REMARK    2  A    between atoms: O_2  and  C_3
REMARK    3  A    between atoms: C_6  and  C_7
REMARK    4  A    between atoms: C_10  and  C_11
REMARK    5  A    between atoms: C_13  and  C_14
REMARK    6  A    between atoms: C_14  and  C_15
REMARK    7  A    between atoms: C_14  and  C_19
REMARK    8  A    between atoms: C_15  and  C_16
REMARK    9  A    between atoms: C_16  and  O_18
REMARK   10  A    between atoms: C_19  and  O_21
REMARK   11  A    between atoms: C_23  and  C_24
REMARK   12  A    between atoms: C_28  and  C_29
REMARK   13  A    between atoms: C_36  and  O_37
REMARK                            x       y       z     vdW  Elec       q    Type
REMARK                         _______ _______ _______ _____ _____    ______ ____
ROOT
ATOM      1  C   UNL     1       4.318   5.125  17.350  0.00  0.00    +0.000 A 
ATOM      2  C   UNL     1       3.916   3.954  18.033  0.00  0.00    +0.000 A 
ATOM      3  C   UNL     1       2.954   3.952  19.063  0.00  0.00    +0.000 A 
ATOM      4  C   UNL     1       2.422   5.176  19.476  0.00  0.00    +0.000 A 
ATOM      5  C   UNL     1       2.749   6.364  18.817  0.00  0.00    +0.000 A 
ATOM      6  C   UNL     1       3.687   6.328  17.761  0.00  0.00    +0.000 A 
ENDROOT
BRANCH   5   7
ATOM      7  C   UNL     1       2.106   7.617  19.226  0.00  0.00    +0.000 A 
ATOM      8  N   UNL     1       1.814   7.972  20.464  0.00  0.00    +0.000 NA
ATOM      9  C   UNL     1       1.237   9.219  20.369  0.00  0.00    +0.000 A 
ATOM     10  C   UNL     1       0.697  10.036  21.367  0.00  0.00    +0.000 A 
ATOM     11  C   UNL     1       0.207  11.300  20.996  0.00  0.00    +0.000 A 
ATOM     12  C   UNL     1       0.245  11.723  19.657  0.00  0.00    +0.000 A 
ATOM     13  C   UNL     1       0.758  10.905  18.651  0.00  0.00    +0.000 A 
ATOM     14  C   UNL     1       1.241   9.663  19.053  0.00  0.00    +0.000 A 
ATOM     15  N   UNL     1       1.786   8.628  18.351  0.00  0.00    +0.000 N 
ATOM     16  H   UNL     1       1.945   8.617  17.353  0.00  0.00    +0.000 HD
BRANCH  11  17
ATOM     17  C   UNL     1      -0.373  12.207  22.021  0.00  0.00    +0.000 C 
ATOM     18  N   UNL     1      -1.038  11.784  23.047  0.00  0.00    +0.000 NA
ATOM     19  N   UNL     1      -0.222  13.558  21.907  0.00  0.00    +0.000 N 
ATOM     20  H   UNL     1      -1.070  10.761  23.081  0.00  0.00    +0.000 HD
ATOM     21  H   UNL     1      -0.269  13.932  20.966  0.00  0.00    +0.000 HD
ATOM     22  H   UNL     1      -0.845  14.041  22.548  0.00  0.00    +0.000 HD
ENDBRANCH  11  17
ENDBRANCH   5   7
BRANCH   1  28
ATOM     23  C   UNL     1       6.663   5.704  16.413  0.00  0.00    +0.000 A 
ATOM     24  C   UNL     1       7.615   5.602  15.379  0.00  0.00    +0.000 A 
ATOM     25  C   UNL     1       7.336   4.900  14.210  0.00  0.00    +0.000 A 
ATOM     26  C   UNL     1       6.095   4.293  14.057  0.00  0.00    +0.000 A 
ATOM     27  C   UNL     1       5.142   4.401  15.078  0.00  0.00    +0.000 A 
ATOM     28  C   UNL     1       5.395   5.076  16.297  0.00  0.00    +0.000 A 
BRANCH  23  30
ATOM     29  C   UNL     1       7.546   7.660  17.420  0.00  0.00    +0.000 C 
ATOM     30  O   UNL     1       6.971   6.363  17.583  0.00  0.00    +0.000 OA
ENDBRANCH  23  30
BRANCH  26  31
ATOM     31  C   UNL     1       5.799   3.553  12.865  0.00  0.00    +0.000 C 
ATOM     32  N   UNL     1       5.547   2.966  11.896  0.00  0.00    +0.000 NA
ENDBRANCH  26  31
ENDBRANCH   1  28
BRANCH   6  33
ATOM     33  O   UNL     1       3.981   7.503  17.102  0.00  0.00    +0.000 OA
ATOM     34  H   UNL     1       3.334   7.611  16.369  0.00  0.00    +0.000 HD
ENDBRANCH   6  33
BRANCH   3  35
ATOM     35  C   UNL     1       2.558   2.643  19.733  0.00  0.00    +0.000 C 
BRANCH  35  36
ATOM     36  C   UNL     1       1.074   2.479  20.053  0.00  0.00    +0.000 C 
ATOM     37  O   UNL     1       0.236   2.214  19.197  0.00  0.00    +0.000 OA
BRANCH  36  38
ATOM     38  O   UNL     1       0.727   2.682  21.342  0.00  0.00    +0.000 OA
ATOM     39  H   UNL     1      -0.159   3.078  21.473  0.00  0.00    +0.000 HD
ENDBRANCH  36  38
ENDBRANCH  35  36
BRANCH  35  40
ATOM     40  C   UNL     1       3.388   2.356  20.990  0.00  0.00    +0.000 C 
BRANCH  40  41
ATOM     41  C   UNL     1       4.673   1.623  20.689  0.00  0.00    +0.000 C 
ATOM     42  O   UNL     1       5.545   1.420  21.521  0.00  0.00    +0.000 OA
BRANCH  41  43
ATOM     43  O   UNL     1       4.769   1.167  19.423  0.00  0.00    +0.000 OA
ATOM     44  H   UNL     1       5.088   1.831  18.767  0.00  0.00    +0.000 HD
ENDBRANCH  41  43
ENDBRANCH  40  41
ENDBRANCH  35  40
ENDBRANCH   3  35
TORSDOF 12
ENDMDL
MODEL 7
REMARK VINA RESULT:      -8.7      1.296      1.729
REMARK  Name = 
REMARK  13 active torsions:
REMARK  status: ('A' for Active; 'I' for Inactive)
REMARK    1  A    between atoms: C_1  and  O_2
REMARK    2  A    between atoms: O_2  and  C_3
REMARK    3  A    between atoms: C_6  and  C_7
REMARK    4  A    between atoms: C_10  and  C_11
REMARK    5  A    between atoms: C_13  and  C_14
REMARK    6  A    between atoms: C_14  and  C_15
REMARK    7  A    between atoms: C_14  and  C_19
REMARK    8  A    between atoms: C_15  and  C_16
REMARK    9  A    between atoms: C_16  and  O_18
REMARK   10  A    between atoms: C_19  and  O_21
REMARK   11  A    between atoms: C_23  and  C_24
REMARK   12  A    between atoms: C_28  and  C_29
REMARK   13  A    between atoms: C_36  and  O_37
REMARK                            x       y       z     vdW  Elec       q    Type
REMARK                         _______ _______ _______ _____ _____    ______ ____
ROOT
ATOM      1  C   UNL     1       4.220   5.424  17.190  0.00  0.00    +0.000 A 
ATOM      2  C   UNL     1       3.665   4.306  17.855  0.00  0.00    +0.000 A 
ATOM      3  C   UNL     1       2.634   4.408  18.809  0.00  0.00    +0.000 A 
ATOM      4  C   UNL     1       2.185   5.682  19.168  0.00  0.00    +0.000 A 
ATOM      5  C   UNL     1       2.666   6.824  18.522  0.00  0.00    +0.000 A 
ATOM      6  C   UNL     1       3.672   6.686  17.540  0.00  0.00    +0.000 A 
ENDROOT
BRANCH   5   7
ATOM      7  C   UNL     1       2.110   8.137  18.867  0.00  0.00    +0.000 A 
ATOM      8  N   UNL     1       2.034   9.183  18.065  0.00  0.00    +0.000 NA
ATOM      9  C   UNL     1       1.437  10.179  18.805  0.00  0.00    +0.000 A 
ATOM     10  C   UNL     1       1.159  11.506  18.464  0.00  0.00    +0.000 A 
ATOM     11  C   UNL     1       0.490  12.307  19.407  0.00  0.00    +0.000 A 
ATOM     12  C   UNL     1       0.127  11.791  20.662  0.00  0.00    +0.000 A 
ATOM     13  C   UNL     1       0.422  10.476  21.021  0.00  0.00    +0.000 A 
ATOM     14  C   UNL     1       1.079   9.709  20.063  0.00  0.00    +0.000 A 
ATOM     15  N   UNL     1       1.524   8.420  20.079  0.00  0.00    +0.000 N 
ATOM     16  H   UNL     1       1.423   7.774  20.850  0.00  0.00    +0.000 HD
BRANCH  11  17
ATOM     17  C   UNL     1       0.169  13.723  19.091  0.00  0.00    +0.000 C 
ATOM     18  N   UNL     1       1.069  14.605  18.796  0.00  0.00    +0.000 NA
ATOM     19  N   UNL     1      -1.125  14.153  19.105  0.00  0.00    +0.000 N 
ATOM     20  H   UNL     1       2.006  14.194  18.766  0.00  0.00    +0.000 HD
ATOM     21  H   UNL     1      -1.716  13.759  19.827  0.00  0.00    +0.000 HD
ATOM     22  H   UNL     1      -1.163  15.168  19.084  0.00  0.00    +0.000 HD
ENDBRANCH  11  17
ENDBRANCH   5   7
BRANCH   1  28
ATOM     23  C   UNL     1       6.659   5.813  16.405  0.00  0.00    +0.000 A 
ATOM     24  C   UNL     1       7.672   5.606  15.449  0.00  0.00    +0.000 A 
ATOM     25  C   UNL     1       7.430   4.870  14.291  0.00  0.00    +0.000 A 
ATOM     26  C   UNL     1       6.167   4.335  14.073  0.00  0.00    +0.000 A 
ATOM     27  C   UNL     1       5.154   4.549  15.016  0.00  0.00    +0.000 A 
ATOM     28  C   UNL     1       5.363   5.261  16.222  0.00  0.00    +0.000 A 
BRANCH  23  30
ATOM     29  C   UNL     1       7.648   5.773  18.559  0.00  0.00    +0.000 C 
ATOM     30  O   UNL     1       6.926   6.504  17.567  0.00  0.00    +0.000 OA
ENDBRANCH  23  30
BRANCH  26  31
ATOM     31  C   UNL     1       5.908   3.562  12.894  0.00  0.00    +0.000 C 
ATOM     32  N   UNL     1       5.681   2.935  11.944  0.00  0.00    +0.000 NA
ENDBRANCH  26  31
ENDBRANCH   1  28
BRANCH   6  33
ATOM     33  O   UNL     1       4.119   7.818  16.892  0.00  0.00    +0.000 OA
ATOM     34  H   UNL     1       3.433   8.085  16.238  0.00  0.00    +0.000 HD
ENDBRANCH   6  33
BRANCH   3  35
ATOM     35  C   UNL     1       2.073   3.152  19.462  0.00  0.00    +0.000 C 
BRANCH  35  36
ATOM     36  C   UNL     1       1.320   2.198  18.537  0.00  0.00    +0.000 C 
ATOM     37  O   UNL     1       0.103   2.051  18.583  0.00  0.00    +0.000 OA
BRANCH  36  38
ATOM     38  O   UNL     1       2.085   1.489  17.679  0.00  0.00    +0.000 OA
ATOM     39  H   UNL     1       1.936   0.521  17.698  0.00  0.00    +0.000 HD
ENDBRANCH  36  38
ENDBRANCH  35  36
BRANCH  35  40
ATOM     40  C   UNL     1       1.207   3.467  20.688  0.00  0.00    +0.000 C 
BRANCH  40  41
ATOM     41  C   UNL     1       1.629   2.699  21.917  0.00  0.00    +0.000 C 
ATOM     42  O   UNL     1       0.841   2.255  22.738  0.00  0.00    +0.000 OA
BRANCH  41  43
ATOM     43  O   UNL     1       2.960   2.500  22.019  0.00  0.00    +0.000 OA
ATOM     44  H   UNL     1       3.491   3.320  22.157  0.00  0.00    +0.000 HD
ENDBRANCH  41  43
ENDBRANCH  40  41
ENDBRANCH  35  40
ENDBRANCH   3  35
TORSDOF 12
ENDMDL
MODEL 8
REMARK VINA RESULT:      -8.4      4.393     10.442
REMARK  Name = 
REMARK  13 active torsions:
REMARK  status: ('A' for Active; 'I' for Inactive)
REMARK    1  A    between atoms: C_1  and  O_2
REMARK    2  A    between atoms: O_2  and  C_3
REMARK    3  A    between atoms: C_6  and  C_7
REMARK    4  A    between atoms: C_10  and  C_11
REMARK    5  A    between atoms: C_13  and  C_14
REMARK    6  A    between atoms: C_14  and  C_15
REMARK    7  A    between atoms: C_14  and  C_19
REMARK    8  A    between atoms: C_15  and  C_16
REMARK    9  A    between atoms: C_16  and  O_18
REMARK   10  A    between atoms: C_19  and  O_21
REMARK   11  A    between atoms: C_23  and  C_24
REMARK   12  A    between atoms: C_28  and  C_29
REMARK   13  A    between atoms: C_36  and  O_37
REMARK                            x       y       z     vdW  Elec       q    Type
REMARK                         _______ _______ _______ _____ _____    ______ ____
ROOT
ATOM      1  C   UNL     1      -0.925  11.287  20.029  0.00  0.00    +0.000 A 
ATOM      2  C   UNL     1      -1.821  11.387  18.940  0.00  0.00    +0.000 A 
ATOM      3  C   UNL     1      -1.689  10.629  17.759  0.00  0.00    +0.000 A 
ATOM      4  C   UNL     1      -0.580   9.789  17.630  0.00  0.00    +0.000 A 
ATOM      5  C   UNL     1       0.321   9.617  18.684  0.00  0.00    +0.000 A 
ATOM      6  C   UNL     1       0.140  10.362  19.871  0.00  0.00    +0.000 A 
ENDROOT
BRANCH   5   7
ATOM      7  C   UNL     1       1.426   8.664  18.542  0.00  0.00    +0.000 A 
ATOM      8  N   UNL     1       2.346   8.678  17.594  0.00  0.00    +0.000 NA
ATOM      9  C   UNL     1       3.177   7.613  17.865  0.00  0.00    +0.000 A 
ATOM     10  C   UNL     1       4.283   7.135  17.155  0.00  0.00    +0.000 A 
ATOM     11  C   UNL     1       4.991   6.043  17.687  0.00  0.00    +0.000 A 
ATOM     12  C   UNL     1       4.587   5.439  18.890  0.00  0.00    +0.000 A 
ATOM     13  C   UNL     1       3.470   5.892  19.591  0.00  0.00    +0.000 A 
ATOM     14  C   UNL     1       2.796   6.979  19.041  0.00  0.00    +0.000 A 
ATOM     15  N   UNL     1       1.683   7.657  19.443  0.00  0.00    +0.000 N 
ATOM     16  H   UNL     1       1.146   7.460  20.276  0.00  0.00    +0.000 HD
BRANCH  11  17
ATOM     17  C   UNL     1       6.176   5.501  16.972  0.00  0.00    +0.000 C 
ATOM     18  N   UNL     1       6.837   4.466  17.380  0.00  0.00    +0.000 NA
ATOM     19  N   UNL     1       6.620   6.097  15.828  0.00  0.00    +0.000 N 
ATOM     20  H   UNL     1       6.416   4.055  18.217  0.00  0.00    +0.000 HD
ATOM     21  H   UNL     1       6.565   7.108  15.804  0.00  0.00    +0.000 HD
ATOM     22  H   UNL     1       7.544   5.753  15.584  0.00  0.00    +0.000 HD
ENDBRANCH  11  17
ENDBRANCH   5   7
BRANCH   1  28
ATOM     23  C   UNL     1      -0.158  13.174  21.632  0.00  0.00    +0.000 A 
ATOM     24  C   UNL     1      -0.386  13.955  22.782  0.00  0.00    +0.000 A 
ATOM     25  C   UNL     1      -1.510  13.752  23.579  0.00  0.00    +0.000 A 
ATOM     26  C   UNL     1      -2.420  12.759  23.237  0.00  0.00    +0.000 A 
ATOM     27  C   UNL     1      -2.191  11.973  22.101  0.00  0.00    +0.000 A 
ATOM     28  C   UNL     1      -1.081  12.166  21.243  0.00  0.00    +0.000 A 
BRANCH  23  30
ATOM     29  C   UNL     1       1.792  14.472  21.266  0.00  0.00    +0.000 C 
ATOM     30  O   UNL     1       0.934  13.417  20.828  0.00  0.00    +0.000 OA
ENDBRANCH  23  30
BRANCH  26  31
ATOM     31  C   UNL     1      -3.590  12.550  24.039  0.00  0.00    +0.000 C 
ATOM     32  N   UNL     1      -4.535  12.363  24.687  0.00  0.00    +0.000 NA
ENDBRANCH  26  31
ENDBRANCH   1  28
BRANCH   6  33
ATOM     33  O   UNL     1       1.021  10.163  20.913  0.00  0.00    +0.000 OA
ATOM     34  H   UNL     1       0.718  10.707  21.675  0.00  0.00    +0.000 HD
ENDBRANCH   6  33
BRANCH   3  35
ATOM     35  C   UNL     1      -2.712  10.777  16.641  0.00  0.00    +0.000 C 
BRANCH  35  36
ATOM     36  C   UNL     1      -4.127  11.152  17.075  0.00  0.00    +0.000 C 
ATOM     37  O   UNL     1      -4.799  10.449  17.823  0.00  0.00    +0.000 OA
BRANCH  36  38
ATOM     38  O   UNL     1      -4.616  12.297  16.553  0.00  0.00    +0.000 OA
ATOM     39  H   UNL     1      -5.134  12.846  17.177  0.00  0.00    +0.000 HD
ENDBRANCH  36  38
ENDBRANCH  35  36
BRANCH  35  40
ATOM     40  C   UNL     1      -2.765   9.544  15.731  0.00  0.00    +0.000 C 
BRANCH  40  41
ATOM     41  C   UNL     1      -3.183   9.875  14.318  0.00  0.00    +0.000 C 
ATOM     42  O   UNL     1      -2.427   9.814  13.360  0.00  0.00    +0.000 OA
BRANCH  41  43
ATOM     43  O   UNL     1      -4.484  10.207  14.187  0.00  0.00    +0.000 OA
ATOM     44  H   UNL     1      -4.860  10.711  14.947  0.00  0.00    +0.000 HD
ENDBRANCH  41  43
ENDBRANCH  40  41
ENDBRANCH  35  40
ENDBRANCH   3  35
TORSDOF 12
ENDMDL
MODEL 9
REMARK VINA RESULT:      -8.4      1.412      2.083
REMARK  Name = 
REMARK  13 active torsions:
REMARK  status: ('A' for Active; 'I' for Inactive)
REMARK    1  A    between atoms: C_1  and  O_2
REMARK    2  A    between atoms: O_2  and  C_3
REMARK    3  A    between atoms: C_6  and  C_7
REMARK    4  A    between atoms: C_10  and  C_11
REMARK    5  A    between atoms: C_13  and  C_14
REMARK    6  A    between atoms: C_14  and  C_15
REMARK    7  A    between atoms: C_14  and  C_19
REMARK    8  A    between atoms: C_15  and  C_16
REMARK    9  A    between atoms: C_16  and  O_18
REMARK   10  A    between atoms: C_19  and  O_21
REMARK   11  A    between atoms: C_23  and  C_24
REMARK   12  A    between atoms: C_28  and  C_29
REMARK   13  A    between atoms: C_36  and  O_37
REMARK                            x       y       z     vdW  Elec       q    Type
REMARK                         _______ _______ _______ _____ _____    ______ ____
ROOT
ATOM      1  C   UNL     1       4.120   5.479  17.310  0.00  0.00    +0.000 A 
ATOM      2  C   UNL     1       3.580   4.331  17.934  0.00  0.00    +0.000 A 
ATOM      3  C   UNL     1       2.538   4.384  18.881  0.00  0.00    +0.000 A 
ATOM      4  C   UNL     1       2.062   5.638  19.274  0.00  0.00    +0.000 A 
ATOM      5  C   UNL     1       2.527   6.808  18.668  0.00  0.00    +0.000 A 
ATOM      6  C   UNL     1       3.545   6.719  17.692  0.00  0.00    +0.000 A 
ENDROOT
BRANCH   5   7
ATOM      7  C   UNL     1       1.944   8.099  19.048  0.00  0.00    +0.000 A 
ATOM      8  N   UNL     1       1.517   8.433  20.252  0.00  0.00    +0.000 NA
ATOM      9  C   UNL     1       1.067   9.731  20.142  0.00  0.00    +0.000 A 
ATOM     10  C   UNL     1       0.468  10.557  21.098  0.00  0.00    +0.000 A 
ATOM     11  C   UNL     1       0.143  11.873  20.726  0.00  0.00    +0.000 A 
ATOM     12  C   UNL     1       0.399  12.339  19.426  0.00  0.00    +0.000 A 
ATOM     13  C   UNL     1       0.973  11.515  18.459  0.00  0.00    +0.000 A 
ATOM     14  C   UNL     1       1.289  10.220  18.861  0.00  0.00    +0.000 A 
ATOM     15  N   UNL     1       1.835   9.167  18.188  0.00  0.00    +0.000 N 
ATOM     16  H   UNL     1       2.126   9.177  17.221  0.00  0.00    +0.000 HD
BRANCH  11  17
ATOM     17  C   UNL     1      -0.493  12.791  21.707  0.00  0.00    +0.000 C 
ATOM     18  N   UNL     1      -0.402  12.633  22.988  0.00  0.00    +0.000 NA
ATOM     19  N   UNL     1      -1.218  13.862  21.275  0.00  0.00    +0.000 N 
ATOM     20  H   UNL     1       0.192  11.834  23.229  0.00  0.00    +0.000 HD
ATOM     21  H   UNL     1      -1.778  13.714  20.444  0.00  0.00    +0.000 HD
ATOM     22  H   UNL     1      -1.757  14.258  22.040  0.00  0.00    +0.000 HD
ENDBRANCH  11  17
ENDBRANCH   5   7
BRANCH   1  28
ATOM     23  C   UNL     1       6.541   5.983  16.535  0.00  0.00    +0.000 A 
ATOM     24  C   UNL     1       7.569   5.820  15.585  0.00  0.00    +0.000 A 
ATOM     25  C   UNL     1       7.369   5.067  14.431  0.00  0.00    +0.000 A 
ATOM     26  C   UNL     1       6.135   4.470  14.209  0.00  0.00    +0.000 A 
ATOM     27  C   UNL     1       5.107   4.639  15.145  0.00  0.00    +0.000 A 
ATOM     28  C   UNL     1       5.275   5.367  16.348  0.00  0.00    +0.000 A 
BRANCH  23  30
ATOM     29  C   UNL     1       7.704   7.765  17.580  0.00  0.00    +0.000 C 
ATOM     30  O   UNL     1       6.768   6.692  17.694  0.00  0.00    +0.000 OA
ENDBRANCH  23  30
BRANCH  26  31
ATOM     31  C   UNL     1       5.920   3.679  13.033  0.00  0.00    +0.000 C 
ATOM     32  N   UNL     1       5.763   3.030  12.083  0.00  0.00    +0.000 NA
ENDBRANCH  26  31
ENDBRANCH   1  28
BRANCH   6  33
ATOM     33  O   UNL     1       3.976   7.879  17.084  0.00  0.00    +0.000 OA
ATOM     34  H   UNL     1       4.457   7.631  16.262  0.00  0.00    +0.000 HD
ENDBRANCH   6  33
BRANCH   3  35
ATOM     35  C   UNL     1       1.995   3.099  19.490  0.00  0.00    +0.000 C 
BRANCH  35  36
ATOM     36  C   UNL     1       1.225   2.183  18.540  0.00  0.00    +0.000 C 
ATOM     37  O   UNL     1       0.034   1.928  18.683  0.00  0.00    +0.000 OA
BRANCH  36  38
ATOM     38  O   UNL     1       1.950   1.634  17.541  0.00  0.00    +0.000 OA
ATOM     39  H   UNL     1       2.353   2.277  16.922  0.00  0.00    +0.000 HD
ENDBRANCH  36  38
ENDBRANCH  35  36
BRANCH  35  40
ATOM     40  C   UNL     1       1.154   3.357  20.746  0.00  0.00    +0.000 C 
BRANCH  40  41
ATOM     41  C   UNL     1       1.655   2.600  21.952  0.00  0.00    +0.000 C 
ATOM     42  O   UNL     1       2.837   2.374  22.163  0.00  0.00    +0.000 OA
BRANCH  41  43
ATOM     43  O   UNL     1       0.687   2.224  22.814  0.00  0.00    +0.000 OA
ATOM     44  H   UNL     1       0.766   1.299  23.146  0.00  0.00    +0.000 HD
ENDBRANCH  41  43
ENDBRANCH  40  41
ENDBRANCH  35  40
ENDBRANCH   3  35
TORSDOF 12
ENDMDL
