MODEL 1
REMARK VINA RESULT:      -7.4      0.000      0.000
REMARK  Name = 
REMARK  8 active torsions:
REMARK  status: ('A' for Active; 'I' for Inactive)
REMARK    1  A    between atoms: C_1  and  O_2
REMARK    2  A    between atoms: O_2  and  C_3
REMARK    3  A    between atoms: C_7  and  C_8
REMARK    4  A    between atoms: C_9  and  C_10
REMARK    5  A    between atoms: N_12  and  C_13
REMARK    6  A    between atoms: C_13  and  C_14
REMARK    7  A    between atoms: C_14  and  C_15
REMARK    8  A    between atoms: C_15  and  N_16
REMARK                            x       y       z     vdW  Elec       q    Type
REMARK                         _______ _______ _______ _____ _____    ______ ____
ROOT
ATOM      1  C   UNL     1       8.944   9.381  18.950  0.00  0.00    +0.000 C 
ATOM      2  C   UNL     1       8.178   8.967  17.926  0.00  0.00    +0.000 C 
ENDROOT
BRANCH   1   7
ATOM      3  C   UNL     1      10.430  13.431  19.301  0.00  0.00    +0.000 A 
ATOM      4  C   UNL     1       9.773  12.817  20.376  0.00  0.00    +0.000 A 
ATOM      5 BR   UNL     1       9.320  13.637  22.035  0.00  0.00    +0.000 Br
ATOM      6  C   UNL     1       9.316  11.489  20.264  0.00  0.00    +0.000 A 
ATOM      7  C   UNL     1       9.455  10.755  19.082  0.00  0.00    +0.000 A 
ATOM      8  C   UNL     1      10.125  11.351  18.016  0.00  0.00    +0.000 A 
ATOM      9  C   UNL     1      10.599  12.669  18.124  0.00  0.00    +0.000 A 
ATOM     10 BR   UNL     1      11.488  13.385  16.594  0.00  0.00    +0.000 Br
BRANCH   3  12
ATOM     11  C   UNL     1       9.963  15.788  19.021  0.00  0.00    +0.000 C 
ATOM     12  O   UNL     1      10.877  14.722  19.204  0.00  0.00    +0.000 OA
ENDBRANCH   3  12
ENDBRANCH   1   7
BRANCH   2  13
ATOM     13  C   UNL     1       7.696   7.560  17.847  0.00  0.00    +0.000 C 
ATOM     14  O   UNL     1       8.090   6.682  18.594  0.00  0.00    +0.000 OA
ATOM     15  N   UNL     1       6.772   7.384  16.845  0.00  0.00    +0.000 N 
ATOM     16  H   UNL     1       6.487   8.171  16.276  0.00  0.00    +0.000 HD
BRANCH  15  17
ATOM     17  C   UNL     1       6.166   6.091  16.577  0.00  0.00    +0.000 C 
BRANCH  17  18
ATOM     18  C   UNL     1       4.700   6.097  17.005  0.00  0.00    +0.000 C 
BRANCH  18  19
ATOM     19  C   UNL     1       4.501   5.750  18.487  0.00  0.00    +0.000 C 
BRANCH  19  20
ATOM     20  N   UNL     1       3.775   4.480  18.646  0.00  0.00    +0.000 NA
ATOM     21  C   UNL     1       3.045   4.081  17.433  0.00  0.00    +0.000 C 
ATOM     22  C   UNL     1       1.568   4.192  17.767  0.00  0.00    +0.000 C 
ATOM     23  C   UNL     1       1.530   3.882  19.246  0.00  0.00    +0.000 C 
ATOM     24  C   UNL     1       2.812   4.505  19.761  0.00  0.00    +0.000 C 
ENDBRANCH  19  20
ENDBRANCH  18  19
ENDBRANCH  17  18
ENDBRANCH  15  17
ENDBRANCH   2  13
TORSDOF 7
ENDMDL
MODEL 2
REMARK VINA RESULT:      -7.3      0.729      2.161
REMARK  Name = 
REMARK  8 active torsions:
REMARK  status: ('A' for Active; 'I' for Inactive)
REMARK    1  A    between atoms: C_1  and  O_2
REMARK    2  A    between atoms: O_2  and  C_3
REMARK    3  A    between atoms: C_7  and  C_8
REMARK    4  A    between atoms: C_9  and  C_10
REMARK    5  A    between atoms: N_12  and  C_13
REMARK    6  A    between atoms: C_13  and  C_14
REMARK    7  A    between atoms: C_14  and  C_15
REMARK    8  A    between atoms: C_15  and  N_16
REMARK                            x       y       z     vdW  Elec       q    Type
REMARK                         _______ _______ _______ _____ _____    ______ ____
ROOT
ATOM      1  C   UNL     1       8.986   9.526  18.897  0.00  0.00    +0.000 C 
ATOM      2  C   UNL     1       8.142   9.076  17.953  0.00  0.00    +0.000 C 
ENDROOT
BRANCH   1   7
ATOM      3  C   UNL     1      10.321  13.631  19.208  0.00  0.00    +0.000 A 
ATOM      4  C   UNL     1      10.560  12.890  18.042  0.00  0.00    +0.000 A 
ATOM      5 BR   UNL     1      11.567  13.463  16.530  0.00  0.00    +0.000 Br
ATOM      6  C   UNL     1      10.100  11.563  17.939  0.00  0.00    +0.000 A 
ATOM      7  C   UNL     1       9.434  10.924  18.990  0.00  0.00    +0.000 A 
ATOM      8  C   UNL     1       9.175  11.661  20.143  0.00  0.00    +0.000 A 
ATOM      9  C   UNL     1       9.616  12.990  20.250  0.00  0.00    +0.000 A 
ATOM     10 BR   UNL     1       9.215  13.895  21.883  0.00  0.00    +0.000 Br
BRANCH   3  12
ATOM     11  C   UNL     1      12.124  15.161  19.719  0.00  0.00    +0.000 C 
ATOM     12  O   UNL     1      10.747  14.896  19.512  0.00  0.00    +0.000 OA
ENDBRANCH   3  12
ENDBRANCH   1   7
BRANCH   2  13
ATOM     13  C   UNL     1       7.729   7.646  17.909  0.00  0.00    +0.000 C 
ATOM     14  O   UNL     1       8.198   6.798  18.650  0.00  0.00    +0.000 OA
ATOM     15  N   UNL     1       6.776   7.410  16.948  0.00  0.00    +0.000 N 
ATOM     16  H   UNL     1       6.428   8.174  16.383  0.00  0.00    +0.000 HD
BRANCH  15  17
ATOM     17  C   UNL     1       6.226   6.084  16.720  0.00  0.00    +0.000 C 
BRANCH  17  18
ATOM     18  C   UNL     1       4.849   5.966  17.369  0.00  0.00    +0.000 C 
BRANCH  18  19
ATOM     19  C   UNL     1       4.896   5.372  18.784  0.00  0.00    +0.000 C 
BRANCH  19  20
ATOM     20  N   UNL     1       3.714   4.536  19.052  0.00  0.00    +0.000 NA
ATOM     21  C   UNL     1       3.802   3.204  18.435  0.00  0.00    +0.000 C 
ATOM     22  C   UNL     1       2.747   3.167  17.344  0.00  0.00    +0.000 C 
ATOM     23  C   UNL     1       1.668   4.079  17.884  0.00  0.00    +0.000 C 
ATOM     24  C   UNL     1       2.457   5.157  18.601  0.00  0.00    +0.000 C 
ENDBRANCH  19  20
ENDBRANCH  18  19
ENDBRANCH  17  18
ENDBRANCH  15  17
ENDBRANCH   2  13
TORSDOF 7
ENDMDL
MODEL 3
REMARK VINA RESULT:      -7.2      0.921      1.254
REMARK  Name = 
REMARK  8 active torsions:
REMARK  status: ('A' for Active; 'I' for Inactive)
REMARK    1  A    between atoms: C_1  and  O_2
REMARK    2  A    between atoms: O_2  and  C_3
REMARK    3  A    between atoms: C_7  and  C_8
REMARK    4  A    between atoms: C_9  and  C_10
REMARK    5  A    between atoms: N_12  and  C_13
REMARK    6  A    between atoms: C_13  and  C_14
REMARK    7  A    between atoms: C_14  and  C_15
REMARK    8  A    between atoms: C_15  and  N_16
REMARK                            x       y       z     vdW  Elec       q    Type
REMARK                         _______ _______ _______ _____ _____    ______ ____
ROOT
ATOM      1  C   UNL     1       8.974   9.358  18.962  0.00  0.00    +0.000 C 
ATOM      2  C   UNL     1       8.188   8.924  17.962  0.00  0.00    +0.000 C 
ENDROOT
BRANCH   1   7
ATOM      3  C   UNL     1      10.366  13.445  19.264  0.00  0.00    +0.000 A 
ATOM      4  C   UNL     1       9.714  12.833  20.343  0.00  0.00    +0.000 A 
ATOM      5 BR   UNL     1       9.228  13.667  21.985  0.00  0.00    +0.000 Br
ATOM      6  C   UNL     1       9.287  11.494  20.247  0.00  0.00    +0.000 A 
ATOM      7  C   UNL     1       9.453  10.745  19.078  0.00  0.00    +0.000 A 
ATOM      8  C   UNL     1      10.120  11.340  18.009  0.00  0.00    +0.000 A 
ATOM      9  C   UNL     1      10.563  12.669  18.100  0.00  0.00    +0.000 A 
ATOM     10 BR   UNL     1      11.449  13.382  16.568  0.00  0.00    +0.000 Br
BRANCH   3  12
ATOM     11  C   UNL     1      11.980  15.171  19.783  0.00  0.00    +0.000 C 
ATOM     12  O   UNL     1      10.786  14.744  19.152  0.00  0.00    +0.000 OA
ENDBRANCH   3  12
ENDBRANCH   1   7
BRANCH   2  13
ATOM     13  C   UNL     1       7.740   7.505  17.899  0.00  0.00    +0.000 C 
ATOM     14  O   UNL     1       8.091   6.662  18.707  0.00  0.00    +0.000 OA
ATOM     15  N   UNL     1       6.901   7.272  16.835  0.00  0.00    +0.000 N 
ATOM     16  H   UNL     1       6.647   8.032  16.218  0.00  0.00    +0.000 HD
BRANCH  15  17
ATOM     17  C   UNL     1       6.341   5.958  16.571  0.00  0.00    +0.000 C 
BRANCH  17  18
ATOM     18  C   UNL     1       4.817   6.031  16.534  0.00  0.00    +0.000 C 
BRANCH  18  19
ATOM     19  C   UNL     1       4.226   6.897  17.655  0.00  0.00    +0.000 C 
BRANCH  19  20
ATOM     20  N   UNL     1       2.874   6.444  18.024  0.00  0.00    +0.000 NA
ATOM     21  C   UNL     1       2.544   6.713  19.433  0.00  0.00    +0.000 C 
ATOM     22  C   UNL     1       2.455   5.360  20.116  0.00  0.00    +0.000 C 
ATOM     23  C   UNL     1       1.971   4.451  19.009  0.00  0.00    +0.000 C 
ATOM     24  C   UNL     1       2.664   5.007  17.780  0.00  0.00    +0.000 C 
ENDBRANCH  19  20
ENDBRANCH  18  19
ENDBRANCH  17  18
ENDBRANCH  15  17
ENDBRANCH   2  13
TORSDOF 7
ENDMDL
MODEL 4
REMARK VINA RESULT:      -7.2      1.068      1.419
REMARK  Name = 
REMARK  8 active torsions:
REMARK  status: ('A' for Active; 'I' for Inactive)
REMARK    1  A    between atoms: C_1  and  O_2
REMARK    2  A    between atoms: O_2  and  C_3
REMARK    3  A    between atoms: C_7  and  C_8
REMARK    4  A    between atoms: C_9  and  C_10
REMARK    5  A    between atoms: N_12  and  C_13
REMARK    6  A    between atoms: C_13  and  C_14
REMARK    7  A    between atoms: C_14  and  C_15
REMARK    8  A    between atoms: C_15  and  N_16
REMARK                            x       y       z     vdW  Elec       q    Type
REMARK                         _______ _______ _______ _____ _____    ______ ____
ROOT
ATOM      1  C   UNL     1       9.078   9.211  18.882  0.00  0.00    +0.000 C 
ATOM      2  C   UNL     1       8.102   8.798  18.055  0.00  0.00    +0.000 C 
ENDROOT
BRANCH   1   7
ATOM      3  C   UNL     1      10.175  13.371  19.352  0.00  0.00    +0.000 A 
ATOM      4  C   UNL     1       9.557  12.674  20.399  0.00  0.00    +0.000 A 
ATOM      5 BR   UNL     1       8.998  13.409  22.066  0.00  0.00    +0.000 Br
ATOM      6  C   UNL     1       9.227  11.313  20.248  0.00  0.00    +0.000 A 
ATOM      7  C   UNL     1       9.457  10.622  19.054  0.00  0.00    +0.000 A 
ATOM      8  C   UNL     1      10.089  11.303  18.016  0.00  0.00    +0.000 A 
ATOM      9  C   UNL     1      10.436  12.655  18.163  0.00  0.00    +0.000 A 
ATOM     10 BR   UNL     1      11.284  13.486  16.668  0.00  0.00    +0.000 Br
BRANCH   3  12
ATOM     11  C   UNL     1       9.497  15.681  19.113  0.00  0.00    +0.000 C 
ATOM     12  O   UNL     1      10.502  14.699  19.293  0.00  0.00    +0.000 OA
ENDBRANCH   3  12
ENDBRANCH   1   7
BRANCH   2  13
ATOM     13  C   UNL     1       7.769   7.353  17.921  0.00  0.00    +0.000 C 
ATOM     14  O   UNL     1       7.854   6.564  18.847  0.00  0.00    +0.000 OA
ATOM     15  N   UNL     1       7.364   7.029  16.648  0.00  0.00    +0.000 N 
ATOM     16  H   UNL     1       7.306   7.748  15.939  0.00  0.00    +0.000 HD
BRANCH  15  17
ATOM     17  C   UNL     1       6.991   5.673  16.281  0.00  0.00    +0.000 C 
BRANCH  17  18
ATOM     18  C   UNL     1       5.570   5.649  15.724  0.00  0.00    +0.000 C 
BRANCH  18  19
ATOM     19  C   UNL     1       4.531   5.150  16.738  0.00  0.00    +0.000 C 
BRANCH  19  20
ATOM     20  N   UNL     1       4.470   6.028  17.918  0.00  0.00    +0.000 NA
ATOM     21  C   UNL     1       4.504   5.286  19.188  0.00  0.00    +0.000 C 
ATOM     22  C   UNL     1       3.135   5.462  19.821  0.00  0.00    +0.000 C 
ATOM     23  C   UNL     1       2.710   6.830  19.338  0.00  0.00    +0.000 C 
ATOM     24  C   UNL     1       3.275   6.888  17.932  0.00  0.00    +0.000 C 
ENDBRANCH  19  20
ENDBRANCH  18  19
ENDBRANCH  17  18
ENDBRANCH  15  17
ENDBRANCH   2  13
TORSDOF 7
ENDMDL
MODEL 5
REMARK VINA RESULT:      -7.1      6.799      7.566
REMARK  Name = 
REMARK  8 active torsions:
REMARK  status: ('A' for Active; 'I' for Inactive)
REMARK    1  A    between atoms: C_1  and  O_2
REMARK    2  A    between atoms: O_2  and  C_3
REMARK    3  A    between atoms: C_7  and  C_8
REMARK    4  A    between atoms: C_9  and  C_10
REMARK    5  A    between atoms: N_12  and  C_13
REMARK    6  A    between atoms: C_13  and  C_14
REMARK    7  A    between atoms: C_14  and  C_15
REMARK    8  A    between atoms: C_15  and  N_16
REMARK                            x       y       z     vdW  Elec       q    Type
REMARK                         _______ _______ _______ _____ _____    ______ ____
ROOT
ATOM      1  C   UNL     1       1.997   8.485  18.158  0.00  0.00    +0.000 C 
ATOM      2  C   UNL     1       2.777   7.511  18.658  0.00  0.00    +0.000 C 
ENDROOT
BRANCH   1   7
ATOM      3  C   UNL     1      -0.276  11.256  20.584  0.00  0.00    +0.000 A 
ATOM      4  C   UNL     1       0.191  10.051  21.126  0.00  0.00    +0.000 A 
ATOM      5 BR   UNL     1      -0.176   9.385  22.873  0.00  0.00    +0.000 Br
ATOM      6  C   UNL     1       0.952   9.166  20.338  0.00  0.00    +0.000 A 
ATOM      7  C   UNL     1       1.234   9.426  18.993  0.00  0.00    +0.000 A 
ATOM      8  C   UNL     1       0.791  10.631  18.453  0.00  0.00    +0.000 A 
ATOM      9  C   UNL     1       0.045  11.527  19.235  0.00  0.00    +0.000 A 
ATOM     10 BR   UNL     1      -0.520  13.140  18.384  0.00  0.00    +0.000 Br
BRANCH   3  12
ATOM     11  C   UNL     1      -0.566  13.056  22.174  0.00  0.00    +0.000 C 
ATOM     12  O   UNL     1      -1.079  12.197  21.171  0.00  0.00    +0.000 OA
ENDBRANCH   3  12
ENDBRANCH   1   7
BRANCH   2  13
ATOM     13  C   UNL     1       3.522   6.586  17.759  0.00  0.00    +0.000 C 
ATOM     14  O   UNL     1       4.383   6.965  16.984  0.00  0.00    +0.000 OA
ATOM     15  N   UNL     1       3.120   5.280  17.910  0.00  0.00    +0.000 N 
ATOM     16  H   UNL     1       2.406   5.046  18.588  0.00  0.00    +0.000 HD
BRANCH  15  17
ATOM     17  C   UNL     1       3.705   4.201  17.133  0.00  0.00    +0.000 C 
BRANCH  17  18
ATOM     18  C   UNL     1       3.832   2.943  17.988  0.00  0.00    +0.000 C 
BRANCH  18  19
ATOM     19  C   UNL     1       2.524   2.145  18.089  0.00  0.00    +0.000 C 
BRANCH  19  20
ATOM     20  N   UNL     1       2.016   2.123  19.471  0.00  0.00    +0.000 NA
ATOM     21  C   UNL     1       0.753   2.860  19.630  0.00  0.00    +0.000 C 
ATOM     22  C   UNL     1       1.072   4.077  20.479  0.00  0.00    +0.000 C 
ATOM     23  C   UNL     1       2.200   3.590  21.361  0.00  0.00    +0.000 C 
ATOM     24  C   UNL     1       2.979   2.668  20.444  0.00  0.00    +0.000 C 
ENDBRANCH  19  20
ENDBRANCH  18  19
ENDBRANCH  17  18
ENDBRANCH  15  17
ENDBRANCH   2  13
TORSDOF 7
ENDMDL
MODEL 6
REMARK VINA RESULT:      -7.1      7.365     10.140
REMARK  Name = 
REMARK  8 active torsions:
REMARK  status: ('A' for Active; 'I' for Inactive)
REMARK    1  A    between atoms: C_1  and  O_2
REMARK    2  A    between atoms: O_2  and  C_3
REMARK    3  A    between atoms: C_7  and  C_8
REMARK    4  A    between atoms: C_9  and  C_10
REMARK    5  A    between atoms: N_12  and  C_13
REMARK    6  A    between atoms: C_13  and  C_14
REMARK    7  A    between atoms: C_14  and  C_15
REMARK    8  A    between atoms: C_15  and  N_16
REMARK                            x       y       z     vdW  Elec       q    Type
REMARK                         _______ _______ _______ _____ _____    ______ ____
ROOT
ATOM      1  C   UNL     1       1.855   7.880  20.071  0.00  0.00    +0.000 C 
ATOM      2  C   UNL     1       1.162   8.217  21.172  0.00  0.00    +0.000 C 
ENDROOT
BRANCH   1   7
ATOM      3  C   UNL     1       3.288   3.869  19.299  0.00  0.00    +0.000 A 
ATOM      4  C   UNL     1       3.731   4.947  18.519  0.00  0.00    +0.000 A 
ATOM      5 BR   UNL     1       4.863   4.841  16.991  0.00  0.00    +0.000 Br
ATOM      6  C   UNL     1       3.280   6.254  18.793  0.00  0.00    +0.000 A 
ATOM      7  C   UNL     1       2.355   6.521  19.808  0.00  0.00    +0.000 A 
ATOM      8  C   UNL     1       1.927   5.458  20.600  0.00  0.00    +0.000 A 
ATOM      9  C   UNL     1       2.383   4.155  20.345  0.00  0.00    +0.000 A 
ATOM     10 BR   UNL     1       1.716   2.777  21.486  0.00  0.00    +0.000 Br
BRANCH   3  12
ATOM     11  C   UNL     1       3.034   1.822  18.035  0.00  0.00    +0.000 C 
ATOM     12  O   UNL     1       3.561   2.537  19.139  0.00  0.00    +0.000 OA
ENDBRANCH   3  12
ENDBRANCH   1   7
BRANCH   2  13
ATOM     13  C   UNL     1       0.686   9.612  21.384  0.00  0.00    +0.000 C 
ATOM     14  O   UNL     1       1.162  10.354  22.226  0.00  0.00    +0.000 OA
ATOM     15  N   UNL     1      -0.335   9.948  20.527  0.00  0.00    +0.000 N 
ATOM     16  H   UNL     1      -0.663   9.276  19.845  0.00  0.00    +0.000 HD
BRANCH  15  17
ATOM     17  C   UNL     1      -0.961  11.259  20.553  0.00  0.00    +0.000 C 
BRANCH  17  18
ATOM     18  C   UNL     1      -0.358  12.152  19.472  0.00  0.00    +0.000 C 
BRANCH  18  19
ATOM     19  C   UNL     1      -1.207  12.213  18.194  0.00  0.00    +0.000 C 
BRANCH  19  20
ATOM     20  N   UNL     1      -2.154  11.087  18.128  0.00  0.00    +0.000 NA
ATOM     21  C   UNL     1      -1.760  10.063  17.148  0.00  0.00    +0.000 C 
ATOM     22  C   UNL     1      -2.789  10.120  16.034  0.00  0.00    +0.000 C 
ATOM     23  C   UNL     1      -4.047  10.552  16.753  0.00  0.00    +0.000 C 
ATOM     24  C   UNL     1      -3.527  11.512  17.805  0.00  0.00    +0.000 C 
ENDBRANCH  19  20
ENDBRANCH  18  19
ENDBRANCH  17  18
ENDBRANCH  15  17
ENDBRANCH   2  13
TORSDOF 7
ENDMDL
MODEL 7
REMARK VINA RESULT:      -7.0      1.227      1.421
REMARK  Name = 
REMARK  8 active torsions:
REMARK  status: ('A' for Active; 'I' for Inactive)
REMARK    1  A    between atoms: C_1  and  O_2
REMARK    2  A    between atoms: O_2  and  C_3
REMARK    3  A    between atoms: C_7  and  C_8
REMARK    4  A    between atoms: C_9  and  C_10
REMARK    5  A    between atoms: N_12  and  C_13
REMARK    6  A    between atoms: C_13  and  C_14
REMARK    7  A    between atoms: C_14  and  C_15
REMARK    8  A    between atoms: C_15  and  N_16
REMARK                            x       y       z     vdW  Elec       q    Type
REMARK                         _______ _______ _______ _____ _____    ______ ____
ROOT
ATOM      1  C   UNL     1       8.994   9.023  18.576  0.00  0.00    +0.000 C 
ATOM      2  C   UNL     1       7.901   8.708  17.861  0.00  0.00    +0.000 C 
ENDROOT
BRANCH   1   7
ATOM      3  C   UNL     1      10.020  13.087  19.658  0.00  0.00    +0.000 A 
ATOM      4  C   UNL     1       9.455  12.219  20.602  0.00  0.00    +0.000 A 
ATOM      5 BR   UNL     1       8.941  12.670  22.380  0.00  0.00    +0.000 Br
ATOM      6  C   UNL     1       9.148  10.890  20.250  0.00  0.00    +0.000 A 
ATOM      7  C   UNL     1       9.349  10.400  18.956  0.00  0.00    +0.000 A 
ATOM      8  C   UNL     1       9.930  11.251  18.018  0.00  0.00    +0.000 A 
ATOM      9  C   UNL     1      10.254  12.573  18.363  0.00  0.00    +0.000 A 
ATOM     10 BR   UNL     1      11.030  13.649  16.991  0.00  0.00    +0.000 Br
BRANCH   3  12
ATOM     11  C   UNL     1       9.286  15.388  19.805  0.00  0.00    +0.000 C 
ATOM     12  O   UNL     1      10.317  14.416  19.797  0.00  0.00    +0.000 OA
ENDBRANCH   3  12
ENDBRANCH   1   7
BRANCH   2  13
ATOM     13  C   UNL     1       7.599   7.293  17.504  0.00  0.00    +0.000 C 
ATOM     14  O   UNL     1       7.694   6.862  16.368  0.00  0.00    +0.000 OA
ATOM     15  N   UNL     1       7.207   6.555  18.595  0.00  0.00    +0.000 N 
ATOM     16  H   UNL     1       7.168   6.987  19.509  0.00  0.00    +0.000 HD
BRANCH  15  17
ATOM     17  C   UNL     1       6.857   5.149  18.486  0.00  0.00    +0.000 C 
BRANCH  17  18
ATOM     18  C   UNL     1       5.341   4.987  18.409  0.00  0.00    +0.000 C 
BRANCH  18  19
ATOM     19  C   UNL     1       4.808   3.849  19.291  0.00  0.00    +0.000 C 
BRANCH  19  20
ATOM     20  N   UNL     1       3.367   4.005  19.553  0.00  0.00    +0.000 NA
ATOM     21  C   UNL     1       2.747   2.786  20.095  0.00  0.00    +0.000 C 
ATOM     22  C   UNL     1       1.811   2.269  19.018  0.00  0.00    +0.000 C 
ATOM     23  C   UNL     1       1.365   3.532  18.319  0.00  0.00    +0.000 C 
ATOM     24  C   UNL     1       2.606   4.402  18.357  0.00  0.00    +0.000 C 
ENDBRANCH  19  20
ENDBRANCH  18  19
ENDBRANCH  17  18
ENDBRANCH  15  17
ENDBRANCH   2  13
TORSDOF 7
ENDMDL
MODEL 8
REMARK VINA RESULT:      -7.0      1.249      2.495
REMARK  Name = 
REMARK  8 active torsions:
REMARK  status: ('A' for Active; 'I' for Inactive)
REMARK    1  A    between atoms: C_1  and  O_2
REMARK    2  A    between atoms: O_2  and  C_3
REMARK    3  A    between atoms: C_7  and  C_8
REMARK    4  A    between atoms: C_9  and  C_10
REMARK    5  A    between atoms: N_12  and  C_13
REMARK    6  A    between atoms: C_13  and  C_14
REMARK    7  A    between atoms: C_14  and  C_15
REMARK    8  A    between atoms: C_15  and  N_16
REMARK                            x       y       z     vdW  Elec       q    Type
REMARK                         _______ _______ _______ _____ _____    ______ ____
ROOT
ATOM      1  C   UNL     1       8.459   9.336  17.919  0.00  0.00    +0.000 C 
ATOM      2  C   UNL     1       8.360   8.126  18.497  0.00  0.00    +0.000 C 
ENDROOT
BRANCH   1   7
ATOM      3  C   UNL     1      10.509  12.672  19.763  0.00  0.00    +0.000 A 
ATOM      4  C   UNL     1      10.757  12.334  18.425  0.00  0.00    +0.000 A 
ATOM      5 BR   UNL     1      12.053  13.138  17.283  0.00  0.00    +0.000 Br
ATOM      6  C   UNL     1      10.066  11.263  17.824  0.00  0.00    +0.000 A 
ATOM      7  C   UNL     1       9.153  10.478  18.534  0.00  0.00    +0.000 A 
ATOM      8  C   UNL     1       8.886  10.821  19.858  0.00  0.00    +0.000 A 
ATOM      9  C   UNL     1       9.558  11.896  20.462  0.00  0.00    +0.000 A 
ATOM     10 BR   UNL     1       9.121  12.262  22.284  0.00  0.00    +0.000 Br
BRANCH   3  12
ATOM     11  C   UNL     1      10.842  15.000  20.332  0.00  0.00    +0.000 C 
ATOM     12  O   UNL     1      11.127  13.625  20.527  0.00  0.00    +0.000 OA
ENDBRANCH   3  12
ENDBRANCH   1   7
BRANCH   2  13
ATOM     13  C   UNL     1       7.639   7.010  17.824  0.00  0.00    +0.000 C 
ATOM     14  O   UNL     1       7.637   6.856  16.614  0.00  0.00    +0.000 OA
ATOM     15  N   UNL     1       6.990   6.196  18.721  0.00  0.00    +0.000 N 
ATOM     16  H   UNL     1       7.054   6.385  19.713  0.00  0.00    +0.000 HD
BRANCH  15  17
ATOM     17  C   UNL     1       6.216   5.043  18.292  0.00  0.00    +0.000 C 
BRANCH  17  18
ATOM     18  C   UNL     1       4.741   5.414  18.170  0.00  0.00    +0.000 C 
BRANCH  18  19
ATOM     19  C   UNL     1       3.828   4.200  17.946  0.00  0.00    +0.000 C 
BRANCH  19  20
ATOM     20  N   UNL     1       2.447   4.483  18.372  0.00  0.00    +0.000 NA
ATOM     21  C   UNL     1       2.357   5.613  19.310  0.00  0.00    +0.000 C 
ATOM     22  C   UNL     1       1.935   5.027  20.646  0.00  0.00    +0.000 C 
ATOM     23  C   UNL     1       1.091   3.839  20.244  0.00  0.00    +0.000 C 
ATOM     24  C   UNL     1       1.792   3.324  19.002  0.00  0.00    +0.000 C 
ENDBRANCH  19  20
ENDBRANCH  18  19
ENDBRANCH  17  18
ENDBRANCH  15  17
ENDBRANCH   2  13
TORSDOF 7
ENDMDL
MODEL 9
REMARK VINA RESULT:      -7.0      1.295      2.447
REMARK  Name = 
REMARK  8 active torsions:
REMARK  status: ('A' for Active; 'I' for Inactive)
REMARK    1  A    between atoms: C_1  and  O_2
REMARK    2  A    between atoms: O_2  and  C_3
REMARK    3  A    between atoms: C_7  and  C_8
REMARK    4  A    between atoms: C_9  and  C_10
REMARK    5  A    between atoms: N_12  and  C_13
REMARK    6  A    between atoms: C_13  and  C_14
REMARK    7  A    between atoms: C_14  and  C_15
REMARK    8  A    between atoms: C_15  and  N_16
REMARK                            x       y       z     vdW  Elec       q    Type
REMARK                         _______ _______ _______ _____ _____    ______ ____
ROOT
ATOM      1  C   UNL     1       8.354   9.218  17.836  0.00  0.00    +0.000 C 
ATOM      2  C   UNL     1       8.234   7.995  18.379  0.00  0.00    +0.000 C 
ENDROOT
BRANCH   1   7
ATOM      3  C   UNL     1      10.407  12.482  19.803  0.00  0.00    +0.000 A 
ATOM      4  C   UNL     1      10.664  12.186  18.457  0.00  0.00    +0.000 A 
ATOM      5 BR   UNL     1      11.973  13.018  17.351  0.00  0.00    +0.000 Br
ATOM      6  C   UNL     1       9.972  11.139  17.816  0.00  0.00    +0.000 A 
ATOM      7  C   UNL     1       9.049  10.336  18.493  0.00  0.00    +0.000 A 
ATOM      8  C   UNL     1       8.774  10.638  19.825  0.00  0.00    +0.000 A 
ATOM      9  C   UNL     1       9.446  11.689  20.469  0.00  0.00    +0.000 A 
ATOM     10 BR   UNL     1       8.997  11.999  22.298  0.00  0.00    +0.000 Br
BRANCH   3  12
ATOM     11  C   UNL     1      10.712  14.784  20.481  0.00  0.00    +0.000 C 
ATOM     12  O   UNL     1      11.024  13.407  20.601  0.00  0.00    +0.000 OA
ENDBRANCH   3  12
ENDBRANCH   1   7
BRANCH   2  13
ATOM     13  C   UNL     1       7.513   6.905  17.664  0.00  0.00    +0.000 C 
ATOM     14  O   UNL     1       7.482   6.816  16.448  0.00  0.00    +0.000 OA
ATOM     15  N   UNL     1       6.900   6.033  18.532  0.00  0.00    +0.000 N 
ATOM     16  H   UNL     1       6.986   6.169  19.530  0.00  0.00    +0.000 HD
BRANCH  15  17
ATOM     17  C   UNL     1       6.133   4.892  18.060  0.00  0.00    +0.000 C 
BRANCH  17  18
ATOM     18  C   UNL     1       4.652   5.252  17.972  0.00  0.00    +0.000 C 
BRANCH  18  19
ATOM     19  C   UNL     1       3.760   4.059  17.598  0.00  0.00    +0.000 C 
BRANCH  19  20
ATOM     20  N   UNL     1       3.167   3.439  18.794  0.00  0.00    +0.000 NA
ATOM     21  C   UNL     1       2.336   2.267  18.481  0.00  0.00    +0.000 C 
ATOM     22  C   UNL     1       0.905   2.661  18.798  0.00  0.00    +0.000 C 
ATOM     23  C   UNL     1       1.067   3.643  19.936  0.00  0.00    +0.000 C 
ATOM     24  C   UNL     1       2.344   4.377  19.577  0.00  0.00    +0.000 C 
ENDBRANCH  19  20
ENDBRANCH  18  19
ENDBRANCH  17  18
ENDBRANCH  15  17
ENDBRANCH   2  13
TORSDOF 7
ENDMDL
