MODEL 1
REMARK VINA RESULT:      -7.8      0.000      0.000
REMARK  Name = 
REMARK  5 active torsions:
REMARK  status: ('A' for Active; 'I' for Inactive)
REMARK    1  A    between atoms: C_1  and  C_2
REMARK    2  A    between atoms: C_2  and  C_3
REMARK    3  A    between atoms: C_3  and  N_4
REMARK    4  A    between atoms: C_5  and  C_7
REMARK    5  A    between atoms: C_7  and  N_8
REMARK                            x       y       z     vdW  Elec       q    Type
REMARK                         _______ _______ _______ _____ _____    ______ ____
ROOT
ATOM      1  N   UNL     1       4.188   5.624  17.960  0.00  0.00    +0.000 N 
ATOM      2  C   UNL     1       4.356   4.426  18.665  0.00  0.00    +0.000 C 
ATOM      3  O   UNL     1       5.457   3.913  18.837  0.00  0.00    +0.000 OA
ATOM      4  C   UNL     1       3.162   3.606  18.868  0.00  0.00    +0.000 A 
ATOM      5  C   UNL     1       3.067   2.390  18.185  0.00  0.00    +0.000 A 
ATOM      6  C   UNL     1       1.898   1.648  18.289  0.00  0.00    +0.000 A 
ATOM      7  C   UNL     1       0.878   2.151  19.081  0.00  0.00    +0.000 A 
ATOM      8  N   UNL     1       0.974   3.298  19.793  0.00  0.00    +0.000 NA
ATOM      9  C   UNL     1       2.128   4.004  19.681  0.00  0.00    +0.000 A 
ATOM     10  S   UNL     1       2.314   5.422  20.719  0.00  0.00    +0.000 S 
ATOM     11  C   UNL     1       2.460   6.706  19.483  0.00  0.00    +0.000 A 
ATOM     12  C   UNL     1       1.684   7.847  19.798  0.00  0.00    +0.000 A 
ATOM     13  C   UNL     1       1.675   8.968  18.981  0.00  0.00    +0.000 A 
ATOM     14  C   UNL     1       2.415   8.953  17.815  0.00  0.00    +0.000 A 
ATOM     15  C   UNL     1       3.185   7.830  17.484  0.00  0.00    +0.000 A 
ATOM     16  C   UNL     1       3.260   6.686  18.311  0.00  0.00    +0.000 A 
ENDROOT
BRANCH   1  17
ATOM     17  C   UNL     1       5.061   5.732  16.783  0.00  0.00    +0.000 C 
BRANCH  17  19
ATOM     18  N   UNL     1       6.713   7.343  17.664  0.00  0.00    +0.000 N 
ATOM     19  C   UNL     1       6.516   6.166  16.985  0.00  0.00    +0.000 C 
ATOM     20  O   UNL     1       7.445   5.412  16.685  0.00  0.00    +0.000 OA
ATOM     21  H   UNL     1       5.897   7.797  18.075  0.00  0.00    +0.000 HD
BRANCH  18  22
ATOM     22  C   UNL     1       8.032   7.821  18.025  0.00  0.00    +0.000 C 
BRANCH  22  24
ATOM     23  C   UNL     1       9.077   9.932  18.942  0.00  0.00    +0.000 C 
ATOM     24  C   UNL     1       8.161   9.335  17.883  0.00  0.00    +0.000 C 
ENDBRANCH  22  24
ENDBRANCH  18  22
ENDBRANCH  17  19
ENDBRANCH   1  17
TORSDOF 4
ENDMDL
MODEL 2
REMARK VINA RESULT:      -7.6      1.845      3.069
REMARK  Name = 
REMARK  5 active torsions:
REMARK  status: ('A' for Active; 'I' for Inactive)
REMARK    1  A    between atoms: C_1  and  C_2
REMARK    2  A    between atoms: C_2  and  C_3
REMARK    3  A    between atoms: C_3  and  N_4
REMARK    4  A    between atoms: C_5  and  C_7
REMARK    5  A    between atoms: C_7  and  N_8
REMARK                            x       y       z     vdW  Elec       q    Type
REMARK                         _______ _______ _______ _____ _____    ______ ____
ROOT
ATOM      1  N   UNL     1       4.518   6.091  18.319  0.00  0.00    +0.000 N 
ATOM      2  C   UNL     1       4.694   4.878  18.997  0.00  0.00    +0.000 C 
ATOM      3  O   UNL     1       5.792   4.497  19.388  0.00  0.00    +0.000 OA
ATOM      4  C   UNL     1       3.609   3.903  18.899  0.00  0.00    +0.000 A 
ATOM      5  C   UNL     1       3.831   2.734  18.165  0.00  0.00    +0.000 A 
ATOM      6  C   UNL     1       2.780   1.845  17.978  0.00  0.00    +0.000 A 
ATOM      7  C   UNL     1       1.555   2.161  18.544  0.00  0.00    +0.000 A 
ATOM      8  N   UNL     1       1.338   3.260  19.304  0.00  0.00    +0.000 NA
ATOM      9  C   UNL     1       2.380   4.112  19.478  0.00  0.00    +0.000 A 
ATOM     10  S   UNL     1       2.143   5.468  20.585  0.00  0.00    +0.000 S 
ATOM     11  C   UNL     1       2.372   6.841  19.462  0.00  0.00    +0.000 A 
ATOM     12  C   UNL     1       1.397   7.851  19.642  0.00  0.00    +0.000 A 
ATOM     13  C   UNL     1       1.409   9.015  18.887  0.00  0.00    +0.000 A 
ATOM     14  C   UNL     1       2.377   9.173  17.914  0.00  0.00    +0.000 A 
ATOM     15  C   UNL     1       3.346   8.180  17.719  0.00  0.00    +0.000 A 
ATOM     16  C   UNL     1       3.399   7.002  18.497  0.00  0.00    +0.000 A 
ENDROOT
BRANCH   1  17
ATOM     17  C   UNL     1       5.600   6.388  17.370  0.00  0.00    +0.000 C 
BRANCH  17  19
ATOM     18  N   UNL     1       5.479   4.624  15.645  0.00  0.00    +0.000 N 
ATOM     19  C   UNL     1       5.429   5.971  15.906  0.00  0.00    +0.000 C 
ATOM     20  O   UNL     1       5.110   6.799  15.050  0.00  0.00    +0.000 OA
ATOM     21  H   UNL     1       5.523   3.987  16.441  0.00  0.00    +0.000 HD
BRANCH  18  22
ATOM     22  C   UNL     1       5.222   4.076  14.329  0.00  0.00    +0.000 C 
BRANCH  22  24
ATOM     23  C   UNL     1       6.222   3.335  12.129  0.00  0.00    +0.000 C 
ATOM     24  C   UNL     1       6.493   3.954  13.493  0.00  0.00    +0.000 C 
ENDBRANCH  22  24
ENDBRANCH  18  22
ENDBRANCH  17  19
ENDBRANCH   1  17
TORSDOF 4
ENDMDL
MODEL 3
REMARK VINA RESULT:      -7.5      2.670      5.008
REMARK  Name = 
REMARK  5 active torsions:
REMARK  status: ('A' for Active; 'I' for Inactive)
REMARK    1  A    between atoms: C_1  and  C_2
REMARK    2  A    between atoms: C_2  and  C_3
REMARK    3  A    between atoms: C_3  and  N_4
REMARK    4  A    between atoms: C_5  and  C_7
REMARK    5  A    between atoms: C_7  and  N_8
REMARK                            x       y       z     vdW  Elec       q    Type
REMARK                         _______ _______ _______ _____ _____    ______ ____
ROOT
ATOM      1  N   UNL     1       2.997   5.851  17.766  0.00  0.00    +0.000 N 
ATOM      2  C   UNL     1       2.091   4.799  17.944  0.00  0.00    +0.000 C 
ATOM      3  O   UNL     1       1.037   4.725  17.319  0.00  0.00    +0.000 OA
ATOM      4  C   UNL     1       2.244   3.992  19.153  0.00  0.00    +0.000 A 
ATOM      5  C   UNL     1       1.267   4.091  20.148  0.00  0.00    +0.000 A 
ATOM      6  C   UNL     1       1.449   3.408  21.343  0.00  0.00    +0.000 A 
ATOM      7  C   UNL     1       2.598   2.648  21.487  0.00  0.00    +0.000 A 
ATOM      8  N   UNL     1       3.527   2.495  20.515  0.00  0.00    +0.000 NA
ATOM      9  C   UNL     1       3.326   3.167  19.352  0.00  0.00    +0.000 A 
ATOM     10  S   UNL     1       4.457   2.858  18.031  0.00  0.00    +0.000 S 
ATOM     11  C   UNL     1       5.149   4.493  17.812  0.00  0.00    +0.000 A 
ATOM     12  C   UNL     1       6.555   4.466  17.661  0.00  0.00    +0.000 A 
ATOM     13  C   UNL     1       7.286   5.628  17.455  0.00  0.00    +0.000 A 
ATOM     14  C   UNL     1       6.624   6.841  17.431  0.00  0.00    +0.000 A 
ATOM     15  C   UNL     1       5.232   6.886  17.586  0.00  0.00    +0.000 A 
ATOM     16  C   UNL     1       4.445   5.724  17.751  0.00  0.00    +0.000 A 
ENDROOT
BRANCH   1  17
ATOM     17  C   UNL     1       2.344   7.155  17.586  0.00  0.00    +0.000 C 
BRANCH  17  19
ATOM     18  N   UNL     1       1.393   9.194  18.607  0.00  0.00    +0.000 N 
ATOM     19  C   UNL     1       2.028   7.996  18.827  0.00  0.00    +0.000 C 
ATOM     20  O   UNL     1       2.199   7.536  19.958  0.00  0.00    +0.000 OA
ATOM     21  H   UNL     1       1.085   9.400  17.657  0.00  0.00    +0.000 HD
BRANCH  18  22
ATOM     22  C   UNL     1       0.932  10.040  19.688  0.00  0.00    +0.000 C 
BRANCH  22  24
ATOM     23  C   UNL     1      -1.161  10.318  18.300  0.00  0.00    +0.000 C 
ATOM     24  C   UNL     1      -0.586  10.188  19.703  0.00  0.00    +0.000 C 
ENDBRANCH  22  24
ENDBRANCH  18  22
ENDBRANCH  17  19
ENDBRANCH   1  17
TORSDOF 4
ENDMDL
MODEL 4
REMARK VINA RESULT:      -7.3      0.848      1.130
REMARK  Name = 
REMARK  5 active torsions:
REMARK  status: ('A' for Active; 'I' for Inactive)
REMARK    1  A    between atoms: C_1  and  C_2
REMARK    2  A    between atoms: C_2  and  C_3
REMARK    3  A    between atoms: C_3  and  N_4
REMARK    4  A    between atoms: C_5  and  C_7
REMARK    5  A    between atoms: C_7  and  N_8
REMARK                            x       y       z     vdW  Elec       q    Type
REMARK                         _______ _______ _______ _____ _____    ______ ____
ROOT
ATOM      1  N   UNL     1       3.804   5.780  17.738  0.00  0.00    +0.000 N 
ATOM      2  C   UNL     1       4.057   4.569  18.394  0.00  0.00    +0.000 C 
ATOM      3  O   UNL     1       5.160   4.033  18.383  0.00  0.00    +0.000 OA
ATOM      4  C   UNL     1       2.894   3.769  18.776  0.00  0.00    +0.000 A 
ATOM      5  C   UNL     1       2.666   2.565  18.103  0.00  0.00    +0.000 A 
ATOM      6  C   UNL     1       1.512   1.844  18.384  0.00  0.00    +0.000 A 
ATOM      7  C   UNL     1       0.643   2.355  19.333  0.00  0.00    +0.000 A 
ATOM      8  N   UNL     1       0.875   3.490  20.034  0.00  0.00    +0.000 NA
ATOM      9  C   UNL     1       2.011   4.176  19.747  0.00  0.00    +0.000 A 
ATOM     10  S   UNL     1       2.389   5.575  20.757  0.00  0.00    +0.000 S 
ATOM     11  C   UNL     1       2.363   6.873  19.528  0.00  0.00    +0.000 A 
ATOM     12  C   UNL     1       1.672   8.024  19.975  0.00  0.00    +0.000 A 
ATOM     13  C   UNL     1       1.557   9.157  19.182  0.00  0.00    +0.000 A 
ATOM     14  C   UNL     1       2.102   9.144  17.913  0.00  0.00    +0.000 A 
ATOM     15  C   UNL     1       2.785   8.011  17.451  0.00  0.00    +0.000 A 
ATOM     16  C   UNL     1       2.967   6.855  18.243  0.00  0.00    +0.000 A 
ENDROOT
BRANCH   1  17
ATOM     17  C   UNL     1       4.482   5.888  16.438  0.00  0.00    +0.000 C 
BRANCH  17  19
ATOM     18  N   UNL     1       6.317   7.266  17.351  0.00  0.00    +0.000 N 
ATOM     19  C   UNL     1       5.944   6.342  16.407  0.00  0.00    +0.000 C 
ATOM     20  O   UNL     1       6.760   5.783  15.670  0.00  0.00    +0.000 OA
ATOM     21  H   UNL     1       5.635   7.513  18.069  0.00  0.00    +0.000 HD
BRANCH  18  22
ATOM     22  C   UNL     1       7.689   7.703  17.514  0.00  0.00    +0.000 C 
BRANCH  22  24
ATOM     23  C   UNL     1       7.899   5.815  19.181  0.00  0.00    +0.000 C 
ATOM     24  C   UNL     1       8.291   7.245  18.839  0.00  0.00    +0.000 C 
ENDBRANCH  22  24
ENDBRANCH  18  22
ENDBRANCH  17  19
ENDBRANCH   1  17
TORSDOF 4
ENDMDL
MODEL 5
REMARK VINA RESULT:      -7.2      2.685      4.887
REMARK  Name = 
REMARK  5 active torsions:
REMARK  status: ('A' for Active; 'I' for Inactive)
REMARK    1  A    between atoms: C_1  and  C_2
REMARK    2  A    between atoms: C_2  and  C_3
REMARK    3  A    between atoms: C_3  and  N_4
REMARK    4  A    between atoms: C_5  and  C_7
REMARK    5  A    between atoms: C_7  and  N_8
REMARK                            x       y       z     vdW  Elec       q    Type
REMARK                         _______ _______ _______ _____ _____    ______ ____
ROOT
ATOM      1  N   UNL     1       2.928   5.765  17.760  0.00  0.00    +0.000 N 
ATOM      2  C   UNL     1       2.059   4.682  17.945  0.00  0.00    +0.000 C 
ATOM      3  O   UNL     1       1.029   4.547  17.292  0.00  0.00    +0.000 OA
ATOM      4  C   UNL     1       2.208   3.919  19.183  0.00  0.00    +0.000 A 
ATOM      5  C   UNL     1       1.196   4.008  20.145  0.00  0.00    +0.000 A 
ATOM      6  C   UNL     1       1.370   3.370  21.366  0.00  0.00    +0.000 A 
ATOM      7  C   UNL     1       2.543   2.661  21.567  0.00  0.00    +0.000 A 
ATOM      8  N   UNL     1       3.507   2.518  20.628  0.00  0.00    +0.000 NA
ATOM      9  C   UNL     1       3.315   3.146  19.439  0.00  0.00    +0.000 A 
ATOM     10  S   UNL     1       4.497   2.843  18.162  0.00  0.00    +0.000 S 
ATOM     11  C   UNL     1       5.129   4.498  17.913  0.00  0.00    +0.000 A 
ATOM     12  C   UNL     1       6.539   4.524  17.803  0.00  0.00    +0.000 A 
ATOM     13  C   UNL     1       7.229   5.708  17.582  0.00  0.00    +0.000 A 
ATOM     14  C   UNL     1       6.520   6.891  17.502  0.00  0.00    +0.000 A 
ATOM     15  C   UNL     1       5.124   6.884  17.614  0.00  0.00    +0.000 A 
ATOM     16  C   UNL     1       4.379   5.697  17.792  0.00  0.00    +0.000 A 
ENDROOT
BRANCH   1  17
ATOM     17  C   UNL     1       2.229   7.035  17.521  0.00  0.00    +0.000 C 
BRANCH  17  19
ATOM     18  N   UNL     1       1.804   7.390  19.928  0.00  0.00    +0.000 N 
ATOM     19  C   UNL     1       1.996   7.980  18.704  0.00  0.00    +0.000 C 
ATOM     20  O   UNL     1       2.131   9.199  18.571  0.00  0.00    +0.000 OA
ATOM     21  H   UNL     1       1.929   6.379  19.993  0.00  0.00    +0.000 HD
BRANCH  18  22
ATOM     22  C   UNL     1       1.684   8.156  21.152  0.00  0.00    +0.000 C 
BRANCH  22  24
ATOM     23  C   UNL     1       0.122   9.351  22.739  0.00  0.00    +0.000 C 
ATOM     24  C   UNL     1       0.239   8.542  21.456  0.00  0.00    +0.000 C 
ENDBRANCH  22  24
ENDBRANCH  18  22
ENDBRANCH  17  19
ENDBRANCH   1  17
TORSDOF 4
ENDMDL
MODEL 6
REMARK VINA RESULT:      -6.9      2.512      6.125
REMARK  Name = 
REMARK  5 active torsions:
REMARK  status: ('A' for Active; 'I' for Inactive)
REMARK    1  A    between atoms: C_1  and  C_2
REMARK    2  A    between atoms: C_2  and  C_3
REMARK    3  A    between atoms: C_3  and  N_4
REMARK    4  A    between atoms: C_5  and  C_7
REMARK    5  A    between atoms: C_7  and  N_8
REMARK                            x       y       z     vdW  Elec       q    Type
REMARK                         _______ _______ _______ _____ _____    ______ ____
ROOT
ATOM      1  N   UNL     1       4.825   3.878  17.330  0.00  0.00    +0.000 N 
ATOM      2  C   UNL     1       4.678   4.665  18.479  0.00  0.00    +0.000 C 
ATOM      3  O   UNL     1       4.770   4.201  19.610  0.00  0.00    +0.000 OA
ATOM      4  C   UNL     1       4.042   5.970  18.308  0.00  0.00    +0.000 A 
ATOM      5  C   UNL     1       2.766   6.164  18.847  0.00  0.00    +0.000 A 
ATOM      6  C   UNL     1       2.108   7.364  18.608  0.00  0.00    +0.000 A 
ATOM      7  C   UNL     1       2.760   8.321  17.848  0.00  0.00    +0.000 A 
ATOM      8  N   UNL     1       4.016   8.173  17.366  0.00  0.00    +0.000 NA
ATOM      9  C   UNL     1       4.643   6.995  17.616  0.00  0.00    +0.000 A 
ATOM     10  S   UNL     1       6.331   6.852  17.115  0.00  0.00    +0.000 S 
ATOM     11  C   UNL     1       6.205   5.506  15.945  0.00  0.00    +0.000 A 
ATOM     12  C   UNL     1       6.941   5.751  14.761  0.00  0.00    +0.000 A 
ATOM     13  C   UNL     1       6.996   4.821  13.733  0.00  0.00    +0.000 A 
ATOM     14  C   UNL     1       6.286   3.642  13.858  0.00  0.00    +0.000 A 
ATOM     15  C   UNL     1       5.547   3.386  15.020  0.00  0.00    +0.000 A 
ATOM     16  C   UNL     1       5.502   4.284  16.110  0.00  0.00    +0.000 A 
ENDROOT
BRANCH   1  17
ATOM     17  C   UNL     1       4.213   2.547  17.456  0.00  0.00    +0.000 C 
BRANCH  17  19
ATOM     18  N   UNL     1       2.529   2.014  19.182  0.00  0.00    +0.000 N 
ATOM     19  C   UNL     1       2.751   2.449  17.899  0.00  0.00    +0.000 C 
ATOM     20  O   UNL     1       1.846   2.888  17.184  0.00  0.00    +0.000 OA
ATOM     21  H   UNL     1       3.341   1.883  19.785  0.00  0.00    +0.000 HD
BRANCH  18  22
ATOM     22  C   UNL     1       1.208   1.977  19.774  0.00  0.00    +0.000 C 
BRANCH  22  24
ATOM     23  C   UNL     1       2.034   3.470  21.638  0.00  0.00    +0.000 C 
ATOM     24  C   UNL     1       0.922   3.206  20.633  0.00  0.00    +0.000 C 
ENDBRANCH  22  24
ENDBRANCH  18  22
ENDBRANCH  17  19
ENDBRANCH   1  17
TORSDOF 4
ENDMDL
MODEL 7
REMARK VINA RESULT:      -6.7      3.206      5.062
REMARK  Name = 
REMARK  5 active torsions:
REMARK  status: ('A' for Active; 'I' for Inactive)
REMARK    1  A    between atoms: C_1  and  C_2
REMARK    2  A    between atoms: C_2  and  C_3
REMARK    3  A    between atoms: C_3  and  N_4
REMARK    4  A    between atoms: C_5  and  C_7
REMARK    5  A    between atoms: C_7  and  N_8
REMARK                            x       y       z     vdW  Elec       q    Type
REMARK                         _______ _______ _______ _____ _____    ______ ____
ROOT
ATOM      1  N   UNL     1       5.415   5.040  16.476  0.00  0.00    +0.000 N 
ATOM      2  C   UNL     1       4.574   3.951  16.740  0.00  0.00    +0.000 C 
ATOM      3  O   UNL     1       4.412   3.036  15.940  0.00  0.00    +0.000 OA
ATOM      4  C   UNL     1       3.608   4.112  17.825  0.00  0.00    +0.000 A 
ATOM      5  C   UNL     1       2.251   4.198  17.500  0.00  0.00    +0.000 A 
ATOM      6  C   UNL     1       1.330   4.451  18.509  0.00  0.00    +0.000 A 
ATOM      7  C   UNL     1       1.807   4.595  19.801  0.00  0.00    +0.000 A 
ATOM      8  N   UNL     1       3.110   4.459  20.143  0.00  0.00    +0.000 NA
ATOM      9  C   UNL     1       3.992   4.207  19.142  0.00  0.00    +0.000 A 
ATOM     10  S   UNL     1       5.667   3.884  19.600  0.00  0.00    +0.000 S 
ATOM     11  C   UNL     1       6.491   5.239  18.772  0.00  0.00    +0.000 A 
ATOM     12  C   UNL     1       7.461   5.861  19.594  0.00  0.00    +0.000 A 
ATOM     13  C   UNL     1       8.232   6.920  19.134  0.00  0.00    +0.000 A 
ATOM     14  C   UNL     1       8.021   7.396  17.855  0.00  0.00    +0.000 A 
ATOM     15  C   UNL     1       7.060   6.795  17.030  0.00  0.00    +0.000 A 
ATOM     16  C   UNL     1       6.288   5.686  17.441  0.00  0.00    +0.000 A 
ENDROOT
BRANCH   1  17
ATOM     17  C   UNL     1       5.344   5.502  15.082  0.00  0.00    +0.000 C 
BRANCH  17  19
ATOM     18  N   UNL     1       5.709   3.865  13.269  0.00  0.00    +0.000 N 
ATOM     19  C   UNL     1       6.264   4.853  14.044  0.00  0.00    +0.000 C 
ATOM     20  O   UNL     1       7.389   5.311  13.826  0.00  0.00    +0.000 OA
ATOM     21  H   UNL     1       4.707   3.697  13.360  0.00  0.00    +0.000 HD
BRANCH  18  22
ATOM     22  C   UNL     1       6.424   3.240  12.175  0.00  0.00    +0.000 C 
BRANCH  22  24
ATOM     23  C   UNL     1       6.449   0.974  11.058  0.00  0.00    +0.000 C 
ATOM     24  C   UNL     1       5.597   2.161  11.481  0.00  0.00    +0.000 C 
ENDBRANCH  22  24
ENDBRANCH  18  22
ENDBRANCH  17  19
ENDBRANCH   1  17
TORSDOF 4
ENDMDL
MODEL 8
REMARK VINA RESULT:      -6.7      2.790      5.588
REMARK  Name = 
REMARK  5 active torsions:
REMARK  status: ('A' for Active; 'I' for Inactive)
REMARK    1  A    between atoms: C_1  and  C_2
REMARK    2  A    between atoms: C_2  and  C_3
REMARK    3  A    between atoms: C_3  and  N_4
REMARK    4  A    between atoms: C_5  and  C_7
REMARK    5  A    between atoms: C_7  and  N_8
REMARK                            x       y       z     vdW  Elec       q    Type
REMARK                         _______ _______ _______ _____ _____    ______ ____
ROOT
ATOM      1  N   UNL     1       3.095   6.228  18.129  0.00  0.00    +0.000 N 
ATOM      2  C   UNL     1       4.356   6.599  17.648  0.00  0.00    +0.000 C 
ATOM      3  O   UNL     1       4.758   7.758  17.680  0.00  0.00    +0.000 OA
ATOM      4  C   UNL     1       5.032   5.649  16.766  0.00  0.00    +0.000 A 
ATOM      5  C   UNL     1       5.180   5.983  15.416  0.00  0.00    +0.000 A 
ATOM      6  C   UNL     1       5.729   5.049  14.547  0.00  0.00    +0.000 A 
ATOM      7  C   UNL     1       6.117   3.826  15.069  0.00  0.00    +0.000 A 
ATOM      8  N   UNL     1       6.034   3.507  16.382  0.00  0.00    +0.000 NA
ATOM      9  C   UNL     1       5.499   4.436  17.215  0.00  0.00    +0.000 A 
ATOM     10  S   UNL     1       5.521   4.082  18.945  0.00  0.00    +0.000 S 
ATOM     11  C   UNL     1       3.767   4.067  19.292  0.00  0.00    +0.000 A 
ATOM     12  C   UNL     1       3.391   2.979  20.115  0.00  0.00    +0.000 A 
ATOM     13  C   UNL     1       2.077   2.796  20.522  0.00  0.00    +0.000 A 
ATOM     14  C   UNL     1       1.111   3.681  20.084  0.00  0.00    +0.000 A 
ATOM     15  C   UNL     1       1.465   4.761  19.264  0.00  0.00    +0.000 A 
ATOM     16  C   UNL     1       2.797   5.011  18.865  0.00  0.00    +0.000 A 
ENDROOT
BRANCH   1  17
ATOM     17  C   UNL     1       2.044   7.209  17.821  0.00  0.00    +0.000 C 
BRANCH  17  19
ATOM     18  N   UNL     1       1.397   9.555  18.242  0.00  0.00    +0.000 N 
ATOM     19  C   UNL     1       1.811   8.368  18.794  0.00  0.00    +0.000 C 
ATOM     20  O   UNL     1       1.847   8.182  20.013  0.00  0.00    +0.000 OA
ATOM     21  H   UNL     1       1.175   9.563  17.246  0.00  0.00    +0.000 HD
BRANCH  18  22
ATOM     22  C   UNL     1       1.031  10.702  19.047  0.00  0.00    +0.000 C 
BRANCH  22  24
ATOM     23  C   UNL     1      -1.249  10.324  18.024  0.00  0.00    +0.000 C 
ATOM     24  C   UNL     1      -0.479  10.818  19.240  0.00  0.00    +0.000 C 
ENDBRANCH  22  24
ENDBRANCH  18  22
ENDBRANCH  17  19
ENDBRANCH   1  17
TORSDOF 4
ENDMDL
MODEL 9
REMARK VINA RESULT:      -6.7      2.781      5.593
REMARK  Name = 
REMARK  5 active torsions:
REMARK  status: ('A' for Active; 'I' for Inactive)
REMARK    1  A    between atoms: C_1  and  C_2
REMARK    2  A    between atoms: C_2  and  C_3
REMARK    3  A    between atoms: C_3  and  N_4
REMARK    4  A    between atoms: C_5  and  C_7
REMARK    5  A    between atoms: C_7  and  N_8
REMARK                            x       y       z     vdW  Elec       q    Type
REMARK                         _______ _______ _______ _____ _____    ______ ____
ROOT
ATOM      1  N   UNL     1       3.066   6.198  18.200  0.00  0.00    +0.000 N 
ATOM      2  C   UNL     1       4.331   6.584  17.740  0.00  0.00    +0.000 C 
ATOM      3  O   UNL     1       4.732   7.741  17.814  0.00  0.00    +0.000 OA
ATOM      4  C   UNL     1       5.014   5.663  16.833  0.00  0.00    +0.000 A 
ATOM      5  C   UNL     1       5.171   6.041  15.496  0.00  0.00    +0.000 A 
ATOM      6  C   UNL     1       5.728   5.136  14.601  0.00  0.00    +0.000 A 
ATOM      7  C   UNL     1       6.112   3.897  15.086  0.00  0.00    +0.000 A 
ATOM      8  N   UNL     1       6.019   3.535  16.387  0.00  0.00    +0.000 NA
ATOM      9  C   UNL     1       5.477   4.436  17.246  0.00  0.00    +0.000 A 
ATOM     10  S   UNL     1       5.487   4.027  18.964  0.00  0.00    +0.000 S 
ATOM     11  C   UNL     1       3.730   4.000  19.297  0.00  0.00    +0.000 A 
ATOM     12  C   UNL     1       3.347   2.886  20.081  0.00  0.00    +0.000 A 
ATOM     13  C   UNL     1       2.030   2.691  20.472  0.00  0.00    +0.000 A 
ATOM     14  C   UNL     1       1.067   3.589  20.055  0.00  0.00    +0.000 A 
ATOM     15  C   UNL     1       1.427   4.695  19.274  0.00  0.00    +0.000 A 
ATOM     16  C   UNL     1       2.763   4.957  18.893  0.00  0.00    +0.000 A 
ENDROOT
BRANCH   1  17
ATOM     17  C   UNL     1       2.018   7.188  17.915  0.00  0.00    +0.000 C 
BRANCH  17  19
ATOM     18  N   UNL     1       1.571   7.891  20.240  0.00  0.00    +0.000 N 
ATOM     19  C   UNL     1       1.753   8.295  18.940  0.00  0.00    +0.000 C 
ATOM     20  O   UNL     1       1.857   9.482  18.625  0.00  0.00    +0.000 OA
ATOM     21  H   UNL     1       1.722   6.906  20.457  0.00  0.00    +0.000 HD
BRANCH  18  22
ATOM     22  C   UNL     1       1.423   8.831  21.333  0.00  0.00    +0.000 C 
BRANCH  22  24
ATOM     23  C   UNL     1      -0.106   9.561  23.207  0.00  0.00    +0.000 C 
ATOM     24  C   UNL     1      -0.017   8.924  21.828  0.00  0.00    +0.000 C 
ENDBRANCH  22  24
ENDBRANCH  18  22
ENDBRANCH  17  19
ENDBRANCH   1  17
TORSDOF 4
ENDMDL
