MODEL 1
REMARK VINA RESULT:      -7.8      0.000      0.000
REMARK  Name = 
REMARK  3 active torsions:
REMARK  status: ('A' for Active; 'I' for Inactive)
REMARK    1  A    between atoms: C_5  and  C_6
REMARK    2  A    between atoms: N_12  and  C_13
REMARK    3  A    between atoms: C_19  and  O_20
REMARK                            x       y       z     vdW  Elec       q    Type
REMARK                         _______ _______ _______ _____ _____    ______ ____
ROOT
ATOM      1  O   UNL     1       4.971   1.943  20.155  0.00  0.00    +0.000 OA
ATOM      2  C   UNL     1       4.006   2.700  20.230  0.00  0.00    +0.000 C 
ATOM      3  C   UNL     1       2.860   2.438  21.180  0.00  0.00    +0.000 C 
ATOM      4  S   UNL     1       1.695   3.797  21.014  0.00  0.00    +0.000 S 
ATOM      5  C   UNL     1       2.454   4.368  19.458  0.00  0.00    +0.000 C 
ATOM      6  N   UNL     1       3.810   3.844  19.466  0.00  0.00    +0.000 N 
ENDROOT
BRANCH   6   7
ATOM      7  C   UNL     1       4.682   4.102  18.380  0.00  0.00    +0.000 A 
ATOM      8  C   UNL     1       4.288   3.683  17.103  0.00  0.00    +0.000 A 
ATOM      9  C   UNL     1       5.118   3.911  16.001  0.00  0.00    +0.000 A 
ATOM     10  C   UNL     1       6.325   4.586  16.174  0.00  0.00    +0.000 A 
ATOM     11 CL   UNL     1       7.335   4.889  14.814  0.00  0.00    +0.000 Cl
ATOM     12  C   UNL     1       6.723   5.023  17.438  0.00  0.00    +0.000 A 
ATOM     13  C   UNL     1       5.905   4.767  18.539  0.00  0.00    +0.000 A 
BRANCH  13  14
ATOM     14  O   UNL     1       6.280   5.213  19.778  0.00  0.00    +0.000 OA
ATOM     15  H   UNL     1       5.698   5.950  20.033  0.00  0.00    +0.000 HD
ENDBRANCH  13  14
ENDBRANCH   6   7
BRANCH   5  16
ATOM     16  C   UNL     1       2.334   5.881  19.323  0.00  0.00    +0.000 A 
ATOM     17  C   UNL     1       2.506   6.469  18.067  0.00  0.00    +0.000 A 
ATOM     18  C   UNL     1       2.301   7.837  17.919  0.00  0.00    +0.000 A 
ATOM     19  C   UNL     1       1.936   8.593  19.025  0.00  0.00    +0.000 A 
ATOM     20  C   UNL     1       1.795   7.946  20.242  0.00  0.00    +0.000 A 
ATOM     21  N   UNL     1       1.979   6.619  20.415  0.00  0.00    +0.000 NA
ENDBRANCH   5  16
TORSDOF 3
ENDMDL
MODEL 2
REMARK VINA RESULT:      -7.5      0.626      1.081
REMARK  Name = 
REMARK  3 active torsions:
REMARK  status: ('A' for Active; 'I' for Inactive)
REMARK    1  A    between atoms: C_5  and  C_6
REMARK    2  A    between atoms: N_12  and  C_13
REMARK    3  A    between atoms: C_19  and  O_20
REMARK                            x       y       z     vdW  Elec       q    Type
REMARK                         _______ _______ _______ _____ _____    ______ ____
ROOT
ATOM      1  O   UNL     1       5.055   1.922  20.250  0.00  0.00    +0.000 OA
ATOM      2  C   UNL     1       4.052   2.630  20.308  0.00  0.00    +0.000 C 
ATOM      3  C   UNL     1       2.923   2.334  21.268  0.00  0.00    +0.000 C 
ATOM      4  S   UNL     1       1.690   3.627  21.072  0.00  0.00    +0.000 S 
ATOM      5  C   UNL     1       2.416   4.197  19.500  0.00  0.00    +0.000 C 
ATOM      6  N   UNL     1       3.797   3.744  19.517  0.00  0.00    +0.000 N 
ENDROOT
BRANCH   6   7
ATOM      7  C   UNL     1       4.653   4.019  18.423  0.00  0.00    +0.000 A 
ATOM      8  C   UNL     1       4.277   3.554  17.157  0.00  0.00    +0.000 A 
ATOM      9  C   UNL     1       5.092   3.797  16.048  0.00  0.00    +0.000 A 
ATOM     10  C   UNL     1       6.266   4.532  16.201  0.00  0.00    +0.000 A 
ATOM     11 CL   UNL     1       7.257   4.854  14.831  0.00  0.00    +0.000 Cl
ATOM     12  C   UNL     1       6.646   5.016  17.454  0.00  0.00    +0.000 A 
ATOM     13  C   UNL     1       5.843   4.745  18.563  0.00  0.00    +0.000 A 
BRANCH  13  14
ATOM     14  O   UNL     1       6.199   5.235  19.791  0.00  0.00    +0.000 OA
ATOM     15  H   UNL     1       6.465   6.165  19.690  0.00  0.00    +0.000 HD
ENDBRANCH  13  14
ENDBRANCH   6   7
BRANCH   5  16
ATOM     16  C   UNL     1       2.219   5.699  19.329  0.00  0.00    +0.000 A 
ATOM     17  C   UNL     1       1.888   6.473  20.445  0.00  0.00    +0.000 A 
ATOM     18  C   UNL     1       1.802   7.856  20.315  0.00  0.00    +0.000 A 
ATOM     19  C   UNL     1       2.039   8.438  19.077  0.00  0.00    +0.000 A 
ATOM     20  C   UNL     1       2.350   7.608  18.012  0.00  0.00    +0.000 A 
ATOM     21  N   UNL     1       2.449   6.265  18.110  0.00  0.00    +0.000 NA
ENDBRANCH   5  16
TORSDOF 3
ENDMDL
MODEL 3
REMARK VINA RESULT:      -7.2      2.892      4.778
REMARK  Name = 
REMARK  3 active torsions:
REMARK  status: ('A' for Active; 'I' for Inactive)
REMARK    1  A    between atoms: C_5  and  C_6
REMARK    2  A    between atoms: N_12  and  C_13
REMARK    3  A    between atoms: C_19  and  O_20
REMARK                            x       y       z     vdW  Elec       q    Type
REMARK                         _______ _______ _______ _____ _____    ______ ____
ROOT
ATOM      1  O   UNL     1       0.723   3.623  18.187  0.00  0.00    +0.000 OA
ATOM      2  C   UNL     1       1.907   3.359  18.381  0.00  0.00    +0.000 C 
ATOM      3  C   UNL     1       2.410   1.935  18.422  0.00  0.00    +0.000 C 
ATOM      4  S   UNL     1       4.189   1.993  18.673  0.00  0.00    +0.000 S 
ATOM      5  C   UNL     1       4.145   3.745  19.174  0.00  0.00    +0.000 C 
ATOM      6  N   UNL     1       2.917   4.285  18.613  0.00  0.00    +0.000 N 
ENDROOT
BRANCH   6   7
ATOM      7  C   UNL     1       2.570   5.641  18.825  0.00  0.00    +0.000 A 
ATOM      8  C   UNL     1       2.571   6.504  17.722  0.00  0.00    +0.000 A 
ATOM      9  C   UNL     1       2.240   7.852  17.883  0.00  0.00    +0.000 A 
ATOM     10  C   UNL     1       1.878   8.329  19.142  0.00  0.00    +0.000 A 
ATOM     11 CL   UNL     1       1.446   9.983  19.336  0.00  0.00    +0.000 Cl
ATOM     12  C   UNL     1       1.857   7.477  20.248  0.00  0.00    +0.000 A 
ATOM     13  C   UNL     1       2.217   6.139  20.086  0.00  0.00    +0.000 A 
BRANCH  13  14
ATOM     14  O   UNL     1       2.177   5.293  21.163  0.00  0.00    +0.000 OA
ATOM     15  H   UNL     1       1.967   4.397  20.848  0.00  0.00    +0.000 HD
ENDBRANCH  13  14
ENDBRANCH   6   7
BRANCH   5  16
ATOM     16  C   UNL     1       5.427   4.457  18.760  0.00  0.00    +0.000 A 
ATOM     17  C   UNL     1       5.740   4.559  17.401  0.00  0.00    +0.000 A 
ATOM     18  C   UNL     1       6.857   5.291  17.011  0.00  0.00    +0.000 A 
ATOM     19  C   UNL     1       7.644   5.899  17.980  0.00  0.00    +0.000 A 
ATOM     20  C   UNL     1       7.281   5.745  19.309  0.00  0.00    +0.000 A 
ATOM     21  N   UNL     1       6.198   5.048  19.717  0.00  0.00    +0.000 NA
ENDBRANCH   5  16
TORSDOF 3
ENDMDL
MODEL 4
REMARK VINA RESULT:      -7.1      3.269      5.178
REMARK  Name = 
REMARK  3 active torsions:
REMARK  status: ('A' for Active; 'I' for Inactive)
REMARK    1  A    between atoms: C_5  and  C_6
REMARK    2  A    between atoms: N_12  and  C_13
REMARK    3  A    between atoms: C_19  and  O_20
REMARK                            x       y       z     vdW  Elec       q    Type
REMARK                         _______ _______ _______ _____ _____    ______ ____
ROOT
ATOM      1  O   UNL     1       0.880   4.369  17.536  0.00  0.00    +0.000 OA
ATOM      2  C   UNL     1       2.085   4.181  17.689  0.00  0.00    +0.000 C 
ATOM      3  C   UNL     1       2.726   2.844  17.393  0.00  0.00    +0.000 C 
ATOM      4  S   UNL     1       4.490   3.009  17.695  0.00  0.00    +0.000 S 
ATOM      5  C   UNL     1       4.273   4.572  18.607  0.00  0.00    +0.000 C 
ATOM      6  N   UNL     1       2.998   5.113  18.164  0.00  0.00    +0.000 N 
ENDROOT
BRANCH   6   7
ATOM      7  C   UNL     1       2.519   6.336  18.693  0.00  0.00    +0.000 A 
ATOM      8  C   UNL     1       2.364   7.419  17.818  0.00  0.00    +0.000 A 
ATOM      9  C   UNL     1       1.899   8.647  18.294  0.00  0.00    +0.000 A 
ATOM     10  C   UNL     1       1.558   8.783  19.639  0.00  0.00    +0.000 A 
ATOM     11 CL   UNL     1       0.961  10.288  20.221  0.00  0.00    +0.000 Cl
ATOM     12  C   UNL     1       1.692   7.708  20.520  0.00  0.00    +0.000 A 
ATOM     13  C   UNL     1       2.185   6.492  20.045  0.00  0.00    +0.000 A 
BRANCH  13  14
ATOM     14  O   UNL     1       2.298   5.428  20.899  0.00  0.00    +0.000 OA
ATOM     15  H   UNL     1       2.477   4.627  20.377  0.00  0.00    +0.000 HD
ENDBRANCH  13  14
ENDBRANCH   6   7
BRANCH   5  16
ATOM     16  C   UNL     1       5.479   5.483  18.411  0.00  0.00    +0.000 A 
ATOM     17  C   UNL     1       6.557   5.384  19.295  0.00  0.00    +0.000 A 
ATOM     18  C   UNL     1       7.701   6.143  19.064  0.00  0.00    +0.000 A 
ATOM     19  C   UNL     1       7.745   6.988  17.963  0.00  0.00    +0.000 A 
ATOM     20  C   UNL     1       6.634   7.044  17.136  0.00  0.00    +0.000 A 
ATOM     21  N   UNL     1       5.515   6.314  17.330  0.00  0.00    +0.000 NA
ENDBRANCH   5  16
TORSDOF 3
ENDMDL
MODEL 5
REMARK VINA RESULT:      -7.1      0.892      1.538
REMARK  Name = 
REMARK  3 active torsions:
REMARK  status: ('A' for Active; 'I' for Inactive)
REMARK    1  A    between atoms: C_5  and  C_6
REMARK    2  A    between atoms: N_12  and  C_13
REMARK    3  A    between atoms: C_19  and  O_20
REMARK                            x       y       z     vdW  Elec       q    Type
REMARK                         _______ _______ _______ _____ _____    ______ ____
ROOT
ATOM      1  O   UNL     1       4.864   1.998  20.171  0.00  0.00    +0.000 OA
ATOM      2  C   UNL     1       3.913   2.768  20.278  0.00  0.00    +0.000 C 
ATOM      3  C   UNL     1       2.798   2.524  21.270  0.00  0.00    +0.000 C 
ATOM      4  S   UNL     1       1.646   3.898  21.141  0.00  0.00    +0.000 S 
ATOM      5  C   UNL     1       2.357   4.456  19.558  0.00  0.00    +0.000 C 
ATOM      6  N   UNL     1       3.706   3.913  19.519  0.00  0.00    +0.000 N 
ENDROOT
BRANCH   6   7
ATOM      7  C   UNL     1       4.542   4.157  18.402  0.00  0.00    +0.000 A 
ATOM      8  C   UNL     1       5.748   4.836  18.616  0.00  0.00    +0.000 A 
ATOM      9  C   UNL     1       6.604   5.104  17.544  0.00  0.00    +0.000 A 
ATOM     10  C   UNL     1       6.267   4.665  16.265  0.00  0.00    +0.000 A 
ATOM     11 CL   UNL     1       7.332   4.972  14.949  0.00  0.00    +0.000 Cl
ATOM     12  C   UNL     1       5.076   3.973  16.039  0.00  0.00    +0.000 A 
ATOM     13  C   UNL     1       4.211   3.734  17.108  0.00  0.00    +0.000 A 
BRANCH  13  14
ATOM     14  O   UNL     1       3.051   3.037  16.897  0.00  0.00    +0.000 OA
ATOM     15  H   UNL     1       3.147   2.149  17.283  0.00  0.00    +0.000 HD
ENDBRANCH  13  14
ENDBRANCH   6   7
BRANCH   5  16
ATOM     16  C   UNL     1       2.253   5.970  19.424  0.00  0.00    +0.000 A 
ATOM     17  C   UNL     1       2.445   6.558  18.171  0.00  0.00    +0.000 A 
ATOM     18  C   UNL     1       2.255   7.928  18.022  0.00  0.00    +0.000 A 
ATOM     19  C   UNL     1       1.885   8.686  19.125  0.00  0.00    +0.000 A 
ATOM     20  C   UNL     1       1.724   8.039  20.340  0.00  0.00    +0.000 A 
ATOM     21  N   UNL     1       1.893   6.710  20.512  0.00  0.00    +0.000 NA
ENDBRANCH   5  16
TORSDOF 3
ENDMDL
MODEL 6
REMARK VINA RESULT:      -6.9      2.807      4.849
REMARK  Name = 
REMARK  3 active torsions:
REMARK  status: ('A' for Active; 'I' for Inactive)
REMARK    1  A    between atoms: C_5  and  C_6
REMARK    2  A    between atoms: N_12  and  C_13
REMARK    3  A    between atoms: C_19  and  O_20
REMARK                            x       y       z     vdW  Elec       q    Type
REMARK                         _______ _______ _______ _____ _____    ______ ____
ROOT
ATOM      1  O   UNL     1       0.649   3.722  19.332  0.00  0.00    +0.000 OA
ATOM      2  C   UNL     1       1.855   3.484  19.306  0.00  0.00    +0.000 C 
ATOM      3  C   UNL     1       2.398   2.096  19.555  0.00  0.00    +0.000 C 
ATOM      4  S   UNL     1       4.185   2.172  19.375  0.00  0.00    +0.000 S 
ATOM      5  C   UNL     1       4.200   3.993  19.461  0.00  0.00    +0.000 C 
ATOM      6  N   UNL     1       2.861   4.416  19.085  0.00  0.00    +0.000 N 
ENDROOT
BRANCH   6   7
ATOM      7  C   UNL     1       2.529   5.792  19.056  0.00  0.00    +0.000 A 
ATOM      8  C   UNL     1       2.564   6.455  17.822  0.00  0.00    +0.000 A 
ATOM      9  C   UNL     1       2.249   7.814  17.745  0.00  0.00    +0.000 A 
ATOM     10  C   UNL     1       1.868   8.501  18.896  0.00  0.00    +0.000 A 
ATOM     11 CL   UNL     1       1.455  10.169  18.797  0.00  0.00    +0.000 Cl
ATOM     12  C   UNL     1       1.813   7.851  20.130  0.00  0.00    +0.000 A 
ATOM     13  C   UNL     1       2.158   6.501  20.206  0.00  0.00    +0.000 A 
BRANCH  13  14
ATOM     14  O   UNL     1       2.085   5.851  21.410  0.00  0.00    +0.000 OA
ATOM     15  H   UNL     1       1.878   4.915  21.247  0.00  0.00    +0.000 HD
ENDBRANCH  13  14
ENDBRANCH   6   7
BRANCH   5  16
ATOM     16  C   UNL     1       5.333   4.562  18.615  0.00  0.00    +0.000 A 
ATOM     17  C   UNL     1       6.296   5.372  19.223  0.00  0.00    +0.000 A 
ATOM     18  C   UNL     1       7.385   5.815  18.478  0.00  0.00    +0.000 A 
ATOM     19  C   UNL     1       7.489   5.448  17.143  0.00  0.00    +0.000 A 
ATOM     20  C   UNL     1       6.491   4.652  16.603  0.00  0.00    +0.000 A 
ATOM     21  N   UNL     1       5.428   4.201  17.302  0.00  0.00    +0.000 NA
ENDBRANCH   5  16
TORSDOF 3
ENDMDL
MODEL 7
REMARK VINA RESULT:      -6.9      3.228      5.337
REMARK  Name = 
REMARK  3 active torsions:
REMARK  status: ('A' for Active; 'I' for Inactive)
REMARK    1  A    between atoms: C_5  and  C_6
REMARK    2  A    between atoms: N_12  and  C_13
REMARK    3  A    between atoms: C_19  and  O_20
REMARK                            x       y       z     vdW  Elec       q    Type
REMARK                         _______ _______ _______ _____ _____    ______ ____
ROOT
ATOM      1  O   UNL     1       6.254   7.410  17.438  0.00  0.00    +0.000 OA
ATOM      2  C   UNL     1       5.804   6.312  17.119  0.00  0.00    +0.000 C 
ATOM      3  C   UNL     1       6.591   5.347  16.263  0.00  0.00    +0.000 C 
ATOM      4  S   UNL     1       5.605   3.856  16.078  0.00  0.00    +0.000 S 
ATOM      5  C   UNL     1       4.093   4.682  16.675  0.00  0.00    +0.000 C 
ATOM      6  N   UNL     1       4.548   5.821  17.454  0.00  0.00    +0.000 N 
ENDROOT
BRANCH   6   7
ATOM      7  C   UNL     1       3.611   6.691  18.062  0.00  0.00    +0.000 A 
ATOM      8  C   UNL     1       3.122   7.767  17.309  0.00  0.00    +0.000 A 
ATOM      9  C   UNL     1       2.199   8.654  17.868  0.00  0.00    +0.000 A 
ATOM     10  C   UNL     1       1.742   8.448  19.168  0.00  0.00    +0.000 A 
ATOM     11 CL   UNL     1       0.586   9.526  19.848  0.00  0.00    +0.000 Cl
ATOM     12  C   UNL     1       2.208   7.371  19.925  0.00  0.00    +0.000 A 
ATOM     13  C   UNL     1       3.151   6.505  19.373  0.00  0.00    +0.000 A 
BRANCH  13  14
ATOM     14  O   UNL     1       3.596   5.434  20.102  0.00  0.00    +0.000 OA
ATOM     15  H   UNL     1       4.179   4.896  19.541  0.00  0.00    +0.000 HD
ENDBRANCH  13  14
ENDBRANCH   6   7
BRANCH   5  16
ATOM     16  C   UNL     1       3.197   3.695  17.413  0.00  0.00    +0.000 A 
ATOM     17  C   UNL     1       3.771   2.571  18.013  0.00  0.00    +0.000 A 
ATOM     18  C   UNL     1       2.974   1.718  18.771  0.00  0.00    +0.000 A 
ATOM     19  C   UNL     1       1.621   1.998  18.910  0.00  0.00    +0.000 A 
ATOM     20  C   UNL     1       1.117   3.124  18.277  0.00  0.00    +0.000 A 
ATOM     21  N   UNL     1       1.867   3.973  17.543  0.00  0.00    +0.000 NA
ENDBRANCH   5  16
TORSDOF 3
ENDMDL
MODEL 8
REMARK VINA RESULT:      -6.9      3.154      5.352
REMARK  Name = 
REMARK  3 active torsions:
REMARK  status: ('A' for Active; 'I' for Inactive)
REMARK    1  A    between atoms: C_5  and  C_6
REMARK    2  A    between atoms: N_12  and  C_13
REMARK    3  A    between atoms: C_19  and  O_20
REMARK                            x       y       z     vdW  Elec       q    Type
REMARK                         _______ _______ _______ _____ _____    ______ ____
ROOT
ATOM      1  O   UNL     1       5.849   7.601  17.455  0.00  0.00    +0.000 OA
ATOM      2  C   UNL     1       5.404   6.466  17.300  0.00  0.00    +0.000 C 
ATOM      3  C   UNL     1       6.170   5.408  16.540  0.00  0.00    +0.000 C 
ATOM      4  S   UNL     1       5.201   3.895  16.592  0.00  0.00    +0.000 S 
ATOM      5  C   UNL     1       3.703   4.773  17.145  0.00  0.00    +0.000 C 
ATOM      6  N   UNL     1       4.172   6.009  17.750  0.00  0.00    +0.000 N 
ENDROOT
BRANCH   6   7
ATOM      7  C   UNL     1       3.247   6.939  18.283  0.00  0.00    +0.000 A 
ATOM      8  C   UNL     1       2.793   7.971  17.450  0.00  0.00    +0.000 A 
ATOM      9  C   UNL     1       1.884   8.915  17.932  0.00  0.00    +0.000 A 
ATOM     10  C   UNL     1       1.405   8.810  19.237  0.00  0.00    +0.000 A 
ATOM     11 CL   UNL     1       0.265   9.958  19.823  0.00  0.00    +0.000 Cl
ATOM     12  C   UNL     1       1.835   7.778  20.073  0.00  0.00    +0.000 A 
ATOM     13  C   UNL     1       2.766   6.855  19.596  0.00  0.00    +0.000 A 
BRANCH  13  14
ATOM     14  O   UNL     1       3.175   5.828  20.404  0.00  0.00    +0.000 OA
ATOM     15  H   UNL     1       3.467   5.088  19.844  0.00  0.00    +0.000 HD
ENDBRANCH  13  14
ENDBRANCH   6   7
BRANCH   5  16
ATOM     16  C   UNL     1       2.855   3.880  18.043  0.00  0.00    +0.000 A 
ATOM     17  C   UNL     1       1.477   3.807  17.824  0.00  0.00    +0.000 A 
ATOM     18  C   UNL     1       0.712   2.921  18.576  0.00  0.00    +0.000 A 
ATOM     19  C   UNL     1       1.333   2.131  19.533  0.00  0.00    +0.000 A 
ATOM     20  C   UNL     1       2.702   2.264  19.704  0.00  0.00    +0.000 A 
ATOM     21  N   UNL     1       3.471   3.109  18.984  0.00  0.00    +0.000 NA
ENDBRANCH   5  16
TORSDOF 3
ENDMDL
MODEL 9
REMARK VINA RESULT:      -6.8      1.046      1.877
REMARK  Name = 
REMARK  3 active torsions:
REMARK  status: ('A' for Active; 'I' for Inactive)
REMARK    1  A    between atoms: C_5  and  C_6
REMARK    2  A    between atoms: N_12  and  C_13
REMARK    3  A    between atoms: C_19  and  O_20
REMARK                            x       y       z     vdW  Elec       q    Type
REMARK                         _______ _______ _______ _____ _____    ______ ____
ROOT
ATOM      1  O   UNL     1       4.983   1.938  20.345  0.00  0.00    +0.000 OA
ATOM      2  C   UNL     1       3.984   2.650  20.414  0.00  0.00    +0.000 C 
ATOM      3  C   UNL     1       2.866   2.360  21.390  0.00  0.00    +0.000 C 
ATOM      4  S   UNL     1       1.635   3.657  21.205  0.00  0.00    +0.000 S 
ATOM      5  C   UNL     1       2.343   4.220  19.622  0.00  0.00    +0.000 C 
ATOM      6  N   UNL     1       3.722   3.761  19.623  0.00  0.00    +0.000 N 
ENDROOT
BRANCH   6   7
ATOM      7  C   UNL     1       4.565   4.030  18.517  0.00  0.00    +0.000 A 
ATOM      8  C   UNL     1       5.716   4.798  18.734  0.00  0.00    +0.000 A 
ATOM      9  C   UNL     1       6.575   5.094  17.673  0.00  0.00    +0.000 A 
ATOM     10  C   UNL     1       6.299   4.594  16.401  0.00  0.00    +0.000 A 
ATOM     11 CL   UNL     1       7.370   4.937  15.099  0.00  0.00    +0.000 Cl
ATOM     12  C   UNL     1       5.164   3.814  16.172  0.00  0.00    +0.000 A 
ATOM     13  C   UNL     1       4.294   3.547  17.230  0.00  0.00    +0.000 A 
BRANCH  13  14
ATOM     14  O   UNL     1       3.191   2.764  17.017  0.00  0.00    +0.000 OA
ATOM     15  H   UNL     1       3.070   2.180  17.785  0.00  0.00    +0.000 HD
ENDBRANCH  13  14
ENDBRANCH   6   7
BRANCH   5  16
ATOM     16  C   UNL     1       2.148   5.721  19.449  0.00  0.00    +0.000 A 
ATOM     17  C   UNL     1       1.797   6.495  20.559  0.00  0.00    +0.000 A 
ATOM     18  C   UNL     1       1.712   7.877  20.428  0.00  0.00    +0.000 A 
ATOM     19  C   UNL     1       1.972   8.460  19.195  0.00  0.00    +0.000 A 
ATOM     20  C   UNL     1       2.303   7.631  18.135  0.00  0.00    +0.000 A 
ATOM     21  N   UNL     1       2.400   6.288  18.234  0.00  0.00    +0.000 NA
ENDBRANCH   5  16
TORSDOF 3
ENDMDL
