MODEL 1
REMARK VINA RESULT:      -7.4      0.000      0.000
REMARK  Name = 
REMARK  5 active torsions:
REMARK  status: ('A' for Active; 'I' for Inactive)
REMARK    1  A    between atoms: C_1  and  C_2
REMARK    2  A    between atoms: C_2  and  C_3
REMARK    3  A    between atoms: C_2  and  C_4
REMARK    4  A    between atoms: C_2  and  N_5
REMARK    5  A    between atoms: C_20  and  C_22
REMARK                            x       y       z     vdW  Elec       q    Type
REMARK                         _______ _______ _______ _____ _____    ______ ____
ROOT
ATOM      1  N   UNL     1      -0.823  12.267  21.370  0.00  0.00    +0.000 N 
ATOM      2  C   UNL     1      -1.115  11.541  20.212  0.00  0.00    +0.000 C 
ATOM      3  N   UNL     1      -1.814  12.098  19.259  0.00  0.00    +0.000 NA
ATOM      4  C   UNL     1      -2.083  11.346  18.105  0.00  0.00    +0.000 A 
ATOM      5  C   UNL     1      -2.514  12.020  16.958  0.00  0.00    +0.000 A 
ATOM      6  C   UNL     1      -2.800  11.316  15.789  0.00  0.00    +0.000 A 
ATOM      7  C   UNL     1      -2.690   9.926  15.772  0.00  0.00    +0.000 A 
ATOM      8  C   UNL     1      -2.270   9.243  16.914  0.00  0.00    +0.000 A 
ATOM      9  C   UNL     1      -1.910   9.948  18.065  0.00  0.00    +0.000 A 
ATOM     10  N   UNL     1      -1.453   9.242  19.208  0.00  0.00    +0.000 N 
ATOM     11  C   UNL     1      -0.527  10.076  20.030  0.00  0.00    +0.000 C 
ATOM     12  C   UNL     1      -0.378   9.330  21.389  0.00  0.00    +0.000 C 
ATOM     13  C   UNL     1       0.502   8.078  21.315  0.00  0.00    +0.000 C 
ATOM     14  C   UNL     1       1.842   8.410  20.663  0.00  0.00    +0.000 C 
ATOM     15  N   UNL     1       1.596   8.931  19.326  0.00  0.00    +0.000 N 
ATOM     16  C   UNL     1       2.106   8.422  18.125  0.00  0.00    +0.000 C 
ATOM     17  O   UNL     1       1.990   9.011  17.055  0.00  0.00    +0.000 OA
ATOM     18  C   UNL     1       0.854  10.197  19.309  0.00  0.00    +0.000 C 
ATOM     19  H   UNL     1      -0.301  11.785  22.088  0.00  0.00    +0.000 HD
ATOM     20  H   UNL     1      -1.013   8.373  18.915  0.00  0.00    +0.000 HD
ENDROOT
BRANCH  16  21
ATOM     21  C   UNL     1       2.833   7.128  18.096  0.00  0.00    +0.000 A 
ATOM     22  C   UNL     1       4.183   7.142  17.702  0.00  0.00    +0.000 A 
ATOM     23  C   UNL     1       4.968   5.984  17.735  0.00  0.00    +0.000 A 
ATOM     24  C   UNL     1       4.305   4.810  18.096  0.00  0.00    +0.000 A 
ATOM     25  N   UNL     1       4.730   3.523  18.304  0.00  0.00    +0.000 N 
ATOM     26  C   UNL     1       3.622   2.723  18.258  0.00  0.00    +0.000 A 
ATOM     27  N   UNL     1       2.524   3.429  18.400  0.00  0.00    +0.000 NA
ATOM     28  C   UNL     1       2.933   4.737  18.307  0.00  0.00    +0.000 A 
ATOM     29  C   UNL     1       2.181   5.916  18.357  0.00  0.00    +0.000 A 
ATOM     30  H   UNL     1       5.681   3.215  18.447  0.00  0.00    +0.000 HD
ENDBRANCH  16  21
BRANCH   1  32
ATOM     31  C   UNL     1      -3.111  12.771  22.100  0.00  0.00    +0.000 C 
ATOM     32  C   UNL     1      -1.690  13.317  21.935  0.00  0.00    +0.000 C 
ATOM     33  C   UNL     1      -1.678  14.603  21.092  0.00  0.00    +0.000 C 
ATOM     34  C   UNL     1      -1.138  13.667  23.333  0.00  0.00    +0.000 C 
ENDBRANCH   1  32
TORSDOF 2
ENDMDL
MODEL 2
REMARK VINA RESULT:      -7.2      2.583      4.876
REMARK  Name = 
REMARK  5 active torsions:
REMARK  status: ('A' for Active; 'I' for Inactive)
REMARK    1  A    between atoms: C_1  and  C_2
REMARK    2  A    between atoms: C_2  and  C_3
REMARK    3  A    between atoms: C_2  and  C_4
REMARK    4  A    between atoms: C_2  and  N_5
REMARK    5  A    between atoms: C_20  and  C_22
REMARK                            x       y       z     vdW  Elec       q    Type
REMARK                         _______ _______ _______ _____ _____    ______ ____
ROOT
ATOM      1  N   UNL     1      -0.521  16.239  18.764  0.00  0.00    +0.000 N 
ATOM      2  C   UNL     1      -0.835  15.309  19.760  0.00  0.00    +0.000 C 
ATOM      3  N   UNL     1      -1.929  15.455  20.458  0.00  0.00    +0.000 NA
ATOM      4  C   UNL     1      -2.222  14.501  21.444  0.00  0.00    +0.000 A 
ATOM      5  C   UNL     1      -3.524  14.442  21.948  0.00  0.00    +0.000 A 
ATOM      6  C   UNL     1      -3.861  13.515  22.934  0.00  0.00    +0.000 A 
ATOM      7  C   UNL     1      -2.885  12.663  23.447  0.00  0.00    +0.000 A 
ATOM      8  C   UNL     1      -1.579  12.719  22.958  0.00  0.00    +0.000 A 
ATOM      9  C   UNL     1      -1.252  13.593  21.919  0.00  0.00    +0.000 A 
ATOM     10  N   UNL     1       0.071  13.617  21.408  0.00  0.00    +0.000 N 
ATOM     11  C   UNL     1       0.098  14.042  19.977  0.00  0.00    +0.000 C 
ATOM     12  C   UNL     1       1.591  14.348  19.653  0.00  0.00    +0.000 C 
ATOM     13  C   UNL     1       2.461  13.097  19.501  0.00  0.00    +0.000 C 
ATOM     14  C   UNL     1       1.820  12.124  18.514  0.00  0.00    +0.000 C 
ATOM     15  N   UNL     1       0.499  11.760  19.005  0.00  0.00    +0.000 N 
ATOM     16  C   UNL     1       0.033  10.466  19.268  0.00  0.00    +0.000 C 
ATOM     17  O   UNL     1      -1.143  10.225  19.522  0.00  0.00    +0.000 OA
ATOM     18  C   UNL     1      -0.440  12.886  19.074  0.00  0.00    +0.000 C 
ATOM     19  H   UNL     1       0.347  16.096  18.268  0.00  0.00    +0.000 HD
ATOM     20  H   UNL     1       0.499  12.702  21.535  0.00  0.00    +0.000 HD
ENDROOT
BRANCH  16  21
ATOM     21  C   UNL     1       0.959   9.305  19.241  0.00  0.00    +0.000 A 
ATOM     22  C   UNL     1       1.181   8.613  20.444  0.00  0.00    +0.000 A 
ATOM     23  C   UNL     1       1.964   7.454  20.490  0.00  0.00    +0.000 A 
ATOM     24  C   UNL     1       2.576   7.087  19.290  0.00  0.00    +0.000 A 
ATOM     25  N   UNL     1       3.342   6.010  18.923  0.00  0.00    +0.000 N 
ATOM     26  C   UNL     1       3.983   6.350  17.765  0.00  0.00    +0.000 A 
ATOM     27  N   UNL     1       3.412   7.388  17.197  0.00  0.00    +0.000 NA
ATOM     28  C   UNL     1       2.525   7.858  18.135  0.00  0.00    +0.000 A 
ATOM     29  C   UNL     1       1.668   8.962  18.082  0.00  0.00    +0.000 A 
ATOM     30  H   UNL     1       3.433   5.135  19.420  0.00  0.00    +0.000 HD
ENDBRANCH  16  21
BRANCH   1  32
ATOM     31  C   UNL     1      -0.124  18.367  19.920  0.00  0.00    +0.000 C 
ATOM     32  C   UNL     1      -0.901  17.663  18.804  0.00  0.00    +0.000 C 
ATOM     33  C   UNL     1      -2.418  17.859  18.968  0.00  0.00    +0.000 C 
ATOM     34  C   UNL     1      -0.490  18.288  17.454  0.00  0.00    +0.000 C 
ENDBRANCH   1  32
TORSDOF 2
ENDMDL
MODEL 3
REMARK VINA RESULT:      -7.2      4.249      8.687
REMARK  Name = 
REMARK  5 active torsions:
REMARK  status: ('A' for Active; 'I' for Inactive)
REMARK    1  A    between atoms: C_1  and  C_2
REMARK    2  A    between atoms: C_2  and  C_3
REMARK    3  A    between atoms: C_2  and  C_4
REMARK    4  A    between atoms: C_2  and  N_5
REMARK    5  A    between atoms: C_20  and  C_22
REMARK                            x       y       z     vdW  Elec       q    Type
REMARK                         _______ _______ _______ _____ _____    ______ ____
ROOT
ATOM      1  N   UNL     1       2.200  15.399  19.654  0.00  0.00    +0.000 N 
ATOM      2  C   UNL     1       1.454  14.250  19.374  0.00  0.00    +0.000 C 
ATOM      3  N   UNL     1       2.037  13.220  18.823  0.00  0.00    +0.000 NA
ATOM      4  C   UNL     1       1.264  12.078  18.562  0.00  0.00    +0.000 A 
ATOM      5  C   UNL     1       1.923  10.872  18.306  0.00  0.00    +0.000 A 
ATOM      6  C   UNL     1       1.197   9.713  18.035  0.00  0.00    +0.000 A 
ATOM      7  C   UNL     1      -0.195   9.761  17.985  0.00  0.00    +0.000 A 
ATOM      8  C   UNL     1      -0.863  10.962  18.231  0.00  0.00    +0.000 A 
ATOM      9  C   UNL     1      -0.146  12.109  18.576  0.00  0.00    +0.000 A 
ATOM     10  N   UNL     1      -0.840  13.316  18.855  0.00  0.00    +0.000 N 
ATOM     11  C   UNL     1      -0.075  14.179  19.802  0.00  0.00    +0.000 C 
ATOM     12  C   UNL     1      -0.764  15.575  19.754  0.00  0.00    +0.000 C 
ATOM     13  C   UNL     1      -2.108  15.628  20.486  0.00  0.00    +0.000 C 
ATOM     14  C   UNL     1      -1.961  15.080  21.904  0.00  0.00    +0.000 C 
ATOM     15  N   UNL     1      -1.483  13.707  21.828  0.00  0.00    +0.000 N 
ATOM     16  C   UNL     1      -2.105  12.575  22.371  0.00  0.00    +0.000 C 
ATOM     17  O   UNL     1      -1.561  11.476  22.409  0.00  0.00    +0.000 OA
ATOM     18  C   UNL     1      -0.144  13.575  21.241  0.00  0.00    +0.000 C 
ATOM     19  H   UNL     1       1.699  16.177  20.057  0.00  0.00    +0.000 HD
ATOM     20  H   UNL     1      -1.766  13.097  19.213  0.00  0.00    +0.000 HD
ENDROOT
BRANCH  16  21
ATOM     21  C   UNL     1      -3.472  12.661  22.944  0.00  0.00    +0.000 A 
ATOM     22  C   UNL     1      -3.640  12.319  24.297  0.00  0.00    +0.000 A 
ATOM     23  C   UNL     1      -4.874  12.460  24.941  0.00  0.00    +0.000 A 
ATOM     24  C   UNL     1      -5.936  12.873  24.136  0.00  0.00    +0.000 A 
ATOM     25  N   UNL     1      -7.246  13.183  24.402  0.00  0.00    +0.000 N 
ATOM     26  C   UNL     1      -7.916  13.147  23.212  0.00  0.00    +0.000 A 
ATOM     27  N   UNL     1      -7.081  13.199  22.199  0.00  0.00    +0.000 NA
ATOM     28  C   UNL     1      -5.838  13.035  22.759  0.00  0.00    +0.000 A 
ATOM     29  C   UNL     1      -4.581  12.977  22.148  0.00  0.00    +0.000 A 
ATOM     30  H   UNL     1      -7.648  13.382  25.307  0.00  0.00    +0.000 HD
ENDBRANCH  16  21
BRANCH   1  32
ATOM     31  C   UNL     1       2.894  16.433  17.539  0.00  0.00    +0.000 C 
ATOM     32  C   UNL     1       3.367  15.845  18.872  0.00  0.00    +0.000 C 
ATOM     33  C   UNL     1       4.391  14.719  18.654  0.00  0.00    +0.000 C 
ATOM     34  C   UNL     1       4.062  16.963  19.677  0.00  0.00    +0.000 C 
ENDBRANCH   1  32
TORSDOF 2
ENDMDL
MODEL 4
REMARK VINA RESULT:      -7.1      0.641      1.322
REMARK  Name = 
REMARK  5 active torsions:
REMARK  status: ('A' for Active; 'I' for Inactive)
REMARK    1  A    between atoms: C_1  and  C_2
REMARK    2  A    between atoms: C_2  and  C_3
REMARK    3  A    between atoms: C_2  and  C_4
REMARK    4  A    between atoms: C_2  and  N_5
REMARK    5  A    between atoms: C_20  and  C_22
REMARK                            x       y       z     vdW  Elec       q    Type
REMARK                         _______ _______ _______ _____ _____    ______ ____
ROOT
ATOM      1  N   UNL     1      -0.895  12.260  21.420  0.00  0.00    +0.000 N 
ATOM      2  C   UNL     1      -1.175  11.542  20.253  0.00  0.00    +0.000 C 
ATOM      3  N   UNL     1      -1.889  12.095  19.310  0.00  0.00    +0.000 NA
ATOM      4  C   UNL     1      -2.146  11.353  18.147  0.00  0.00    +0.000 A 
ATOM      5  C   UNL     1      -2.596  12.032  17.011  0.00  0.00    +0.000 A 
ATOM      6  C   UNL     1      -2.870  11.336  15.834  0.00  0.00    +0.000 A 
ATOM      7  C   UNL     1      -2.729   9.950  15.798  0.00  0.00    +0.000 A 
ATOM      8  C   UNL     1      -2.290   9.262  16.930  0.00  0.00    +0.000 A 
ATOM      9  C   UNL     1      -1.942   9.959  18.088  0.00  0.00    +0.000 A 
ATOM     10  N   UNL     1      -1.465   9.250  19.221  0.00  0.00    +0.000 N 
ATOM     11  C   UNL     1      -0.555  10.093  20.051  0.00  0.00    +0.000 C 
ATOM     12  C   UNL     1      -0.384   9.333  21.399  0.00  0.00    +0.000 C 
ATOM     13  C   UNL     1       0.522   8.102  21.306  0.00  0.00    +0.000 C 
ATOM     14  C   UNL     1       1.852   8.473  20.654  0.00  0.00    +0.000 C 
ATOM     15  N   UNL     1       1.590   9.006  19.325  0.00  0.00    +0.000 N 
ATOM     16  C   UNL     1       2.107   8.524  18.116  0.00  0.00    +0.000 C 
ATOM     17  O   UNL     1       1.974   9.124  17.054  0.00  0.00    +0.000 OA
ATOM     18  C   UNL     1       0.821  10.255  19.327  0.00  0.00    +0.000 C 
ATOM     19  H   UNL     1      -0.360  11.780  22.130  0.00  0.00    +0.000 HD
ATOM     20  H   UNL     1      -1.007   8.394  18.915  0.00  0.00    +0.000 HD
ENDROOT
BRANCH  16  21
ATOM     21  C   UNL     1       2.863   7.247  18.068  0.00  0.00    +0.000 A 
ATOM     22  C   UNL     1       2.173   6.062  18.382  0.00  0.00    +0.000 A 
ATOM     23  C   UNL     1       2.783   4.808  18.272  0.00  0.00    +0.000 A 
ATOM     24  C   UNL     1       4.134   4.817  17.921  0.00  0.00    +0.000 A 
ATOM     25  N   UNL     1       5.037   3.820  17.655  0.00  0.00    +0.000 N 
ATOM     26  C   UNL     1       6.284   4.373  17.747  0.00  0.00    +0.000 A 
ATOM     27  N   UNL     1       6.223   5.684  17.689  0.00  0.00    +0.000 NA
ATOM     28  C   UNL     1       4.885   5.979  17.791  0.00  0.00    +0.000 A 
ATOM     29  C   UNL     1       4.241   7.221  17.816  0.00  0.00    +0.000 A 
ATOM     30  H   UNL     1       4.828   2.854  17.448  0.00  0.00    +0.000 HD
ENDBRANCH  16  21
BRANCH   1  32
ATOM     31  C   UNL     1      -3.169  12.677  22.244  0.00  0.00    +0.000 C 
ATOM     32  C   UNL     1      -1.783  13.283  22.002  0.00  0.00    +0.000 C 
ATOM     33  C   UNL     1      -1.869  14.547  21.131  0.00  0.00    +0.000 C 
ATOM     34  C   UNL     1      -1.185  13.690  23.365  0.00  0.00    +0.000 C 
ENDBRANCH   1  32
TORSDOF 2
ENDMDL
MODEL 5
REMARK VINA RESULT:      -7.0      2.225      8.750
REMARK  Name = 
REMARK  5 active torsions:
REMARK  status: ('A' for Active; 'I' for Inactive)
REMARK    1  A    between atoms: C_1  and  C_2
REMARK    2  A    between atoms: C_2  and  C_3
REMARK    3  A    between atoms: C_2  and  C_4
REMARK    4  A    between atoms: C_2  and  N_5
REMARK    5  A    between atoms: C_20  and  C_22
REMARK                            x       y       z     vdW  Elec       q    Type
REMARK                         _______ _______ _______ _____ _____    ______ ____
ROOT
ATOM      1  N   UNL     1       5.292   5.922  17.508  0.00  0.00    +0.000 N 
ATOM      2  C   UNL     1       4.200   5.475  18.258  0.00  0.00    +0.000 C 
ATOM      3  N   UNL     1       4.270   4.331  18.884  0.00  0.00    +0.000 NA
ATOM      4  C   UNL     1       3.162   3.913  19.636  0.00  0.00    +0.000 A 
ATOM      5  C   UNL     1       3.340   2.891  20.572  0.00  0.00    +0.000 A 
ATOM      6  C   UNL     1       2.266   2.439  21.339  0.00  0.00    +0.000 A 
ATOM      7  C   UNL     1       0.999   2.984  21.147  0.00  0.00    +0.000 A 
ATOM      8  C   UNL     1       0.808   4.000  20.209  0.00  0.00    +0.000 A 
ATOM      9  C   UNL     1       1.892   4.509  19.491  0.00  0.00    +0.000 A 
ATOM     10  N   UNL     1       1.690   5.564  18.564  0.00  0.00    +0.000 N 
ATOM     11  C   UNL     1       2.916   6.400  18.411  0.00  0.00    +0.000 C 
ATOM     12  C   UNL     1       2.675   7.281  17.149  0.00  0.00    +0.000 C 
ATOM     13  C   UNL     1       1.686   8.429  17.376  0.00  0.00    +0.000 C 
ATOM     14  C   UNL     1       2.088   9.239  18.606  0.00  0.00    +0.000 C 
ATOM     15  N   UNL     1       2.107   8.356  19.763  0.00  0.00    +0.000 N 
ATOM     16  C   UNL     1       1.379   8.518  20.949  0.00  0.00    +0.000 C 
ATOM     17  O   UNL     1       1.572   7.824  21.943  0.00  0.00    +0.000 OA
ATOM     18  C   UNL     1       3.111   7.289  19.680  0.00  0.00    +0.000 C 
ATOM     19  H   UNL     1       5.179   6.800  17.023  0.00  0.00    +0.000 HD
ATOM     20  H   UNL     1       0.891   6.122  18.857  0.00  0.00    +0.000 HD
ENDROOT
BRANCH  16  21
ATOM     21  C   UNL     1       0.332   9.564  21.061  0.00  0.00    +0.000 A 
ATOM     22  C   UNL     1      -0.067   9.960  22.350  0.00  0.00    +0.000 A 
ATOM     23  C   UNL     1      -0.979  11.002  22.547  0.00  0.00    +0.000 A 
ATOM     24  C   UNL     1      -1.529  11.556  21.390  0.00  0.00    +0.000 A 
ATOM     25  N   UNL     1      -2.381  12.608  21.171  0.00  0.00    +0.000 N 
ATOM     26  C   UNL     1      -2.882  12.463  19.907  0.00  0.00    +0.000 A 
ATOM     27  N   UNL     1      -2.150  11.629  19.204  0.00  0.00    +0.000 NA
ATOM     28  C   UNL     1      -1.295  11.057  20.114  0.00  0.00    +0.000 A 
ATOM     29  C   UNL     1      -0.315  10.077  19.928  0.00  0.00    +0.000 A 
ATOM     30  H   UNL     1      -2.613  13.345  21.823  0.00  0.00    +0.000 HD
ENDBRANCH  16  21
BRANCH   1  32
ATOM     31  C   UNL     1       5.498   3.835  16.232  0.00  0.00    +0.000 C 
ATOM     32  C   UNL     1       6.247   5.035  16.819  0.00  0.00    +0.000 C 
ATOM     33  C   UNL     1       7.394   4.584  17.739  0.00  0.00    +0.000 C 
ATOM     34  C   UNL     1       6.866   5.839  15.656  0.00  0.00    +0.000 C 
ENDBRANCH   1  32
TORSDOF 2
ENDMDL
MODEL 6
REMARK VINA RESULT:      -7.0      1.346      1.794
REMARK  Name = 
REMARK  5 active torsions:
REMARK  status: ('A' for Active; 'I' for Inactive)
REMARK    1  A    between atoms: C_1  and  C_2
REMARK    2  A    between atoms: C_2  and  C_3
REMARK    3  A    between atoms: C_2  and  C_4
REMARK    4  A    between atoms: C_2  and  N_5
REMARK    5  A    between atoms: C_20  and  C_22
REMARK                            x       y       z     vdW  Elec       q    Type
REMARK                         _______ _______ _______ _____ _____    ______ ____
ROOT
ATOM      1  N   UNL     1       0.083  13.283  20.827  0.00  0.00    +0.000 N 
ATOM      2  C   UNL     1      -0.467  12.311  19.986  0.00  0.00    +0.000 C 
ATOM      3  N   UNL     1      -1.111  12.676  18.911  0.00  0.00    +0.000 NA
ATOM      4  C   UNL     1      -1.645  11.677  18.082  0.00  0.00    +0.000 A 
ATOM      5  C   UNL     1      -2.022  12.022  16.782  0.00  0.00    +0.000 A 
ATOM      6  C   UNL     1      -2.562  11.065  15.924  0.00  0.00    +0.000 A 
ATOM      7  C   UNL     1      -2.761   9.762  16.376  0.00  0.00    +0.000 A 
ATOM      8  C   UNL     1      -2.396   9.408  17.676  0.00  0.00    +0.000 A 
ATOM      9  C   UNL     1      -1.786  10.342  18.515  0.00  0.00    +0.000 A 
ATOM     10  N   UNL     1      -1.390   9.960  19.823  0.00  0.00    +0.000 N 
ATOM     11  C   UNL     1      -0.232  10.771  20.303  0.00  0.00    +0.000 C 
ATOM     12  C   UNL     1      -0.124  10.495  21.832  0.00  0.00    +0.000 C 
ATOM     13  C   UNL     1       0.449   9.117  22.173  0.00  0.00    +0.000 C 
ATOM     14  C   UNL     1       1.763   8.891  21.429  0.00  0.00    +0.000 C 
ATOM     15  N   UNL     1       1.515   8.992  19.998  0.00  0.00    +0.000 N 
ATOM     16  C   UNL     1       1.787   8.014  19.033  0.00  0.00    +0.000 C 
ATOM     17  O   UNL     1       1.704   8.232  17.829  0.00  0.00    +0.000 OA
ATOM     18  C   UNL     1       1.069  10.321  19.564  0.00  0.00    +0.000 C 
ATOM     19  H   UNL     1       0.551  12.952  21.658  0.00  0.00    +0.000 HD
ATOM     20  H   UNL     1      -1.180   8.965  19.836  0.00  0.00    +0.000 HD
ENDROOT
BRANCH  16  21
ATOM     21  C   UNL     1       2.208   6.647  19.434  0.00  0.00    +0.000 A 
ATOM     22  C   UNL     1       1.490   6.014  20.463  0.00  0.00    +0.000 A 
ATOM     23  C   UNL     1       1.759   4.693  20.839  0.00  0.00    +0.000 A 
ATOM     24  C   UNL     1       2.837   4.085  20.193  0.00  0.00    +0.000 A 
ATOM     25  N   UNL     1       3.356   2.816  20.236  0.00  0.00    +0.000 N 
ATOM     26  C   UNL     1       4.617   2.882  19.711  0.00  0.00    +0.000 A 
ATOM     27  N   UNL     1       4.785   3.990  19.025  0.00  0.00    +0.000 NA
ATOM     28  C   UNL     1       3.678   4.751  19.311  0.00  0.00    +0.000 A 
ATOM     29  C   UNL     1       3.342   6.039  18.879  0.00  0.00    +0.000 A 
ATOM     30  H   UNL     1       2.905   1.990  20.600  0.00  0.00    +0.000 HD
ENDBRANCH  16  21
BRANCH   1  32
ATOM     31  C   UNL     1      -1.978  14.529  21.298  0.00  0.00    +0.000 C 
ATOM     32  C   UNL     1      -0.476  14.634  21.016  0.00  0.00    +0.000 C 
ATOM     33  C   UNL     1      -0.195  15.557  19.818  0.00  0.00    +0.000 C 
ATOM     34  C   UNL     1       0.210  15.248  22.254  0.00  0.00    +0.000 C 
ENDBRANCH   1  32
TORSDOF 2
ENDMDL
MODEL 7
REMARK VINA RESULT:      -7.0      1.362      1.475
REMARK  Name = 
REMARK  5 active torsions:
REMARK  status: ('A' for Active; 'I' for Inactive)
REMARK    1  A    between atoms: C_1  and  C_2
REMARK    2  A    between atoms: C_2  and  C_3
REMARK    3  A    between atoms: C_2  and  C_4
REMARK    4  A    between atoms: C_2  and  N_5
REMARK    5  A    between atoms: C_20  and  C_22
REMARK                            x       y       z     vdW  Elec       q    Type
REMARK                         _______ _______ _______ _____ _____    ______ ____
ROOT
ATOM      1  N   UNL     1      -0.280  13.139  20.983  0.00  0.00    +0.000 N 
ATOM      2  C   UNL     1      -0.740  12.195  20.060  0.00  0.00    +0.000 C 
ATOM      3  N   UNL     1      -1.365  12.594  18.985  0.00  0.00    +0.000 NA
ATOM      4  C   UNL     1      -1.807  11.624  18.072  0.00  0.00    +0.000 A 
ATOM      5  C   UNL     1      -2.156  12.033  16.782  0.00  0.00    +0.000 A 
ATOM      6  C   UNL     1      -2.606  11.106  15.843  0.00  0.00    +0.000 A 
ATOM      7  C   UNL     1      -2.744   9.766  16.202  0.00  0.00    +0.000 A 
ATOM      8  C   UNL     1      -2.407   9.348  17.491  0.00  0.00    +0.000 A 
ATOM      9  C   UNL     1      -1.885  10.257  18.413  0.00  0.00    +0.000 A 
ATOM     10  N   UNL     1      -1.516   9.812  19.709  0.00  0.00    +0.000 N 
ATOM     11  C   UNL     1      -0.426  10.654  20.286  0.00  0.00    +0.000 C 
ATOM     12  C   UNL     1      -0.360  10.283  21.797  0.00  0.00    +0.000 C 
ATOM     13  C   UNL     1       0.282   8.920  22.073  0.00  0.00    +0.000 C 
ATOM     14  C   UNL     1       1.633   8.819  21.370  0.00  0.00    +0.000 C 
ATOM     15  N   UNL     1       1.432   9.000  19.939  0.00  0.00    +0.000 N 
ATOM     16  C   UNL     1       1.798   8.106  18.925  0.00  0.00    +0.000 C 
ATOM     17  O   UNL     1       1.747   8.399  17.735  0.00  0.00    +0.000 OA
ATOM     18  C   UNL     1       0.926  10.328  19.574  0.00  0.00    +0.000 C 
ATOM     19  H   UNL     1       0.175  12.780  21.809  0.00  0.00    +0.000 HD
ATOM     20  H   UNL     1      -1.248   8.832  19.665  0.00  0.00    +0.000 HD
ENDROOT
BRANCH  16  21
ATOM     21  C   UNL     1       2.284   6.742  19.254  0.00  0.00    +0.000 A 
ATOM     22  C   UNL     1       3.281   6.184  18.433  0.00  0.00    +0.000 A 
ATOM     23  C   UNL     1       3.861   4.944  18.725  0.00  0.00    +0.000 A 
ATOM     24  C   UNL     1       3.326   4.265  19.821  0.00  0.00    +0.000 A 
ATOM     25  N   UNL     1       3.660   3.091  20.447  0.00  0.00    +0.000 N 
ATOM     26  C   UNL     1       2.584   2.721  21.205  0.00  0.00    +0.000 A 
ATOM     27  N   UNL     1       1.765   3.732  21.386  0.00  0.00    +0.000 NA
ATOM     28  C   UNL     1       2.217   4.709  20.532  0.00  0.00    +0.000 A 
ATOM     29  C   UNL     1       1.708   5.988  20.285  0.00  0.00    +0.000 A 
ATOM     30  H   UNL     1       4.528   2.583  20.355  0.00  0.00    +0.000 HD
ENDBRANCH  16  21
BRANCH   1  32
ATOM     31  C   UNL     1      -2.409  14.222  21.546  0.00  0.00    +0.000 C 
ATOM     32  C   UNL     1      -0.925  14.440  21.235  0.00  0.00    +0.000 C 
ATOM     33  C   UNL     1      -0.737  15.423  20.067  0.00  0.00    +0.000 C 
ATOM     34  C   UNL     1      -0.253  15.055  22.480  0.00  0.00    +0.000 C 
ENDBRANCH   1  32
TORSDOF 2
ENDMDL
MODEL 8
REMARK VINA RESULT:      -6.9      2.248      4.347
REMARK  Name = 
REMARK  5 active torsions:
REMARK  status: ('A' for Active; 'I' for Inactive)
REMARK    1  A    between atoms: C_1  and  C_2
REMARK    2  A    between atoms: C_2  and  C_3
REMARK    3  A    between atoms: C_2  and  C_4
REMARK    4  A    between atoms: C_2  and  N_5
REMARK    5  A    between atoms: C_20  and  C_22
REMARK                            x       y       z     vdW  Elec       q    Type
REMARK                         _______ _______ _______ _____ _____    ______ ____
ROOT
ATOM      1  N   UNL     1      -4.458  12.959  20.703  0.00  0.00    +0.000 N 
ATOM      2  C   UNL     1      -3.147  13.375  20.448  0.00  0.00    +0.000 C 
ATOM      3  N   UNL     1      -2.715  14.496  20.959  0.00  0.00    +0.000 NA
ATOM      4  C   UNL     1      -1.393  14.884  20.693  0.00  0.00    +0.000 A 
ATOM      5  C   UNL     1      -0.814  15.872  21.494  0.00  0.00    +0.000 A 
ATOM      6  C   UNL     1       0.494  16.295  21.264  0.00  0.00    +0.000 A 
ATOM      7  C   UNL     1       1.221  15.753  20.205  0.00  0.00    +0.000 A 
ATOM      8  C   UNL     1       0.650  14.772  19.392  0.00  0.00    +0.000 A 
ATOM      9  C   UNL     1      -0.632  14.292  19.663  0.00  0.00    +0.000 A 
ATOM     10  N   UNL     1      -1.188  13.271  18.850  0.00  0.00    +0.000 N 
ATOM     11  C   UNL     1      -2.173  12.443  19.607  0.00  0.00    +0.000 C 
ATOM     12  C   UNL     1      -2.937  11.608  18.537  0.00  0.00    +0.000 C 
ATOM     13  C   UNL     1      -2.119  10.451  17.955  0.00  0.00    +0.000 C 
ATOM     14  C   UNL     1      -1.535   9.598  19.078  0.00  0.00    +0.000 C 
ATOM     15  N   UNL     1      -0.692  10.438  19.915  0.00  0.00    +0.000 N 
ATOM     16  C   UNL     1       0.662  10.232  20.210  0.00  0.00    +0.000 C 
ATOM     17  O   UNL     1       1.263  10.889  21.054  0.00  0.00    +0.000 OA
ATOM     18  C   UNL     1      -1.419  11.509  20.606  0.00  0.00    +0.000 C 
ATOM     19  H   UNL     1      -4.752  12.098  20.265  0.00  0.00    +0.000 HD
ATOM     20  H   UNL     1      -0.439  12.701  18.464  0.00  0.00    +0.000 HD
ENDROOT
BRANCH  16  21
ATOM     21  C   UNL     1       1.440   9.180  19.508  0.00  0.00    +0.000 A 
ATOM     22  C   UNL     1       1.775   9.400  18.159  0.00  0.00    +0.000 A 
ATOM     23  C   UNL     1       2.584   8.506  17.450  0.00  0.00    +0.000 A 
ATOM     24  C   UNL     1       2.957   7.349  18.135  0.00  0.00    +0.000 A 
ATOM     25  N   UNL     1       3.777   6.296  17.815  0.00  0.00    +0.000 N 
ATOM     26  C   UNL     1       3.479   5.279  18.679  0.00  0.00    +0.000 A 
ATOM     27  N   UNL     1       2.814   5.725  19.721  0.00  0.00    +0.000 NA
ATOM     28  C   UNL     1       2.485   7.020  19.400  0.00  0.00    +0.000 A 
ATOM     29  C   UNL     1       1.753   7.963  20.128  0.00  0.00    +0.000 A 
ATOM     30  H   UNL     1       4.460   6.266  17.072  0.00  0.00    +0.000 HD
ENDBRANCH  16  21
BRANCH   1  32
ATOM     31  C   UNL     1      -5.750  14.804  19.730  0.00  0.00    +0.000 C 
ATOM     32  C   UNL     1      -5.592  13.872  20.935  0.00  0.00    +0.000 C 
ATOM     33  C   UNL     1      -5.445  14.667  22.243  0.00  0.00    +0.000 C 
ATOM     34  C   UNL     1      -6.864  13.006  21.051  0.00  0.00    +0.000 C 
ENDBRANCH   1  32
TORSDOF 2
ENDMDL
MODEL 9
REMARK VINA RESULT:      -6.9      3.386      5.347
REMARK  Name = 
REMARK  5 active torsions:
REMARK  status: ('A' for Active; 'I' for Inactive)
REMARK    1  A    between atoms: C_1  and  C_2
REMARK    2  A    between atoms: C_2  and  C_3
REMARK    3  A    between atoms: C_2  and  C_4
REMARK    4  A    between atoms: C_2  and  N_5
REMARK    5  A    between atoms: C_20  and  C_22
REMARK                            x       y       z     vdW  Elec       q    Type
REMARK                         _______ _______ _______ _____ _____    ______ ____
ROOT
ATOM      1  N   UNL     1      -4.724  15.505  22.842  0.00  0.00    +0.000 N 
ATOM      2  C   UNL     1      -5.035  14.491  21.931  0.00  0.00    +0.000 C 
ATOM      3  N   UNL     1      -6.053  14.636  21.125  0.00  0.00    +0.000 NA
ATOM      4  C   UNL     1      -6.335  13.605  20.216  0.00  0.00    +0.000 A 
ATOM      5  C   UNL     1      -7.178  13.882  19.136  0.00  0.00    +0.000 A 
ATOM      6  C   UNL     1      -7.492  12.888  18.210  0.00  0.00    +0.000 A 
ATOM      7  C   UNL     1      -6.990  11.599  18.379  0.00  0.00    +0.000 A 
ATOM      8  C   UNL     1      -6.154  11.309  19.459  0.00  0.00    +0.000 A 
ATOM      9  C   UNL     1      -5.776  12.317  20.348  0.00  0.00    +0.000 A 
ATOM     10  N   UNL     1      -4.899  12.016  21.422  0.00  0.00    +0.000 N 
ATOM     11  C   UNL     1      -4.100  13.210  21.827  0.00  0.00    +0.000 C 
ATOM     12  C   UNL     1      -3.453  12.843  23.195  0.00  0.00    +0.000 C 
ATOM     13  C   UNL     1      -2.285  11.858  23.084  0.00  0.00    +0.000 C 
ATOM     14  C   UNL     1      -1.273  12.352  22.054  0.00  0.00    +0.000 C 
ATOM     15  N   UNL     1      -1.940  12.488  20.767  0.00  0.00    +0.000 N 
ATOM     16  C   UNL     1      -1.575  11.865  19.568  0.00  0.00    +0.000 C 
ATOM     17  O   UNL     1      -2.085  12.155  18.490  0.00  0.00    +0.000 OA
ATOM     18  C   UNL     1      -3.003  13.500  20.754  0.00  0.00    +0.000 C 
ATOM     19  H   UNL     1      -3.944  15.336  23.459  0.00  0.00    +0.000 HD
ATOM     20  H   UNL     1      -4.300  11.236  21.161  0.00  0.00    +0.000 HD
ENDROOT
BRANCH  16  21
ATOM     21  C   UNL     1      -0.528  10.813  19.546  0.00  0.00    +0.000 A 
ATOM     22  C   UNL     1      -0.168  10.218  20.769  0.00  0.00    +0.000 A 
ATOM     23  C   UNL     1       0.741   9.157  20.828  0.00  0.00    +0.000 A 
ATOM     24  C   UNL     1       1.329   8.791  19.616  0.00  0.00    +0.000 A 
ATOM     25  N   UNL     1       2.192   7.785  19.261  0.00  0.00    +0.000 N 
ATOM     26  C   UNL     1       2.731   8.128  18.052  0.00  0.00    +0.000 A 
ATOM     27  N   UNL     1       2.018   9.063  17.466  0.00  0.00    +0.000 NA
ATOM     28  C   UNL     1       1.133   9.485  18.428  0.00  0.00    +0.000 A 
ATOM     29  C   UNL     1       0.156  10.484  18.368  0.00  0.00    +0.000 A 
ATOM     30  H   UNL     1       2.405   6.956  19.796  0.00  0.00    +0.000 HD
ENDBRANCH  16  21
BRANCH   1  32
ATOM     31  C   UNL     1      -6.156  17.452  22.414  0.00  0.00    +0.000 C 
ATOM     32  C   UNL     1      -5.716  16.412  23.448  0.00  0.00    +0.000 C 
ATOM     33  C   UNL     1      -5.189  17.083  24.728  0.00  0.00    +0.000 C 
ATOM     34  C   UNL     1      -6.943  15.561  23.835  0.00  0.00    +0.000 C 
ENDBRANCH   1  32
TORSDOF 2
ENDMDL
