MODEL 1
REMARK VINA RESULT:      -8.4      0.000      0.000
REMARK  Name = 
REMARK  9 active torsions:
REMARK  status: ('A' for Active; 'I' for Inactive)
REMARK    1  A    between atoms: N_1  and  S_2
REMARK    2  A    between atoms: S_2  and  C_5
REMARK    3  A    between atoms: C_5  and  C_6
REMARK    4  A    between atoms: C_6  and  C_7
REMARK    5  A    between atoms: C_7  and  C_10
REMARK    6  A    between atoms: C_10  and  C_13
REMARK    7  A    between atoms: C_13  and  C_16
REMARK    8  A    between atoms: C_16  and  C_19
REMARK    9  A    between atoms: C_19  and  C_22
REMARK                            x       y       z     vdW  Elec       q    Type
REMARK                         _______ _______ _______ _____ _____    ______ ____
ROOT
ATOM      1  C   UNL     1       2.820   5.330  18.097  0.00  0.00    +0.000 C 
ATOM      2  F   UNL     1       3.115   5.463  19.431  0.00  0.00    +0.000 F 
ATOM      3  F   UNL     1       2.160   6.476  17.761  0.00  0.00    +0.000 F 
ENDROOT
BRANCH   1   4
ATOM      4  C   UNL     1       4.146   5.265  17.327  0.00  0.00    +0.000 C 
ATOM      5  F   UNL     1       4.509   6.526  16.944  0.00  0.00    +0.000 F 
ATOM      6  F   UNL     1       3.998   4.580  16.166  0.00  0.00    +0.000 F 
BRANCH   4   7
ATOM      7  C   UNL     1       5.303   4.679  18.116  0.00  0.00    +0.000 C 
BRANCH   7   8
ATOM      8  C   UNL     1       5.898   5.685  19.095  0.00  0.00    +0.000 C 
BRANCH   8   9
ATOM      9  S   UNL     1       7.683   5.628  18.989  0.00  0.00    +0.000 S 
ATOM     10  O   UNL     1       8.170   6.948  18.663  0.00  0.00    +0.000 OA
ATOM     11  O   UNL     1       8.085   4.464  18.244  0.00  0.00    +0.000 OA
BRANCH   9  12
ATOM     12  N   UNL     1       8.140   5.343  20.565  0.00  0.00    +0.000 NA
ATOM     13  H   UNL     1       8.307   6.234  21.036  0.00  0.00    +0.000 HD
ATOM     14  H   UNL     1       8.949   4.725  20.599  0.00  0.00    +0.000 HD
ENDBRANCH   9  12
ENDBRANCH   8   9
ENDBRANCH   7   8
ENDBRANCH   4   7
ENDBRANCH   1   4
BRANCH   1  15
ATOM     15  C   UNL     1       1.882   4.135  17.939  0.00  0.00    +0.000 C 
ATOM     16  F   UNL     1       0.886   4.445  17.064  0.00  0.00    +0.000 F 
ATOM     17  F   UNL     1       2.574   3.120  17.341  0.00  0.00    +0.000 F 
BRANCH  15  18
ATOM     18  C   UNL     1       1.294   3.638  19.245  0.00  0.00    +0.000 C 
ATOM     19  F   UNL     1       1.054   4.701  20.059  0.00  0.00    +0.000 F 
ATOM     20  F   UNL     1       0.095   3.038  19.018  0.00  0.00    +0.000 F 
BRANCH  18  21
ATOM     21  C   UNL     1       2.193   2.641  19.932  0.00  0.00    +0.000 C 
ATOM     22  F   UNL     1       1.812   1.371  19.603  0.00  0.00    +0.000 F 
ATOM     23  F   UNL     1       3.475   2.761  19.491  0.00  0.00    +0.000 F 
BRANCH  21  24
ATOM     24  C   UNL     1       2.120   2.837  21.443  0.00  0.00    +0.000 C 
ATOM     25  F   UNL     1       2.389   4.100  21.847  0.00  0.00    +0.000 F 
ATOM     26  F   UNL     1       0.890   2.533  21.926  0.00  0.00    +0.000 F 
ATOM     27  F   UNL     1       2.995   2.027  22.090  0.00  0.00    +0.000 F 
ENDBRANCH  21  24
ENDBRANCH  18  21
ENDBRANCH  15  18
ENDBRANCH   1  15
TORSDOF 9
ENDMDL
MODEL 2
REMARK VINA RESULT:      -8.4      1.839      2.469
REMARK  Name = 
REMARK  9 active torsions:
REMARK  status: ('A' for Active; 'I' for Inactive)
REMARK    1  A    between atoms: N_1  and  S_2
REMARK    2  A    between atoms: S_2  and  C_5
REMARK    3  A    between atoms: C_5  and  C_6
REMARK    4  A    between atoms: C_6  and  C_7
REMARK    5  A    between atoms: C_7  and  C_10
REMARK    6  A    between atoms: C_10  and  C_13
REMARK    7  A    between atoms: C_13  and  C_16
REMARK    8  A    between atoms: C_16  and  C_19
REMARK    9  A    between atoms: C_19  and  C_22
REMARK                            x       y       z     vdW  Elec       q    Type
REMARK                         _______ _______ _______ _____ _____    ______ ____
ROOT
ATOM      1  C   UNL     1       2.925   5.564  17.995  0.00  0.00    +0.000 C 
ATOM      2  F   UNL     1       1.763   6.109  17.507  0.00  0.00    +0.000 F 
ATOM      3  F   UNL     1       3.157   4.465  17.219  0.00  0.00    +0.000 F 
ENDROOT
BRANCH   1   4
ATOM      4  C   UNL     1       4.050   6.584  17.777  0.00  0.00    +0.000 C 
ATOM      5  F   UNL     1       4.973   6.459  18.778  0.00  0.00    +0.000 F 
ATOM      6  F   UNL     1       3.584   7.852  17.895  0.00  0.00    +0.000 F 
BRANCH   4   7
ATOM      7  C   UNL     1       4.787   6.435  16.458  0.00  0.00    +0.000 C 
BRANCH   7   8
ATOM      8  C   UNL     1       6.297   6.365  16.649  0.00  0.00    +0.000 C 
BRANCH   8   9
ATOM      9  S   UNL     1       6.917   4.859  15.908  0.00  0.00    +0.000 S 
ATOM     10  O   UNL     1       7.781   5.206  14.805  0.00  0.00    +0.000 OA
ATOM     11  O   UNL     1       5.841   3.915  15.763  0.00  0.00    +0.000 OA
BRANCH   9  12
ATOM     12  N   UNL     1       7.909   4.242  17.096  0.00  0.00    +0.000 NA
ATOM     13  H   UNL     1       8.056   3.245  16.932  0.00  0.00    +0.000 HD
ATOM     14  H   UNL     1       7.525   4.433  18.020  0.00  0.00    +0.000 HD
ENDBRANCH   9  12
ENDBRANCH   8   9
ENDBRANCH   7   8
ENDBRANCH   4   7
ENDBRANCH   1   4
BRANCH   1  15
ATOM     15  C   UNL     1       2.672   5.126  19.436  0.00  0.00    +0.000 C 
ATOM     16  F   UNL     1       3.822   4.642  19.979  0.00  0.00    +0.000 F 
ATOM     17  F   UNL     1       2.370   6.235  20.177  0.00  0.00    +0.000 F 
BRANCH  15  18
ATOM     18  C   UNL     1       1.557   4.110  19.583  0.00  0.00    +0.000 C 
ATOM     19  F   UNL     1       0.626   4.590  20.452  0.00  0.00    +0.000 F 
ATOM     20  F   UNL     1       0.927   3.932  18.392  0.00  0.00    +0.000 F 
BRANCH  18  21
ATOM     21  C   UNL     1       2.066   2.768  20.047  0.00  0.00    +0.000 C 
ATOM     22  F   UNL     1       1.238   1.778  19.597  0.00  0.00    +0.000 F 
ATOM     23  F   UNL     1       3.284   2.497  19.505  0.00  0.00    +0.000 F 
BRANCH  21  24
ATOM     24  C   UNL     1       2.135   2.742  21.571  0.00  0.00    +0.000 C 
ATOM     25  F   UNL     1       3.149   1.994  22.063  0.00  0.00    +0.000 F 
ATOM     26  F   UNL     1       2.293   3.988  22.084  0.00  0.00    +0.000 F 
ATOM     27  F   UNL     1       0.992   2.251  22.110  0.00  0.00    +0.000 F 
ENDBRANCH  21  24
ENDBRANCH  18  21
ENDBRANCH  15  18
ENDBRANCH   1  15
TORSDOF 9
ENDMDL
MODEL 3
REMARK VINA RESULT:      -8.3      2.260      3.064
REMARK  Name = 
REMARK  9 active torsions:
REMARK  status: ('A' for Active; 'I' for Inactive)
REMARK    1  A    between atoms: N_1  and  S_2
REMARK    2  A    between atoms: S_2  and  C_5
REMARK    3  A    between atoms: C_5  and  C_6
REMARK    4  A    between atoms: C_6  and  C_7
REMARK    5  A    between atoms: C_7  and  C_10
REMARK    6  A    between atoms: C_10  and  C_13
REMARK    7  A    between atoms: C_13  and  C_16
REMARK    8  A    between atoms: C_16  and  C_19
REMARK    9  A    between atoms: C_19  and  C_22
REMARK                            x       y       z     vdW  Elec       q    Type
REMARK                         _______ _______ _______ _____ _____    ______ ____
ROOT
ATOM      1  C   UNL     1       3.941   5.337  17.899  0.00  0.00    +0.000 C 
ATOM      2  F   UNL     1       3.922   6.594  17.347  0.00  0.00    +0.000 F 
ATOM      3  F   UNL     1       3.719   4.485  16.856  0.00  0.00    +0.000 F 
ENDROOT
BRANCH   1   4
ATOM      4  C   UNL     1       5.348   5.093  18.463  0.00  0.00    +0.000 C 
ATOM      5  F   UNL     1       5.565   3.747  18.570  0.00  0.00    +0.000 F 
ATOM      6  F   UNL     1       5.448   5.560  19.732  0.00  0.00    +0.000 F 
BRANCH   4   7
ATOM      7  C   UNL     1       6.471   5.669  17.621  0.00  0.00    +0.000 C 
BRANCH   7   8
ATOM      8  C   UNL     1       7.098   4.623  16.706  0.00  0.00    +0.000 C 
BRANCH   8   9
ATOM      9  S   UNL     1       6.767   5.054  15.001  0.00  0.00    +0.000 S 
ATOM     10  O   UNL     1       8.017   5.372  14.353  0.00  0.00    +0.000 OA
ATOM     11  O   UNL     1       5.632   5.935  14.938  0.00  0.00    +0.000 OA
BRANCH   9  12
ATOM     12  N   UNL     1       6.261   3.609  14.345  0.00  0.00    +0.000 NA
ATOM     13  H   UNL     1       5.480   3.242  14.891  0.00  0.00    +0.000 HD
ATOM     14  H   UNL     1       7.036   2.951  14.283  0.00  0.00    +0.000 HD
ENDBRANCH   9  12
ENDBRANCH   8   9
ENDBRANCH   7   8
ENDBRANCH   4   7
ENDBRANCH   1   4
BRANCH   1  15
ATOM     15  C   UNL     1       2.784   5.240  18.892  0.00  0.00    +0.000 C 
ATOM     16  F   UNL     1       3.232   5.507  20.149  0.00  0.00    +0.000 F 
ATOM     17  F   UNL     1       1.893   6.239  18.614  0.00  0.00    +0.000 F 
BRANCH  15  18
ATOM     18  C   UNL     1       2.063   3.907  18.866  0.00  0.00    +0.000 C 
ATOM     19  F   UNL     1       1.265   3.852  17.764  0.00  0.00    +0.000 F 
ATOM     20  F   UNL     1       2.960   2.892  18.752  0.00  0.00    +0.000 F 
BRANCH  18  21
ATOM     21  C   UNL     1       1.250   3.674  20.115  0.00  0.00    +0.000 C 
ATOM     22  F   UNL     1       0.691   4.850  20.529  0.00  0.00    +0.000 F 
ATOM     23  F   UNL     1       0.203   2.841  19.865  0.00  0.00    +0.000 F 
BRANCH  21  24
ATOM     24  C   UNL     1       2.144   3.103  21.212  0.00  0.00    +0.000 C 
ATOM     25  F   UNL     1       2.420   3.976  22.208  0.00  0.00    +0.000 F 
ATOM     26  F   UNL     1       1.582   2.016  21.798  0.00  0.00    +0.000 F 
ATOM     27  F   UNL     1       3.337   2.692  20.714  0.00  0.00    +0.000 F 
ENDBRANCH  21  24
ENDBRANCH  18  21
ENDBRANCH  15  18
ENDBRANCH   1  15
TORSDOF 9
ENDMDL
MODEL 4
REMARK VINA RESULT:      -8.3      2.292      2.876
REMARK  Name = 
REMARK  9 active torsions:
REMARK  status: ('A' for Active; 'I' for Inactive)
REMARK    1  A    between atoms: N_1  and  S_2
REMARK    2  A    between atoms: S_2  and  C_5
REMARK    3  A    between atoms: C_5  and  C_6
REMARK    4  A    between atoms: C_6  and  C_7
REMARK    5  A    between atoms: C_7  and  C_10
REMARK    6  A    between atoms: C_10  and  C_13
REMARK    7  A    between atoms: C_13  and  C_16
REMARK    8  A    between atoms: C_16  and  C_19
REMARK    9  A    between atoms: C_19  and  C_22
REMARK                            x       y       z     vdW  Elec       q    Type
REMARK                         _______ _______ _______ _____ _____    ______ ____
ROOT
ATOM      1  C   UNL     1       4.642   4.673  18.490  0.00  0.00    +0.000 C 
ATOM      2  F   UNL     1       5.961   4.294  18.521  0.00  0.00    +0.000 F 
ATOM      3  F   UNL     1       4.480   5.492  19.570  0.00  0.00    +0.000 F 
ENDROOT
BRANCH   1   4
ATOM      4  C   UNL     1       4.414   5.478  17.204  0.00  0.00    +0.000 C 
ATOM      5  F   UNL     1       3.451   6.422  17.426  0.00  0.00    +0.000 F 
ATOM      6  F   UNL     1       3.907   4.691  16.223  0.00  0.00    +0.000 F 
BRANCH   4   7
ATOM      7  C   UNL     1       5.646   6.199  16.688  0.00  0.00    +0.000 C 
BRANCH   7   8
ATOM      8  C   UNL     1       5.795   6.072  15.177  0.00  0.00    +0.000 C 
BRANCH   8   9
ATOM      9  S   UNL     1       6.999   4.801  14.806  0.00  0.00    +0.000 S 
ATOM     10  O   UNL     1       6.347   3.745  14.068  0.00  0.00    +0.000 OA
ATOM     11  O   UNL     1       7.792   4.532  15.976  0.00  0.00    +0.000 OA
BRANCH   9  12
ATOM     12  N   UNL     1       8.017   5.558  13.727  0.00  0.00    +0.000 NA
ATOM     13  H   UNL     1       7.516   5.739  12.856  0.00  0.00    +0.000 HD
ATOM     14  H   UNL     1       8.863   5.009  13.584  0.00  0.00    +0.000 HD
ENDBRANCH   9  12
ENDBRANCH   8   9
ENDBRANCH   7   8
ENDBRANCH   4   7
ENDBRANCH   1   4
BRANCH   1  15
ATOM     15  C   UNL     1       3.787   3.419  18.669  0.00  0.00    +0.000 C 
ATOM     16  F   UNL     1       4.100   2.508  17.707  0.00  0.00    +0.000 F 
ATOM     17  F   UNL     1       4.137   2.823  19.848  0.00  0.00    +0.000 F 
BRANCH  15  18
ATOM     18  C   UNL     1       2.295   3.688  18.669  0.00  0.00    +0.000 C 
ATOM     19  F   UNL     1       2.075   4.982  19.029  0.00  0.00    +0.000 F 
ATOM     20  F   UNL     1       1.794   3.538  17.414  0.00  0.00    +0.000 F 
BRANCH  18  21
ATOM     21  C   UNL     1       1.548   2.752  19.586  0.00  0.00    +0.000 C 
ATOM     22  F   UNL     1       0.369   2.378  19.004  0.00  0.00    +0.000 F 
ATOM     23  F   UNL     1       2.243   1.598  19.773  0.00  0.00    +0.000 F 
BRANCH  21  24
ATOM     24  C   UNL     1       1.278   3.444  20.919  0.00  0.00    +0.000 C 
ATOM     25  F   UNL     1       2.372   4.014  21.474  0.00  0.00    +0.000 F 
ATOM     26  F   UNL     1       0.354   4.429  20.792  0.00  0.00    +0.000 F 
ATOM     27  F   UNL     1       0.785   2.575  21.836  0.00  0.00    +0.000 F 
ENDBRANCH  21  24
ENDBRANCH  18  21
ENDBRANCH  15  18
ENDBRANCH   1  15
TORSDOF 9
ENDMDL
MODEL 5
REMARK VINA RESULT:      -8.3      2.051      2.732
REMARK  Name = 
REMARK  9 active torsions:
REMARK  status: ('A' for Active; 'I' for Inactive)
REMARK    1  A    between atoms: N_1  and  S_2
REMARK    2  A    between atoms: S_2  and  C_5
REMARK    3  A    between atoms: C_5  and  C_6
REMARK    4  A    between atoms: C_6  and  C_7
REMARK    5  A    between atoms: C_7  and  C_10
REMARK    6  A    between atoms: C_10  and  C_13
REMARK    7  A    between atoms: C_13  and  C_16
REMARK    8  A    between atoms: C_16  and  C_19
REMARK    9  A    between atoms: C_19  and  C_22
REMARK                            x       y       z     vdW  Elec       q    Type
REMARK                         _______ _______ _______ _____ _____    ______ ____
ROOT
ATOM      1  C   UNL     1       2.931   5.793  18.287  0.00  0.00    +0.000 C 
ATOM      2  F   UNL     1       2.900   6.058  19.633  0.00  0.00    +0.000 F 
ATOM      3  F   UNL     1       2.114   6.728  17.720  0.00  0.00    +0.000 F 
ENDROOT
BRANCH   1   4
ATOM      4  C   UNL     1       4.369   6.013  17.797  0.00  0.00    +0.000 C 
ATOM      5  F   UNL     1       5.232   5.874  18.848  0.00  0.00    +0.000 F 
ATOM      6  F   UNL     1       4.545   7.290  17.373  0.00  0.00    +0.000 F 
BRANCH   4   7
ATOM      7  C   UNL     1       4.817   5.053  16.711  0.00  0.00    +0.000 C 
BRANCH   7   8
ATOM      8  C   UNL     1       5.524   5.769  15.567  0.00  0.00    +0.000 C 
BRANCH   8   9
ATOM      9  S   UNL     1       6.988   4.848  15.108  0.00  0.00    +0.000 S 
ATOM     10  O   UNL     1       7.649   4.398  16.310  0.00  0.00    +0.000 OA
ATOM     11  O   UNL     1       7.694   5.551  14.070  0.00  0.00    +0.000 OA
BRANCH   9  12
ATOM     12  N   UNL     1       6.358   3.484  14.389  0.00  0.00    +0.000 NA
ATOM     13  H   UNL     1       6.423   3.574  13.374  0.00  0.00    +0.000 HD
ATOM     14  H   UNL     1       5.404   3.318  14.706  0.00  0.00    +0.000 HD
ENDBRANCH   9  12
ENDBRANCH   8   9
ENDBRANCH   7   8
ENDBRANCH   4   7
ENDBRANCH   1   4
BRANCH   1  15
ATOM     15  C   UNL     1       2.343   4.400  18.066  0.00  0.00    +0.000 C 
ATOM     16  F   UNL     1       1.006   4.497  17.832  0.00  0.00    +0.000 F 
ATOM     17  F   UNL     1       2.868   3.889  16.913  0.00  0.00    +0.000 F 
BRANCH  15  18
ATOM     18  C   UNL     1       2.606   3.435  19.205  0.00  0.00    +0.000 C 
ATOM     19  F   UNL     1       2.891   2.207  18.692  0.00  0.00    +0.000 F 
ATOM     20  F   UNL     1       3.699   3.830  19.909  0.00  0.00    +0.000 F 
BRANCH  18  21
ATOM     21  C   UNL     1       1.441   3.349  20.160  0.00  0.00    +0.000 C 
ATOM     22  F   UNL     1       0.787   4.548  20.200  0.00  0.00    +0.000 F 
ATOM     23  F   UNL     1       0.521   2.448  19.722  0.00  0.00    +0.000 F 
BRANCH  21  24
ATOM     24  C   UNL     1       1.942   2.977  21.552  0.00  0.00    +0.000 C 
ATOM     25  F   UNL     1       2.979   2.108  21.549  0.00  0.00    +0.000 F 
ATOM     26  F   UNL     1       2.358   4.070  22.240  0.00  0.00    +0.000 F 
ATOM     27  F   UNL     1       0.960   2.410  22.296  0.00  0.00    +0.000 F 
ENDBRANCH  21  24
ENDBRANCH  18  21
ENDBRANCH  15  18
ENDBRANCH   1  15
TORSDOF 9
ENDMDL
MODEL 6
REMARK VINA RESULT:      -8.2      2.222      3.046
REMARK  Name = 
REMARK  9 active torsions:
REMARK  status: ('A' for Active; 'I' for Inactive)
REMARK    1  A    between atoms: N_1  and  S_2
REMARK    2  A    between atoms: S_2  and  C_5
REMARK    3  A    between atoms: C_5  and  C_6
REMARK    4  A    between atoms: C_6  and  C_7
REMARK    5  A    between atoms: C_7  and  C_10
REMARK    6  A    between atoms: C_10  and  C_13
REMARK    7  A    between atoms: C_13  and  C_16
REMARK    8  A    between atoms: C_16  and  C_19
REMARK    9  A    between atoms: C_19  and  C_22
REMARK                            x       y       z     vdW  Elec       q    Type
REMARK                         _______ _______ _______ _____ _____    ______ ____
ROOT
ATOM      1  C   UNL     1       3.884   5.269  17.825  0.00  0.00    +0.000 C 
ATOM      2  F   UNL     1       3.686   6.516  17.288  0.00  0.00    +0.000 F 
ATOM      3  F   UNL     1       3.800   4.408  16.769  0.00  0.00    +0.000 F 
ENDROOT
BRANCH   1   4
ATOM      4  C   UNL     1       5.305   5.226  18.403  0.00  0.00    +0.000 C 
ATOM      5  F   UNL     1       5.753   3.934  18.407  0.00  0.00    +0.000 F 
ATOM      6  F   UNL     1       5.308   5.597  19.707  0.00  0.00    +0.000 F 
BRANCH   4   7
ATOM      7  C   UNL     1       6.319   6.056  17.637  0.00  0.00    +0.000 C 
BRANCH   7   8
ATOM      8  C   UNL     1       7.281   5.189  16.833  0.00  0.00    +0.000 C 
BRANCH   8   9
ATOM      9  S   UNL     1       6.788   5.200  15.113  0.00  0.00    +0.000 S 
ATOM     10  O   UNL     1       7.965   5.377  14.295  0.00  0.00    +0.000 OA
ATOM     11  O   UNL     1       5.619   6.022  14.951  0.00  0.00    +0.000 OA
BRANCH   9  12
ATOM     12  N   UNL     1       6.283   3.632  14.862  0.00  0.00    +0.000 NA
ATOM     13  H   UNL     1       5.397   3.479  15.346  0.00  0.00    +0.000 HD
ATOM     14  H   UNL     1       7.004   2.972  15.148  0.00  0.00    +0.000 HD
ENDBRANCH   9  12
ENDBRANCH   8   9
ENDBRANCH   7   8
ENDBRANCH   4   7
ENDBRANCH   1   4
BRANCH   1  15
ATOM     15  C   UNL     1       2.743   4.989  18.802  0.00  0.00    +0.000 C 
ATOM     16  F   UNL     1       2.784   5.885  19.826  0.00  0.00    +0.000 F 
ATOM     17  F   UNL     1       1.559   5.234  18.164  0.00  0.00    +0.000 F 
BRANCH  15  18
ATOM     18  C   UNL     1       2.733   3.574  19.346  0.00  0.00    +0.000 C 
ATOM     19  F   UNL     1       2.823   2.697  18.310  0.00  0.00    +0.000 F 
ATOM     20  F   UNL     1       3.824   3.368  20.131  0.00  0.00    +0.000 F 
BRANCH  18  21
ATOM     21  C   UNL     1       1.503   3.289  20.171  0.00  0.00    +0.000 C 
ATOM     22  F   UNL     1       0.687   4.385  20.178  0.00  0.00    +0.000 F 
ATOM     23  F   UNL     1       0.766   2.290  19.615  0.00  0.00    +0.000 F 
BRANCH  21  24
ATOM     24  C   UNL     1       1.911   2.930  21.597  0.00  0.00    +0.000 C 
ATOM     25  F   UNL     1       2.905   2.014  21.671  0.00  0.00    +0.000 F 
ATOM     26  F   UNL     1       2.340   4.019  22.282  0.00  0.00    +0.000 F 
ATOM     27  F   UNL     1       0.866   2.425  22.299  0.00  0.00    +0.000 F 
ENDBRANCH  21  24
ENDBRANCH  18  21
ENDBRANCH  15  18
ENDBRANCH   1  15
TORSDOF 9
ENDMDL
MODEL 7
REMARK VINA RESULT:      -8.2      2.127      2.732
REMARK  Name = 
REMARK  9 active torsions:
REMARK  status: ('A' for Active; 'I' for Inactive)
REMARK    1  A    between atoms: N_1  and  S_2
REMARK    2  A    between atoms: S_2  and  C_5
REMARK    3  A    between atoms: C_5  and  C_6
REMARK    4  A    between atoms: C_6  and  C_7
REMARK    5  A    between atoms: C_7  and  C_10
REMARK    6  A    between atoms: C_10  and  C_13
REMARK    7  A    between atoms: C_13  and  C_16
REMARK    8  A    between atoms: C_16  and  C_19
REMARK    9  A    between atoms: C_19  and  C_22
REMARK                            x       y       z     vdW  Elec       q    Type
REMARK                         _______ _______ _______ _____ _____    ______ ____
ROOT
ATOM      1  C   UNL     1       4.694   5.070  18.844  0.00  0.00    +0.000 C 
ATOM      2  F   UNL     1       6.032   4.951  19.127  0.00  0.00    +0.000 F 
ATOM      3  F   UNL     1       4.126   5.545  19.991  0.00  0.00    +0.000 F 
ENDROOT
BRANCH   1   4
ATOM      4  C   UNL     1       4.540   6.116  17.731  0.00  0.00    +0.000 C 
ATOM      5  F   UNL     1       4.166   7.310  18.281  0.00  0.00    +0.000 F 
ATOM      6  F   UNL     1       3.523   5.787  16.896  0.00  0.00    +0.000 F 
BRANCH   4   7
ATOM      7  C   UNL     1       5.800   6.362  16.922  0.00  0.00    +0.000 C 
BRANCH   7   8
ATOM      8  C   UNL     1       5.621   5.996  15.454  0.00  0.00    +0.000 C 
BRANCH   8   9
ATOM      9  S   UNL     1       6.882   4.818  14.980  0.00  0.00    +0.000 S 
ATOM     10  O   UNL     1       7.835   5.480  14.121  0.00  0.00    +0.000 OA
ATOM     11  O   UNL     1       6.264   3.572  14.611  0.00  0.00    +0.000 OA
BRANCH   9  12
ATOM     12  N   UNL     1       7.676   4.528  16.415  0.00  0.00    +0.000 NA
ATOM     13  H   UNL     1       7.224   5.053  17.166  0.00  0.00    +0.000 HD
ATOM     14  H   UNL     1       8.667   4.747  16.328  0.00  0.00    +0.000 HD
ENDBRANCH   9  12
ENDBRANCH   8   9
ENDBRANCH   7   8
ENDBRANCH   4   7
ENDBRANCH   1   4
BRANCH   1  15
ATOM     15  C   UNL     1       4.149   3.674  18.546  0.00  0.00    +0.000 C 
ATOM     16  F   UNL     1       4.433   3.333  17.259  0.00  0.00    +0.000 F 
ATOM     17  F   UNL     1       4.834   2.772  19.311  0.00  0.00    +0.000 F 
BRANCH  15  18
ATOM     18  C   UNL     1       2.664   3.525  18.810  0.00  0.00    +0.000 C 
ATOM     19  F   UNL     1       2.112   4.760  18.965  0.00  0.00    +0.000 F 
ATOM     20  F   UNL     1       2.054   2.954  17.738  0.00  0.00    +0.000 F 
BRANCH  18  21
ATOM     21  C   UNL     1       2.383   2.668  20.019  0.00  0.00    +0.000 C 
ATOM     22  F   UNL     1       1.864   1.467  19.624  0.00  0.00    +0.000 F 
ATOM     23  F   UNL     1       3.534   2.367  20.679  0.00  0.00    +0.000 F 
BRANCH  21  24
ATOM     24  C   UNL     1       1.402   3.384  20.942  0.00  0.00    +0.000 C 
ATOM     25  F   UNL     1       0.905   2.604  21.930  0.00  0.00    +0.000 F 
ATOM     26  F   UNL     1       1.978   4.452  21.549  0.00  0.00    +0.000 F 
ATOM     27  F   UNL     1       0.337   3.867  20.254  0.00  0.00    +0.000 F 
ENDBRANCH  21  24
ENDBRANCH  18  21
ENDBRANCH  15  18
ENDBRANCH   1  15
TORSDOF 9
ENDMDL
MODEL 8
REMARK VINA RESULT:      -8.2      1.585      1.822
REMARK  Name = 
REMARK  9 active torsions:
REMARK  status: ('A' for Active; 'I' for Inactive)
REMARK    1  A    between atoms: N_1  and  S_2
REMARK    2  A    between atoms: S_2  and  C_5
REMARK    3  A    between atoms: C_5  and  C_6
REMARK    4  A    between atoms: C_6  and  C_7
REMARK    5  A    between atoms: C_7  and  C_10
REMARK    6  A    between atoms: C_10  and  C_13
REMARK    7  A    between atoms: C_13  and  C_16
REMARK    8  A    between atoms: C_16  and  C_19
REMARK    9  A    between atoms: C_19  and  C_22
REMARK                            x       y       z     vdW  Elec       q    Type
REMARK                         _______ _______ _______ _____ _____    ______ ____
ROOT
ATOM      1  C   UNL     1       2.912   5.506  18.397  0.00  0.00    +0.000 C 
ATOM      2  F   UNL     1       2.895   5.711  19.754  0.00  0.00    +0.000 F 
ATOM      3  F   UNL     1       2.371   6.638  17.858  0.00  0.00    +0.000 F 
ENDROOT
BRANCH   1   4
ATOM      4  C   UNL     1       4.378   5.386  17.958  0.00  0.00    +0.000 C 
ATOM      5  F   UNL     1       4.705   4.066  17.829  0.00  0.00    +0.000 F 
ATOM      6  F   UNL     1       5.211   5.856  18.919  0.00  0.00    +0.000 F 
BRANCH   4   7
ATOM      7  C   UNL     1       4.695   6.064  16.637  0.00  0.00    +0.000 C 
BRANCH   7   8
ATOM      8  C   UNL     1       5.424   5.134  15.675  0.00  0.00    +0.000 C 
BRANCH   8   9
ATOM      9  S   UNL     1       7.184   5.438  15.778  0.00  0.00    +0.000 S 
ATOM     10  O   UNL     1       7.404   6.627  16.567  0.00  0.00    +0.000 OA
ATOM     11  O   UNL     1       7.780   5.266  14.480  0.00  0.00    +0.000 OA
BRANCH   9  12
ATOM     12  N   UNL     1       7.727   4.163  16.704  0.00  0.00    +0.000 NA
ATOM     13  H   UNL     1       8.744   4.207  16.779  0.00  0.00    +0.000 HD
ATOM     14  H   UNL     1       7.402   3.277  16.322  0.00  0.00    +0.000 HD
ENDBRANCH   9  12
ENDBRANCH   8   9
ENDBRANCH   7   8
ENDBRANCH   4   7
ENDBRANCH   1   4
BRANCH   1  15
ATOM     15  C   UNL     1       2.009   4.313  18.089  0.00  0.00    +0.000 C 
ATOM     16  F   UNL     1       1.050   4.680  17.195  0.00  0.00    +0.000 F 
ATOM     17  F   UNL     1       2.753   3.366  17.442  0.00  0.00    +0.000 F 
BRANCH  15  18
ATOM     18  C   UNL     1       1.370   3.693  19.316  0.00  0.00    +0.000 C 
ATOM     19  F   UNL     1       0.984   4.682  20.166  0.00  0.00    +0.000 F 
ATOM     20  F   UNL     1       0.245   3.016  18.964  0.00  0.00    +0.000 F 
BRANCH  18  21
ATOM     21  C   UNL     1       2.296   2.729  20.015  0.00  0.00    +0.000 C 
ATOM     22  F   UNL     1       2.078   1.461  19.555  0.00  0.00    +0.000 F 
ATOM     23  F   UNL     1       3.596   3.004  19.720  0.00  0.00    +0.000 F 
BRANCH  21  24
ATOM     24  C   UNL     1       2.060   2.789  21.521  0.00  0.00    +0.000 C 
ATOM     25  F   UNL     1       2.390   3.975  22.084  0.00  0.00    +0.000 F 
ATOM     26  F   UNL     1       0.758   2.566  21.831  0.00  0.00    +0.000 F 
ATOM     27  F   UNL     1       2.775   1.838  22.173  0.00  0.00    +0.000 F 
ENDBRANCH  21  24
ENDBRANCH  18  21
ENDBRANCH  15  18
ENDBRANCH   1  15
TORSDOF 9
ENDMDL
MODEL 9
REMARK VINA RESULT:      -8.2      0.906      2.024
REMARK  Name = 
REMARK  9 active torsions:
REMARK  status: ('A' for Active; 'I' for Inactive)
REMARK    1  A    between atoms: N_1  and  S_2
REMARK    2  A    between atoms: S_2  and  C_5
REMARK    3  A    between atoms: C_5  and  C_6
REMARK    4  A    between atoms: C_6  and  C_7
REMARK    5  A    between atoms: C_7  and  C_10
REMARK    6  A    between atoms: C_10  and  C_13
REMARK    7  A    between atoms: C_13  and  C_16
REMARK    8  A    between atoms: C_16  and  C_19
REMARK    9  A    between atoms: C_19  and  C_22
REMARK                            x       y       z     vdW  Elec       q    Type
REMARK                         _______ _______ _______ _____ _____    ______ ____
ROOT
ATOM      1  C   UNL     1       3.386   3.776  17.100  0.00  0.00    +0.000 C 
ATOM      2  F   UNL     1       2.855   3.487  15.868  0.00  0.00    +0.000 F 
ATOM      3  F   UNL     1       3.961   2.613  17.524  0.00  0.00    +0.000 F 
ENDROOT
BRANCH   1   4
ATOM      4  C   UNL     1       4.477   4.838  16.905  0.00  0.00    +0.000 C 
ATOM      5  F   UNL     1       4.038   6.034  17.399  0.00  0.00    +0.000 F 
ATOM      6  F   UNL     1       4.697   5.069  15.586  0.00  0.00    +0.000 F 
BRANCH   4   7
ATOM      7  C   UNL     1       5.793   4.519  17.589  0.00  0.00    +0.000 C 
BRANCH   7   8
ATOM      8  C   UNL     1       6.063   5.441  18.773  0.00  0.00    +0.000 C 
BRANCH   8   9
ATOM      9  S   UNL     1       7.830   5.610  19.000  0.00  0.00    +0.000 S 
ATOM     10  O   UNL     1       8.209   6.970  18.695  0.00  0.00    +0.000 OA
ATOM     11  O   UNL     1       8.502   4.483  18.409  0.00  0.00    +0.000 OA
BRANCH   9  12
ATOM     12  N   UNL     1       8.010   5.439  20.647  0.00  0.00    +0.000 NA
ATOM     13  H   UNL     1       7.204   4.940  21.027  0.00  0.00    +0.000 HD
ATOM     14  H   UNL     1       8.153   6.345  21.090  0.00  0.00    +0.000 HD
ENDBRANCH   9  12
ENDBRANCH   8   9
ENDBRANCH   7   8
ENDBRANCH   4   7
ENDBRANCH   1   4
BRANCH   1  15
ATOM     15  C   UNL     1       2.236   4.146  18.034  0.00  0.00    +0.000 C 
ATOM     16  F   UNL     1       1.821   5.416  17.774  0.00  0.00    +0.000 F 
ATOM     17  F   UNL     1       1.163   3.355  17.732  0.00  0.00    +0.000 F 
BRANCH  15  18
ATOM     18  C   UNL     1       2.567   3.997  19.506  0.00  0.00    +0.000 C 
ATOM     19  F   UNL     1       3.721   3.287  19.634  0.00  0.00    +0.000 F 
ATOM     20  F   UNL     1       2.793   5.217  20.060  0.00  0.00    +0.000 F 
BRANCH  18  21
ATOM     21  C   UNL     1       1.453   3.333  20.277  0.00  0.00    +0.000 C 
ATOM     22  F   UNL     1       0.365   4.159  20.320  0.00  0.00    +0.000 F 
ATOM     23  F   UNL     1       1.029   2.206  19.643  0.00  0.00    +0.000 F 
BRANCH  21  24
ATOM     24  C   UNL     1       1.925   3.012  21.691  0.00  0.00    +0.000 C 
ATOM     25  F   UNL     1       2.937   2.115  21.744  0.00  0.00    +0.000 F 
ATOM     26  F   UNL     1       2.363   4.123  22.335  0.00  0.00    +0.000 F 
ATOM     27  F   UNL     1       0.918   2.507  22.447  0.00  0.00    +0.000 F 
ENDBRANCH  21  24
ENDBRANCH  18  21
ENDBRANCH  15  18
ENDBRANCH   1  15
TORSDOF 9
ENDMDL
