MODEL 1
REMARK VINA RESULT:      -8.9      0.000      0.000
REMARK  Name = 
REMARK  5 active torsions:
REMARK  status: ('A' for Active; 'I' for Inactive)
REMARK    1  A    between atoms: C_1  and  S_2
REMARK    2  A    between atoms: S_2  and  C_3
REMARK    3  A    between atoms: C_7  and  N_8
REMARK    4  A    between atoms: N_11  and  C_12
REMARK    5  A    between atoms: C_15  and  C_16
REMARK                            x       y       z     vdW  Elec       q    Type
REMARK                         _______ _______ _______ _____ _____    ______ ____
ROOT
ATOM      1  C   UNL     1      -1.157  11.400  22.491  0.00  0.00    +0.000 A 
ATOM      2  C   UNL     1      -0.744  10.197  23.068  0.00  0.00    +0.000 A 
ATOM      3  C   UNL     1      -0.039   9.251  22.318  0.00  0.00    +0.000 A 
ATOM      4  C   UNL     1       0.280   9.490  20.974  0.00  0.00    +0.000 A 
ATOM      5  C   UNL     1      -0.110  10.715  20.407  0.00  0.00    +0.000 A 
ATOM      6  C   UNL     1      -0.846  11.648  21.151  0.00  0.00    +0.000 A 
ENDROOT
BRANCH   4   7
ATOM      7  C   UNL     1       0.809   8.335  20.135  0.00  0.00    +0.000 C 
ATOM      8  C   UNL     1       1.290   8.926  18.802  0.00  0.00    +0.000 C 
ATOM      9  N   UNL     1       2.442   8.282  18.181  0.00  0.00    +0.000 NA
ATOM     10  C   UNL     1       2.866   7.148  18.601  0.00  0.00    +0.000 C 
ATOM     11  C   UNL     1       3.811   6.392  17.766  0.00  0.00    +0.000 A 
ATOM     12  C   UNL     1       4.603   7.014  16.797  0.00  0.00    +0.000 A 
ATOM     13  C   UNL     1       5.350   6.231  15.920  0.00  0.00    +0.000 A 
ATOM     14  C   UNL     1       5.266   4.839  15.991  0.00  0.00    +0.000 A 
ATOM     15  C   UNL     1       4.502   4.224  16.992  0.00  0.00    +0.000 A 
ATOM     16  C   UNL     1       3.814   5.011  17.911  0.00  0.00    +0.000 A 
ATOM     17  N   UNL     1       3.156   4.444  19.007  0.00  0.00    +0.000 N 
ATOM     18  C   UNL     1       2.593   5.190  20.019  0.00  0.00    +0.000 C 
ATOM     19  O   UNL     1       2.248   4.631  21.061  0.00  0.00    +0.000 OA
ATOM     20  N   UNL     1       2.428   6.542  19.762  0.00  0.00    +0.000 N 
ATOM     21  C   UNL     1       1.862   7.434  20.768  0.00  0.00    +0.000 C 
ATOM     22  H   UNL     1       3.220   3.449  19.177  0.00  0.00    +0.000 HD
ENDBRANCH   4   7
BRANCH   1  26
ATOM     23  N   UNL     1      -3.723  13.663  23.723  0.00  0.00    +0.000 N 
ATOM     24  C   UNL     1      -3.201  12.683  22.894  0.00  0.00    +0.000 C 
ATOM     25  O   UNL     1      -3.820  12.138  21.985  0.00  0.00    +0.000 OA
ATOM     26  N   UNL     1      -1.895  12.357  23.235  0.00  0.00    +0.000 N 
ATOM     27  H   UNL     1      -3.060  14.336  24.085  0.00  0.00    +0.000 HD
ATOM     28  H   UNL     1      -1.690  12.441  24.221  0.00  0.00    +0.000 HD
BRANCH  23  33
ATOM     29  C   UNL     1      -6.825  15.703  23.493  0.00  0.00    +0.000 A 
ATOM     30  C   UNL     1      -7.795  14.778  23.892  0.00  0.00    +0.000 A 
ATOM     31  C   UNL     1      -7.423  13.482  24.241  0.00  0.00    +0.000 A 
ATOM     32  C   UNL     1      -6.081  13.105  24.189  0.00  0.00    +0.000 A 
ATOM     33  C   UNL     1      -5.095  14.011  23.782  0.00  0.00    +0.000 A 
ATOM     34  C   UNL     1      -5.475  15.319  23.461  0.00  0.00    +0.000 A 
BRANCH  29  36
ATOM     35  C   UNL     1      -7.914  17.179  21.409  0.00  0.00    +0.000 C 
ATOM     36  S   UNL     1      -7.262  17.389  23.090  0.00  0.00    +0.000 S 
ENDBRANCH  29  36
ENDBRANCH  23  33
ENDBRANCH   1  26
TORSDOF 4
ENDMDL
MODEL 2
REMARK VINA RESULT:      -8.7      0.976      1.168
REMARK  Name = 
REMARK  5 active torsions:
REMARK  status: ('A' for Active; 'I' for Inactive)
REMARK    1  A    between atoms: C_1  and  S_2
REMARK    2  A    between atoms: S_2  and  C_3
REMARK    3  A    between atoms: C_7  and  N_8
REMARK    4  A    between atoms: N_11  and  C_12
REMARK    5  A    between atoms: C_15  and  C_16
REMARK                            x       y       z     vdW  Elec       q    Type
REMARK                         _______ _______ _______ _____ _____    ______ ____
ROOT
ATOM      1  C   UNL     1      -0.500  11.118  22.325  0.00  0.00    +0.000 A 
ATOM      2  C   UNL     1      -0.491   9.778  22.722  0.00  0.00    +0.000 A 
ATOM      3  C   UNL     1       0.141   8.808  21.940  0.00  0.00    +0.000 A 
ATOM      4  C   UNL     1       0.789   9.154  20.746  0.00  0.00    +0.000 A 
ATOM      5  C   UNL     1       0.805  10.506  20.368  0.00  0.00    +0.000 A 
ATOM      6  C   UNL     1       0.141  11.475  21.136  0.00  0.00    +0.000 A 
ENDROOT
BRANCH   4   7
ATOM      7  C   UNL     1       1.229   8.039  19.806  0.00  0.00    +0.000 C 
ATOM      8  C   UNL     1       1.824   8.707  18.558  0.00  0.00    +0.000 C 
ATOM      9  N   UNL     1       2.927   8.008  17.908  0.00  0.00    +0.000 NA
ATOM     10  C   UNL     1       3.211   6.798  18.220  0.00  0.00    +0.000 C 
ATOM     11  C   UNL     1       4.106   6.032  17.339  0.00  0.00    +0.000 A 
ATOM     12  C   UNL     1       4.998   6.659  16.466  0.00  0.00    +0.000 A 
ATOM     13  C   UNL     1       5.695   5.893  15.534  0.00  0.00    +0.000 A 
ATOM     14  C   UNL     1       5.462   4.519  15.455  0.00  0.00    +0.000 A 
ATOM     15  C   UNL     1       4.597   3.892  16.361  0.00  0.00    +0.000 A 
ATOM     16  C   UNL     1       3.958   4.652  17.337  0.00  0.00    +0.000 A 
ATOM     17  N   UNL     1       3.199   4.051  18.346  0.00  0.00    +0.000 N 
ATOM     18  C   UNL     1       2.676   4.748  19.414  0.00  0.00    +0.000 C 
ATOM     19  O   UNL     1       2.231   4.126  20.380  0.00  0.00    +0.000 OA
ATOM     20  N   UNL     1       2.664   6.128  19.297  0.00  0.00    +0.000 N 
ATOM     21  C   UNL     1       2.154   6.970  20.373  0.00  0.00    +0.000 C 
ATOM     22  H   UNL     1       3.151   3.043  18.413  0.00  0.00    +0.000 HD
ENDBRANCH   4   7
BRANCH   1  26
ATOM     23  N   UNL     1      -2.875  13.547  23.622  0.00  0.00    +0.000 N 
ATOM     24  C   UNL     1      -2.433  12.554  22.763  0.00  0.00    +0.000 C 
ATOM     25  O   UNL     1      -3.089  12.093  21.835  0.00  0.00    +0.000 OA
ATOM     26  N   UNL     1      -1.160  12.109  23.098  0.00  0.00    +0.000 N 
ATOM     27  H   UNL     1      -2.161  14.150  24.009  0.00  0.00    +0.000 HD
ATOM     28  H   UNL     1      -0.955  12.143  24.087  0.00  0.00    +0.000 HD
BRANCH  23  33
ATOM     29  C   UNL     1      -5.766  15.884  23.775  0.00  0.00    +0.000 A 
ATOM     30  C   UNL     1      -6.840  14.991  23.834  0.00  0.00    +0.000 A 
ATOM     31  C   UNL     1      -6.609  13.618  23.828  0.00  0.00    +0.000 A 
ATOM     32  C   UNL     1      -5.304  13.132  23.758  0.00  0.00    +0.000 A 
ATOM     33  C   UNL     1      -4.214  14.006  23.688  0.00  0.00    +0.000 A 
ATOM     34  C   UNL     1      -4.454  15.385  23.724  0.00  0.00    +0.000 A 
BRANCH  29  36
ATOM     35  C   UNL     1      -5.178  18.066  25.387  0.00  0.00    +0.000 C 
ATOM     36  S   UNL     1      -6.023  17.652  23.835  0.00  0.00    +0.000 S 
ENDBRANCH  29  36
ENDBRANCH  23  33
ENDBRANCH   1  26
TORSDOF 4
ENDMDL
MODEL 3
REMARK VINA RESULT:      -8.5      2.161      3.145
REMARK  Name = 
REMARK  5 active torsions:
REMARK  status: ('A' for Active; 'I' for Inactive)
REMARK    1  A    between atoms: C_1  and  S_2
REMARK    2  A    between atoms: S_2  and  C_3
REMARK    3  A    between atoms: C_7  and  N_8
REMARK    4  A    between atoms: N_11  and  C_12
REMARK    5  A    between atoms: C_15  and  C_16
REMARK                            x       y       z     vdW  Elec       q    Type
REMARK                         _______ _______ _______ _____ _____    ______ ____
ROOT
ATOM      1  C   UNL     1      -1.298  12.089  19.494  0.00  0.00    +0.000 A 
ATOM      2  C   UNL     1      -0.192  12.164  20.344  0.00  0.00    +0.000 A 
ATOM      3  C   UNL     1       0.828  11.212  20.274  0.00  0.00    +0.000 A 
ATOM      4  C   UNL     1       0.773  10.164  19.344  0.00  0.00    +0.000 A 
ATOM      5  C   UNL     1      -0.326  10.111  18.470  0.00  0.00    +0.000 A 
ATOM      6  C   UNL     1      -1.365  11.048  18.564  0.00  0.00    +0.000 A 
ENDROOT
BRANCH   4   7
ATOM      7  C   UNL     1       1.762   9.015  19.481  0.00  0.00    +0.000 C 
ATOM      8  C   UNL     1       1.356   8.214  20.727  0.00  0.00    +0.000 C 
ATOM      9  N   UNL     1       1.585   6.773  20.679  0.00  0.00    +0.000 NA
ATOM     10  C   UNL     1       2.303   6.254  19.753  0.00  0.00    +0.000 C 
ATOM     11  C   UNL     1       2.767   4.867  19.912  0.00  0.00    +0.000 A 
ATOM     12  C   UNL     1       2.119   3.963  20.757  0.00  0.00    +0.000 A 
ATOM     13  C   UNL     1       2.700   2.721  21.003  0.00  0.00    +0.000 A 
ATOM     14  C   UNL     1       3.939   2.411  20.439  0.00  0.00    +0.000 A 
ATOM     15  C   UNL     1       4.562   3.307  19.560  0.00  0.00    +0.000 A 
ATOM     16  C   UNL     1       3.943   4.519  19.261  0.00  0.00    +0.000 A 
ATOM     17  N   UNL     1       4.457   5.377  18.286  0.00  0.00    +0.000 N 
ATOM     18  C   UNL     1       3.800   6.509  17.853  0.00  0.00    +0.000 C 
ATOM     19  O   UNL     1       4.189   7.080  16.833  0.00  0.00    +0.000 OA
ATOM     20  N   UNL     1       2.744   6.941  18.639  0.00  0.00    +0.000 N 
ATOM     21  C   UNL     1       1.961   8.115  18.268  0.00  0.00    +0.000 C 
ATOM     22  H   UNL     1       5.263   5.101  17.740  0.00  0.00    +0.000 HD
ENDBRANCH   4   7
BRANCH   1  26
ATOM     23  N   UNL     1      -4.211  14.016  20.504  0.00  0.00    +0.000 N 
ATOM     24  C   UNL     1      -3.239  13.038  20.642  0.00  0.00    +0.000 C 
ATOM     25  O   UNL     1      -3.145  12.281  21.602  0.00  0.00    +0.000 OA
ATOM     26  N   UNL     1      -2.351  13.036  19.573  0.00  0.00    +0.000 N 
ATOM     27  H   UNL     1      -4.484  14.241  19.556  0.00  0.00    +0.000 HD
ATOM     28  H   UNL     1      -2.193  13.946  19.163  0.00  0.00    +0.000 HD
BRANCH  23  33
ATOM     29  C   UNL     1      -5.456  15.767  23.541  0.00  0.00    +0.000 A 
ATOM     30  C   UNL     1      -6.757  15.264  23.637  0.00  0.00    +0.000 A 
ATOM     31  C   UNL     1      -7.220  14.343  22.701  0.00  0.00    +0.000 A 
ATOM     32  C   UNL     1      -6.387  13.925  21.663  0.00  0.00    +0.000 A 
ATOM     33  C   UNL     1      -5.086  14.424  21.541  0.00  0.00    +0.000 A 
ATOM     34  C   UNL     1      -4.618  15.327  22.504  0.00  0.00    +0.000 A 
BRANCH  29  36
ATOM     35  C   UNL     1      -3.072  16.392  24.818  0.00  0.00    +0.000 C 
ATOM     36  S   UNL     1      -4.811  16.909  24.756  0.00  0.00    +0.000 S 
ENDBRANCH  29  36
ENDBRANCH  23  33
ENDBRANCH   1  26
TORSDOF 4
ENDMDL
MODEL 4
REMARK VINA RESULT:      -8.5      2.212      3.286
REMARK  Name = 
REMARK  5 active torsions:
REMARK  status: ('A' for Active; 'I' for Inactive)
REMARK    1  A    between atoms: C_1  and  S_2
REMARK    2  A    between atoms: S_2  and  C_3
REMARK    3  A    between atoms: C_7  and  N_8
REMARK    4  A    between atoms: N_11  and  C_12
REMARK    5  A    between atoms: C_15  and  C_16
REMARK                            x       y       z     vdW  Elec       q    Type
REMARK                         _______ _______ _______ _____ _____    ______ ____
ROOT
ATOM      1  C   UNL     1      -1.177  12.353  19.566  0.00  0.00    +0.000 A 
ATOM      2  C   UNL     1       0.148  12.547  19.966  0.00  0.00    +0.000 A 
ATOM      3  C   UNL     1       1.084  11.516  19.855  0.00  0.00    +0.000 A 
ATOM      4  C   UNL     1       0.722  10.267  19.333  0.00  0.00    +0.000 A 
ATOM      5  C   UNL     1      -0.604  10.086  18.904  0.00  0.00    +0.000 A 
ATOM      6  C   UNL     1      -1.550  11.111  19.046  0.00  0.00    +0.000 A 
ENDROOT
BRANCH   4   7
ATOM      7  C   UNL     1       1.697   9.106  19.477  0.00  0.00    +0.000 C 
ATOM      8  C   UNL     1       1.290   8.325  20.735  0.00  0.00    +0.000 C 
ATOM      9  N   UNL     1       1.499   6.881  20.702  0.00  0.00    +0.000 NA
ATOM     10  C   UNL     1       2.204   6.341  19.778  0.00  0.00    +0.000 C 
ATOM     11  C   UNL     1       2.651   4.951  19.950  0.00  0.00    +0.000 A 
ATOM     12  C   UNL     1       1.997   4.065  20.810  0.00  0.00    +0.000 A 
ATOM     13  C   UNL     1       2.564   2.818  21.066  0.00  0.00    +0.000 A 
ATOM     14  C   UNL     1       3.794   2.486  20.497  0.00  0.00    +0.000 A 
ATOM     15  C   UNL     1       4.423   3.364  19.603  0.00  0.00    +0.000 A 
ATOM     16  C   UNL     1       3.817   4.579  19.295  0.00  0.00    +0.000 A 
ATOM     17  N   UNL     1       4.336   5.420  18.305  0.00  0.00    +0.000 N 
ATOM     18  C   UNL     1       3.690   6.555  17.864  0.00  0.00    +0.000 C 
ATOM     19  O   UNL     1       4.079   7.108  16.834  0.00  0.00    +0.000 OA
ATOM     20  N   UNL     1       2.646   7.010  18.653  0.00  0.00    +0.000 N 
ATOM     21  C   UNL     1       1.875   8.189  18.274  0.00  0.00    +0.000 C 
ATOM     22  H   UNL     1       5.133   5.126  17.757  0.00  0.00    +0.000 HD
ENDBRANCH   4   7
BRANCH   1  26
ATOM     23  N   UNL     1      -3.791  14.577  20.767  0.00  0.00    +0.000 N 
ATOM     24  C   UNL     1      -2.880  13.537  20.864  0.00  0.00    +0.000 C 
ATOM     25  O   UNL     1      -2.715  12.848  21.865  0.00  0.00    +0.000 OA
ATOM     26  N   UNL     1      -2.142  13.385  19.696  0.00  0.00    +0.000 N 
ATOM     27  H   UNL     1      -4.169  14.752  19.845  0.00  0.00    +0.000 HD
ATOM     28  H   UNL     1      -1.975  14.247  19.196  0.00  0.00    +0.000 HD
BRANCH  23  33
ATOM     29  C   UNL     1      -6.363  14.985  23.424  0.00  0.00    +0.000 A 
ATOM     30  C   UNL     1      -5.943  16.171  24.035  0.00  0.00    +0.000 A 
ATOM     31  C   UNL     1      -4.814  16.837  23.566  0.00  0.00    +0.000 A 
ATOM     32  C   UNL     1      -4.097  16.319  22.488  0.00  0.00    +0.000 A 
ATOM     33  C   UNL     1      -4.492  15.129  21.868  0.00  0.00    +0.000 A 
ATOM     34  C   UNL     1      -5.645  14.481  22.327  0.00  0.00    +0.000 A 
BRANCH  29  36
ATOM     35  C   UNL     1      -7.304  12.405  23.825  0.00  0.00    +0.000 C 
ATOM     36  S   UNL     1      -7.838  14.134  23.965  0.00  0.00    +0.000 S 
ENDBRANCH  29  36
ENDBRANCH  23  33
ENDBRANCH   1  26
TORSDOF 4
ENDMDL
MODEL 5
REMARK VINA RESULT:      -8.5      1.609      2.333
REMARK  Name = 
REMARK  5 active torsions:
REMARK  status: ('A' for Active; 'I' for Inactive)
REMARK    1  A    between atoms: C_1  and  S_2
REMARK    2  A    between atoms: S_2  and  C_3
REMARK    3  A    between atoms: C_7  and  N_8
REMARK    4  A    between atoms: N_11  and  C_12
REMARK    5  A    between atoms: C_15  and  C_16
REMARK                            x       y       z     vdW  Elec       q    Type
REMARK                         _______ _______ _______ _____ _____    ______ ____
ROOT
ATOM      1  C   UNL     1       0.043  10.242  21.835  0.00  0.00    +0.000 A 
ATOM      2  C   UNL     1       0.620   9.037  22.242  0.00  0.00    +0.000 A 
ATOM      3  C   UNL     1       1.282   8.217  21.324  0.00  0.00    +0.000 A 
ATOM      4  C   UNL     1       1.392   8.587  19.976  0.00  0.00    +0.000 A 
ATOM      5  C   UNL     1       0.838   9.815  19.578  0.00  0.00    +0.000 A 
ATOM      6  C   UNL     1       0.145  10.621  20.493  0.00  0.00    +0.000 A 
ENDROOT
BRANCH   4   7
ATOM      7  C   UNL     1       1.883   7.551  18.974  0.00  0.00    +0.000 C 
ATOM      8  C   UNL     1       2.794   8.282  17.977  0.00  0.00    +0.000 C 
ATOM      9  N   UNL     1       3.919   7.521  17.444  0.00  0.00    +0.000 NA
ATOM     10  C   UNL     1       3.992   6.253  17.611  0.00  0.00    +0.000 C 
ATOM     11  C   UNL     1       4.954   5.486  16.805  0.00  0.00    +0.000 A 
ATOM     12  C   UNL     1       6.072   6.085  16.221  0.00  0.00    +0.000 A 
ATOM     13  C   UNL     1       6.852   5.353  15.328  0.00  0.00    +0.000 A 
ATOM     14  C   UNL     1       6.483   4.048  14.996  0.00  0.00    +0.000 A 
ATOM     15  C   UNL     1       5.384   3.441  15.617  0.00  0.00    +0.000 A 
ATOM     16  C   UNL     1       4.650   4.153  16.563  0.00  0.00    +0.000 A 
ATOM     17  N   UNL     1       3.637   3.542  17.308  0.00  0.00    +0.000 N 
ATOM     18  C   UNL     1       2.990   4.164  18.354  0.00  0.00    +0.000 C 
ATOM     19  O   UNL     1       2.288   3.493  19.113  0.00  0.00    +0.000 OA
ATOM     20  N   UNL     1       3.162   5.535  18.451  0.00  0.00    +0.000 N 
ATOM     21  C   UNL     1       2.543   6.296  19.531  0.00  0.00    +0.000 C 
ATOM     22  H   UNL     1       3.461   2.552  17.208  0.00  0.00    +0.000 HD
ENDBRANCH   4   7
BRANCH   1  26
ATOM     23  N   UNL     1      -2.150  12.702  23.372  0.00  0.00    +0.000 N 
ATOM     24  C   UNL     1      -1.624  11.965  22.322  0.00  0.00    +0.000 C 
ATOM     25  O   UNL     1      -1.988  12.060  21.154  0.00  0.00    +0.000 OA
ATOM     26  N   UNL     1      -0.652  11.071  22.753  0.00  0.00    +0.000 N 
ATOM     27  H   UNL     1      -1.518  12.896  24.138  0.00  0.00    +0.000 HD
ATOM     28  H   UNL     1      -0.803  10.711  23.685  0.00  0.00    +0.000 HD
BRANCH  23  33
ATOM     29  C   UNL     1      -5.739  13.670  23.527  0.00  0.00    +0.000 A 
ATOM     30  C   UNL     1      -5.684  15.004  23.110  0.00  0.00    +0.000 A 
ATOM     31  C   UNL     1      -4.462  15.581  22.774  0.00  0.00    +0.000 A 
ATOM     32  C   UNL     1      -3.290  14.829  22.857  0.00  0.00    +0.000 A 
ATOM     33  C   UNL     1      -3.320  13.496  23.281  0.00  0.00    +0.000 A 
ATOM     34  C   UNL     1      -4.556  12.915  23.590  0.00  0.00    +0.000 A 
BRANCH  29  36
ATOM     35  C   UNL     1      -7.770  12.247  22.282  0.00  0.00    +0.000 C 
ATOM     36  S   UNL     1      -7.296  12.882  23.914  0.00  0.00    +0.000 S 
ENDBRANCH  29  36
ENDBRANCH  23  33
ENDBRANCH   1  26
TORSDOF 4
ENDMDL
MODEL 6
REMARK VINA RESULT:      -8.4      1.150      1.544
REMARK  Name = 
REMARK  5 active torsions:
REMARK  status: ('A' for Active; 'I' for Inactive)
REMARK    1  A    between atoms: C_1  and  S_2
REMARK    2  A    between atoms: S_2  and  C_3
REMARK    3  A    between atoms: C_7  and  N_8
REMARK    4  A    between atoms: N_11  and  C_12
REMARK    5  A    between atoms: C_15  and  C_16
REMARK                            x       y       z     vdW  Elec       q    Type
REMARK                         _______ _______ _______ _____ _____    ______ ____
ROOT
ATOM      1  C   UNL     1      -0.546  11.642  22.435  0.00  0.00    +0.000 A 
ATOM      2  C   UNL     1      -0.600  10.324  22.895  0.00  0.00    +0.000 A 
ATOM      3  C   UNL     1      -0.014   9.288  22.162  0.00  0.00    +0.000 A 
ATOM      4  C   UNL     1       0.649   9.547  20.954  0.00  0.00    +0.000 A 
ATOM      5  C   UNL     1       0.728  10.878  20.511  0.00  0.00    +0.000 A 
ATOM      6  C   UNL     1       0.111  11.911  21.231  0.00  0.00    +0.000 A 
ENDROOT
BRANCH   4   7
ATOM      7  C   UNL     1       1.035   8.369  20.068  0.00  0.00    +0.000 C 
ATOM      8  C   UNL     1       1.629   8.949  18.776  0.00  0.00    +0.000 C 
ATOM      9  N   UNL     1       2.697   8.180  18.147  0.00  0.00    +0.000 NA
ATOM     10  C   UNL     1       2.948   6.980  18.519  0.00  0.00    +0.000 C 
ATOM     11  C   UNL     1       3.801   6.138  17.666  0.00  0.00    +0.000 A 
ATOM     12  C   UNL     1       4.697   6.688  16.746  0.00  0.00    +0.000 A 
ATOM     13  C   UNL     1       5.352   5.850  15.846  0.00  0.00    +0.000 A 
ATOM     14  C   UNL     1       5.074   4.482  15.845  0.00  0.00    +0.000 A 
ATOM     15  C   UNL     1       4.205   3.933  16.799  0.00  0.00    +0.000 A 
ATOM     16  C   UNL     1       3.608   4.766  17.743  0.00  0.00    +0.000 A 
ATOM     17  N   UNL     1       2.850   4.245  18.795  0.00  0.00    +0.000 N 
ATOM     18  C   UNL     1       2.368   5.015  19.832  0.00  0.00    +0.000 C 
ATOM     19  O   UNL     1       1.921   4.461  20.838  0.00  0.00    +0.000 OA
ATOM     20  N   UNL     1       2.399   6.387  19.640  0.00  0.00    +0.000 N 
ATOM     21  C   UNL     1       1.936   7.302  20.677  0.00  0.00    +0.000 C 
ATOM     22  H   UNL     1       2.770   3.244  18.917  0.00  0.00    +0.000 HD
ENDBRANCH   4   7
BRANCH   1  26
ATOM     23  N   UNL     1      -2.777  14.276  23.580  0.00  0.00    +0.000 N 
ATOM     24  C   UNL     1      -2.378  13.231  22.760  0.00  0.00    +0.000 C 
ATOM     25  O   UNL     1      -3.030  12.801  21.814  0.00  0.00    +0.000 OA
ATOM     26  N   UNL     1      -1.158  12.698  23.159  0.00  0.00    +0.000 N 
ATOM     27  H   UNL     1      -2.034  14.831  23.984  0.00  0.00    +0.000 HD
ATOM     28  H   UNL     1      -0.992  12.739  24.154  0.00  0.00    +0.000 HD
BRANCH  23  33
ATOM     29  C   UNL     1      -6.387  14.734  22.805  0.00  0.00    +0.000 A 
ATOM     30  C   UNL     1      -6.676  15.903  23.516  0.00  0.00    +0.000 A 
ATOM     31  C   UNL     1      -5.677  16.542  24.247  0.00  0.00    +0.000 A 
ATOM     32  C   UNL     1      -4.387  16.012  24.274  0.00  0.00    +0.000 A 
ATOM     33  C   UNL     1      -4.078  14.838  23.579  0.00  0.00    +0.000 A 
ATOM     34  C   UNL     1      -5.080  14.219  22.823  0.00  0.00    +0.000 A 
BRANCH  29  36
ATOM     35  C   UNL     1      -6.892  12.272  21.628  0.00  0.00    +0.000 C 
ATOM     36  S   UNL     1      -7.630  13.920  21.813  0.00  0.00    +0.000 S 
ENDBRANCH  29  36
ENDBRANCH  23  33
ENDBRANCH   1  26
TORSDOF 4
ENDMDL
MODEL 7
REMARK VINA RESULT:      -8.4      3.998     11.969
REMARK  Name = 
REMARK  5 active torsions:
REMARK  status: ('A' for Active; 'I' for Inactive)
REMARK    1  A    between atoms: C_1  and  S_2
REMARK    2  A    between atoms: S_2  and  C_3
REMARK    3  A    between atoms: C_7  and  N_8
REMARK    4  A    between atoms: N_11  and  C_12
REMARK    5  A    between atoms: C_15  and  C_16
REMARK                            x       y       z     vdW  Elec       q    Type
REMARK                         _______ _______ _______ _____ _____    ______ ____
ROOT
ATOM      1  C   UNL     1       1.038   8.818  21.314  0.00  0.00    +0.000 A 
ATOM      2  C   UNL     1       0.915   9.694  20.232  0.00  0.00    +0.000 A 
ATOM      3  C   UNL     1       0.115  10.836  20.327  0.00  0.00    +0.000 A 
ATOM      4  C   UNL     1      -0.575  11.136  21.509  0.00  0.00    +0.000 A 
ATOM      5  C   UNL     1      -0.423  10.270  22.605  0.00  0.00    +0.000 A 
ATOM      6  C   UNL     1       0.354   9.107  22.498  0.00  0.00    +0.000 A 
ENDROOT
BRANCH   4   7
ATOM      7  C   UNL     1      -1.631  12.233  21.478  0.00  0.00    +0.000 C 
ATOM      8  C   UNL     1      -2.305  12.175  20.100  0.00  0.00    +0.000 C 
ATOM      9  N   UNL     1      -3.722  12.520  20.053  0.00  0.00    +0.000 NA
ATOM     10  C   UNL     1      -4.297  13.071  21.057  0.00  0.00    +0.000 C 
ATOM     11  C   UNL     1      -5.620  13.684  20.866  0.00  0.00    +0.000 A 
ATOM     12  C   UNL     1      -6.461  13.314  19.813  0.00  0.00    +0.000 A 
ATOM     13  C   UNL     1      -7.623  14.045  19.578  0.00  0.00    +0.000 A 
ATOM     14  C   UNL     1      -7.912  15.160  20.367  0.00  0.00    +0.000 A 
ATOM     15  C   UNL     1      -7.085  15.499  21.446  0.00  0.00    +0.000 A 
ATOM     16  C   UNL     1      -5.962  14.722  21.721  0.00  0.00    +0.000 A 
ATOM     17  N   UNL     1      -5.191  14.938  22.867  0.00  0.00    +0.000 N 
ATOM     18  C   UNL     1      -4.166  14.103  23.256  0.00  0.00    +0.000 C 
ATOM     19  O   UNL     1      -3.694  14.214  24.389  0.00  0.00    +0.000 OA
ATOM     20  N   UNL     1      -3.718  13.202  22.304  0.00  0.00    +0.000 N 
ATOM     21  C   UNL     1      -2.652  12.254  22.609  0.00  0.00    +0.000 C 
ATOM     22  H   UNL     1      -5.475  15.632  23.546  0.00  0.00    +0.000 HD
ENDBRANCH   4   7
BRANCH   1  26
ATOM     23  N   UNL     1       2.893   5.925  20.126  0.00  0.00    +0.000 N 
ATOM     24  C   UNL     1       2.150   7.087  19.990  0.00  0.00    +0.000 C 
ATOM     25  O   UNL     1       1.835   7.590  18.916  0.00  0.00    +0.000 OA
ATOM     26  N   UNL     1       1.828   7.643  21.222  0.00  0.00    +0.000 N 
ATOM     27  H   UNL     1       2.705   5.372  20.953  0.00  0.00    +0.000 HD
ATOM     28  H   UNL     1       2.521   7.489  21.941  0.00  0.00    +0.000 HD
BRANCH  23  33
ATOM     29  C   UNL     1       5.674   4.855  17.899  0.00  0.00    +0.000 A 
ATOM     30  C   UNL     1       4.993   4.062  16.969  0.00  0.00    +0.000 A 
ATOM     31  C   UNL     1       3.616   3.886  17.075  0.00  0.00    +0.000 A 
ATOM     32  C   UNL     1       2.914   4.497  18.114  0.00  0.00    +0.000 A 
ATOM     33  C   UNL     1       3.575   5.285  19.062  0.00  0.00    +0.000 A 
ATOM     34  C   UNL     1       4.955   5.481  18.930  0.00  0.00    +0.000 A 
BRANCH  29  36
ATOM     35  C   UNL     1       7.480   6.960  17.809  0.00  0.00    +0.000 C 
ATOM     36  S   UNL     1       7.431   5.146  17.760  0.00  0.00    +0.000 S 
ENDBRANCH  29  36
ENDBRANCH  23  33
ENDBRANCH   1  26
TORSDOF 4
ENDMDL
MODEL 8
REMARK VINA RESULT:      -8.3      1.405      2.096
REMARK  Name = 
REMARK  5 active torsions:
REMARK  status: ('A' for Active; 'I' for Inactive)
REMARK    1  A    between atoms: C_1  and  S_2
REMARK    2  A    between atoms: S_2  and  C_3
REMARK    3  A    between atoms: C_7  and  N_8
REMARK    4  A    between atoms: N_11  and  C_12
REMARK    5  A    between atoms: C_15  and  C_16
REMARK                            x       y       z     vdW  Elec       q    Type
REMARK                         _______ _______ _______ _____ _____    ______ ____
ROOT
ATOM      1  C   UNL     1      -0.743  12.532  20.839  0.00  0.00    +0.000 A 
ATOM      2  C   UNL     1      -0.798  11.327  21.544  0.00  0.00    +0.000 A 
ATOM      3  C   UNL     1      -0.162  10.183  21.053  0.00  0.00    +0.000 A 
ATOM      4  C   UNL     1       0.554  10.218  19.849  0.00  0.00    +0.000 A 
ATOM      5  C   UNL     1       0.634  11.440  19.160  0.00  0.00    +0.000 A 
ATOM      6  C   UNL     1      -0.033  12.578  19.636  0.00  0.00    +0.000 A 
ENDROOT
BRANCH   4   7
ATOM      7  C   UNL     1       1.001   8.902  19.228  0.00  0.00    +0.000 C 
ATOM      8  C   UNL     1       1.660   9.236  17.882  0.00  0.00    +0.000 C 
ATOM      9  N   UNL     1       2.770   8.383  17.470  0.00  0.00    +0.000 NA
ATOM     10  C   UNL     1       3.011   7.281  18.078  0.00  0.00    +0.000 C 
ATOM     11  C   UNL     1       3.919   6.309  17.450  0.00  0.00    +0.000 A 
ATOM     12  C   UNL     1       4.860   6.691  16.490  0.00  0.00    +0.000 A 
ATOM     13  C   UNL     1       5.572   5.710  15.803  0.00  0.00    +0.000 A 
ATOM     14  C   UNL     1       5.308   4.361  16.051  0.00  0.00    +0.000 A 
ATOM     15  C   UNL     1       4.393   3.988  17.044  0.00  0.00    +0.000 A 
ATOM     16  C   UNL     1       3.736   4.973  17.778  0.00  0.00    +0.000 A 
ATOM     17  N   UNL     1       2.924   4.648  18.869  0.00  0.00    +0.000 N 
ATOM     18  C   UNL     1       2.378   5.592  19.711  0.00  0.00    +0.000 C 
ATOM     19  O   UNL     1       1.881   5.232  20.779  0.00  0.00    +0.000 OA
ATOM     20  N   UNL     1       2.406   6.902  19.261  0.00  0.00    +0.000 N 
ATOM     21  C   UNL     1       1.877   7.989  20.077  0.00  0.00    +0.000 C 
ATOM     22  H   UNL     1       2.848   3.688  19.176  0.00  0.00    +0.000 HD
ENDBRANCH   4   7
BRANCH   1  26
ATOM     23  N   UNL     1      -3.198  15.104  21.599  0.00  0.00    +0.000 N 
ATOM     24  C   UNL     1      -2.761  13.894  21.085  0.00  0.00    +0.000 C 
ATOM     25  O   UNL     1      -3.481  13.076  20.520  0.00  0.00    +0.000 OA
ATOM     26  N   UNL     1      -1.406  13.692  21.316  0.00  0.00    +0.000 N 
ATOM     27  H   UNL     1      -2.520  15.854  21.606  0.00  0.00    +0.000 HD
ATOM     28  H   UNL     1      -1.064  14.107  22.171  0.00  0.00    +0.000 HD
BRANCH  23  33
ATOM     29  C   UNL     1      -6.714  15.067  22.813  0.00  0.00    +0.000 A 
ATOM     30  C   UNL     1      -7.275  16.109  22.067  0.00  0.00    +0.000 A 
ATOM     31  C   UNL     1      -6.493  16.819  21.161  0.00  0.00    +0.000 A 
ATOM     32  C   UNL     1      -5.146  16.495  20.999  0.00  0.00    +0.000 A 
ATOM     33  C   UNL     1      -4.561  15.464  21.742  0.00  0.00    +0.000 A 
ATOM     34  C   UNL     1      -5.362  14.736  22.630  0.00  0.00    +0.000 A 
BRANCH  29  36
ATOM     35  C   UNL     1      -6.653  12.632  24.144  0.00  0.00    +0.000 C 
ATOM     36  S   UNL     1      -7.703  14.100  23.945  0.00  0.00    +0.000 S 
ENDBRANCH  29  36
ENDBRANCH  23  33
ENDBRANCH   1  26
TORSDOF 4
ENDMDL
MODEL 9
REMARK VINA RESULT:      -8.3      1.248      1.448
REMARK  Name = 
REMARK  5 active torsions:
REMARK  status: ('A' for Active; 'I' for Inactive)
REMARK    1  A    between atoms: C_1  and  S_2
REMARK    2  A    between atoms: S_2  and  C_3
REMARK    3  A    between atoms: C_7  and  N_8
REMARK    4  A    between atoms: N_11  and  C_12
REMARK    5  A    between atoms: C_15  and  C_16
REMARK                            x       y       z     vdW  Elec       q    Type
REMARK                         _______ _______ _______ _____ _____    ______ ____
ROOT
ATOM      1  C   UNL     1      -0.787  12.329  21.241  0.00  0.00    +0.000 A 
ATOM      2  C   UNL     1      -0.652  11.142  21.966  0.00  0.00    +0.000 A 
ATOM      3  C   UNL     1      -0.008  10.035  21.408  0.00  0.00    +0.000 A 
ATOM      4  C   UNL     1       0.527  10.090  20.113  0.00  0.00    +0.000 A 
ATOM      5  C   UNL     1       0.417  11.295  19.400  0.00  0.00    +0.000 A 
ATOM      6  C   UNL     1      -0.259  12.395  19.949  0.00  0.00    +0.000 A 
ENDROOT
BRANCH   4   7
ATOM      7  C   UNL     1       0.979   8.793  19.456  0.00  0.00    +0.000 C 
ATOM      8  C   UNL     1       1.585   9.162  18.094  0.00  0.00    +0.000 C 
ATOM      9  N   UNL     1       2.696   8.339  17.630  0.00  0.00    +0.000 NA
ATOM     10  C   UNL     1       2.981   7.233  18.212  0.00  0.00    +0.000 C 
ATOM     11  C   UNL     1       3.887   6.291  17.537  0.00  0.00    +0.000 A 
ATOM     12  C   UNL     1       4.786   6.707  16.551  0.00  0.00    +0.000 A 
ATOM     13  C   UNL     1       5.494   5.752  15.825  0.00  0.00    +0.000 A 
ATOM     14  C   UNL     1       5.266   4.395  16.059  0.00  0.00    +0.000 A 
ATOM     15  C   UNL     1       4.395   3.987  17.078  0.00  0.00    +0.000 A 
ATOM     16  C   UNL     1       3.743   4.946  17.849  0.00  0.00    +0.000 A 
ATOM     17  N   UNL     1       2.977   4.587  18.962  0.00  0.00    +0.000 N 
ATOM     18  C   UNL     1       2.440   5.506  19.838  0.00  0.00    +0.000 C 
ATOM     19  O   UNL     1       1.988   5.119  20.917  0.00  0.00    +0.000 OA
ATOM     20  N   UNL     1       2.426   6.823  19.408  0.00  0.00    +0.000 N 
ATOM     21  C   UNL     1       1.903   7.886  20.260  0.00  0.00    +0.000 C 
ATOM     22  H   UNL     1       2.932   3.620  19.256  0.00  0.00    +0.000 HD
ENDBRANCH   4   7
BRANCH   1  26
ATOM     23  N   UNL     1      -3.275  14.807  22.185  0.00  0.00    +0.000 N 
ATOM     24  C   UNL     1      -2.826  13.632  21.604  0.00  0.00    +0.000 C 
ATOM     25  O   UNL     1      -3.544  12.825  21.021  0.00  0.00    +0.000 OA
ATOM     26  N   UNL     1      -1.461  13.451  21.789  0.00  0.00    +0.000 N 
ATOM     27  H   UNL     1      -2.613  15.572  22.209  0.00  0.00    +0.000 HD
ATOM     28  H   UNL     1      -1.105  13.834  22.653  0.00  0.00    +0.000 HD
BRANCH  23  33
ATOM     29  C   UNL     1      -6.732  15.975  21.457  0.00  0.00    +0.000 A 
ATOM     30  C   UNL     1      -7.349  15.805  22.700  0.00  0.00    +0.000 A 
ATOM     31  C   UNL     1      -6.622  15.309  23.779  0.00  0.00    +0.000 A 
ATOM     32  C   UNL     1      -5.276  14.977  23.619  0.00  0.00    +0.000 A 
ATOM     33  C   UNL     1      -4.641  15.129  22.382  0.00  0.00    +0.000 A 
ATOM     34  C   UNL     1      -5.372  15.655  21.310  0.00  0.00    +0.000 A 
BRANCH  29  36
ATOM     35  C   UNL     1      -6.251  17.014  18.928  0.00  0.00    +0.000 C 
ATOM     36  S   UNL     1      -7.620  16.659  20.066  0.00  0.00    +0.000 S 
ENDBRANCH  29  36
ENDBRANCH  23  33
ENDBRANCH   1  26
TORSDOF 4
ENDMDL
