MODEL 1
REMARK VINA RESULT:      -7.2      0.000      0.000
REMARK  Name = 
REMARK  5 active torsions:
REMARK  status: ('A' for Active; 'I' for Inactive)
REMARK    1  A    between atoms: C_3  and  C_4
REMARK    2  A    between atoms: C_4  and  C_5
REMARK    3  A    between atoms: C_5  and  C_6
REMARK    4  A    between atoms: C_6  and  C_7
REMARK    5  A    between atoms: C_7  and  C_8
REMARK                            x       y       z     vdW  Elec       q    Type
REMARK                         _______ _______ _______ _____ _____    ______ ____
ROOT
ATOM      1  C   UNL     1       4.080   6.121  17.470  0.00  0.00    +0.000 C 
ENDROOT
BRANCH   1   4
ATOM      2  C   UNL     1       1.833   5.636  20.541  0.00  0.00    +0.000 A 
ATOM      3  C   UNL     1       2.762   6.228  19.593  0.00  0.00    +0.000 A 
ATOM      4  C   UNL     1       3.129   5.541  18.487  0.00  0.00    +0.000 A 
ATOM      5  N   UNL     1       2.596   4.248  18.315  0.00  0.00    +0.000 N 
ATOM      6  C   UNL     1       2.787   3.316  17.321  0.00  0.00    +0.000 A 
ATOM      7  N   UNL     1       2.098   2.214  17.519  0.00  0.00    +0.000 NA
ATOM      8  C   UNL     1       1.426   2.418  18.697  0.00  0.00    +0.000 A 
ATOM      9  C   UNL     1       1.710   3.661  19.212  0.00  0.00    +0.000 A 
ATOM     10  C   UNL     1       1.326   4.402  20.361  0.00  0.00    +0.000 A 
ENDBRANCH   1   4
BRANCH   1  11
ATOM     11  C   UNL     1       5.499   6.230  18.036  0.00  0.00    +0.000 C 
BRANCH  11  12
ATOM     12  C   UNL     1       6.095   4.861  18.371  0.00  0.00    +0.000 C 
BRANCH  12  13
ATOM     13  C   UNL     1       7.344   4.596  17.527  0.00  0.00    +0.000 C 
BRANCH  13  14
ATOM     14  C   UNL     1       7.041   4.579  16.076  0.00  0.00    +0.000 A 
ATOM     15  N   UNL     1       6.227   3.777  15.422  0.00  0.00    +0.000 NA
ATOM     16  N   UNL     1       6.317   4.140  14.099  0.00  0.00    +0.000 NA
ATOM     17  N   UNL     1       7.170   5.141  13.937  0.00  0.00    +0.000 NA
ATOM     18  N   UNL     1       7.623   5.414  15.166  0.00  0.00    +0.000 N 
ATOM     19  H   UNL     1       8.307   6.150  15.295  0.00  0.00    +0.000 HD
ENDBRANCH  13  14
ENDBRANCH  12  13
ENDBRANCH  11  12
ENDBRANCH   1  11
TORSDOF 5
ENDMDL
MODEL 2
REMARK VINA RESULT:      -7.0      2.342      6.359
REMARK  Name = 
REMARK  5 active torsions:
REMARK  status: ('A' for Active; 'I' for Inactive)
REMARK    1  A    between atoms: C_3  and  C_4
REMARK    2  A    between atoms: C_4  and  C_5
REMARK    3  A    between atoms: C_5  and  C_6
REMARK    4  A    between atoms: C_6  and  C_7
REMARK    5  A    between atoms: C_7  and  C_8
REMARK                            x       y       z     vdW  Elec       q    Type
REMARK                         _______ _______ _______ _____ _____    ______ ____
ROOT
ATOM      1  C   UNL     1       3.594   3.524  16.975  0.00  0.00    +0.000 C 
ENDROOT
BRANCH   1   4
ATOM      2  C   UNL     1       6.665   4.773  15.045  0.00  0.00    +0.000 A 
ATOM      3  C   UNL     1       5.369   4.185  15.342  0.00  0.00    +0.000 A 
ATOM      4  C   UNL     1       4.936   4.115  16.621  0.00  0.00    +0.000 A 
ATOM      5  N   UNL     1       5.790   4.608  17.628  0.00  0.00    +0.000 N 
ATOM      6  C   UNL     1       5.640   4.662  18.995  0.00  0.00    +0.000 A 
ATOM      7  N   UNL     1       6.673   5.209  19.597  0.00  0.00    +0.000 NA
ATOM      8  C   UNL     1       7.549   5.526  18.591  0.00  0.00    +0.000 A 
ATOM      9  C   UNL     1       7.035   5.170  17.366  0.00  0.00    +0.000 A 
ATOM     10  C   UNL     1       7.468   5.247  16.016  0.00  0.00    +0.000 A 
ENDBRANCH   1   4
BRANCH   1  11
ATOM     11  C   UNL     1       2.754   4.508  17.795  0.00  0.00    +0.000 C 
BRANCH  11  12
ATOM     12  C   UNL     1       1.303   4.045  17.946  0.00  0.00    +0.000 C 
BRANCH  12  13
ATOM     13  C   UNL     1       1.245   2.658  18.591  0.00  0.00    +0.000 C 
BRANCH  13  14
ATOM     14  C   UNL     1       1.678   2.685  20.008  0.00  0.00    +0.000 A 
ATOM     15  N   UNL     1       2.901   2.631  20.489  0.00  0.00    +0.000 NA
ATOM     16  N   UNL     1       2.774   2.657  21.857  0.00  0.00    +0.000 NA
ATOM     17  N   UNL     1       1.500   2.720  22.216  0.00  0.00    +0.000 NA
ATOM     18  N   UNL     1       0.816   2.736  21.066  0.00  0.00    +0.000 N 
ATOM     19  H   UNL     1      -0.196   2.773  21.087  0.00  0.00    +0.000 HD
ENDBRANCH  13  14
ENDBRANCH  12  13
ENDBRANCH  11  12
ENDBRANCH   1  11
TORSDOF 5
ENDMDL
MODEL 3
REMARK VINA RESULT:      -6.9      1.808      2.365
REMARK  Name = 
REMARK  5 active torsions:
REMARK  status: ('A' for Active; 'I' for Inactive)
REMARK    1  A    between atoms: C_3  and  C_4
REMARK    2  A    between atoms: C_4  and  C_5
REMARK    3  A    between atoms: C_5  and  C_6
REMARK    4  A    between atoms: C_6  and  C_7
REMARK    5  A    between atoms: C_7  and  C_8
REMARK                            x       y       z     vdW  Elec       q    Type
REMARK                         _______ _______ _______ _____ _____    ______ ____
ROOT
ATOM      1  C   UNL     1       5.147   3.946  18.809  0.00  0.00    +0.000 C 
ENDROOT
BRANCH   1   4
ATOM      2  C   UNL     1       1.461   3.940  17.745  0.00  0.00    +0.000 A 
ATOM      3  C   UNL     1       2.904   4.119  17.717  0.00  0.00    +0.000 A 
ATOM      4  C   UNL     1       3.646   3.790  18.798  0.00  0.00    +0.000 A 
ATOM      5  N   UNL     1       2.969   3.298  19.931  0.00  0.00    +0.000 N 
ATOM      6  C   UNL     1       3.436   2.899  21.163  0.00  0.00    +0.000 A 
ATOM      7  N   UNL     1       2.475   2.492  21.963  0.00  0.00    +0.000 NA
ATOM      8  C   UNL     1       1.321   2.631  21.236  0.00  0.00    +0.000 A 
ATOM      9  C   UNL     1       1.590   3.124  19.981  0.00  0.00    +0.000 A 
ATOM     10  C   UNL     1       0.827   3.463  18.832  0.00  0.00    +0.000 A 
ENDBRANCH   1   4
BRANCH   1  11
ATOM     11  C   UNL     1       5.554   5.361  19.234  0.00  0.00    +0.000 C 
BRANCH  11  12
ATOM     12  C   UNL     1       7.074   5.538  19.275  0.00  0.00    +0.000 C 
BRANCH  12  13
ATOM     13  C   UNL     1       7.546   6.412  18.110  0.00  0.00    +0.000 C 
BRANCH  13  14
ATOM     14  C   UNL     1       7.162   5.843  16.797  0.00  0.00    +0.000 A 
ATOM     15  N   UNL     1       7.610   4.748  16.219  0.00  0.00    +0.000 NA
ATOM     16  N   UNL     1       6.973   4.670  15.005  0.00  0.00    +0.000 NA
ATOM     17  N   UNL     1       6.151   5.696  14.831  0.00  0.00    +0.000 NA
ATOM     18  N   UNL     1       6.269   6.428  15.945  0.00  0.00    +0.000 N 
ATOM     19  H   UNL     1       5.735   7.283  16.041  0.00  0.00    +0.000 HD
ENDBRANCH  13  14
ENDBRANCH  12  13
ENDBRANCH  11  12
ENDBRANCH   1  11
TORSDOF 5
ENDMDL
MODEL 4
REMARK VINA RESULT:      -6.8      1.676      2.373
REMARK  Name = 
REMARK  5 active torsions:
REMARK  status: ('A' for Active; 'I' for Inactive)
REMARK    1  A    between atoms: C_3  and  C_4
REMARK    2  A    between atoms: C_4  and  C_5
REMARK    3  A    between atoms: C_5  and  C_6
REMARK    4  A    between atoms: C_6  and  C_7
REMARK    5  A    between atoms: C_7  and  C_8
REMARK                            x       y       z     vdW  Elec       q    Type
REMARK                         _______ _______ _______ _____ _____    ______ ____
ROOT
ATOM      1  C   UNL     1       4.594   5.541  19.404  0.00  0.00    +0.000 C 
ENDROOT
BRANCH   1   4
ATOM      2  C   UNL     1       1.696   3.897  17.505  0.00  0.00    +0.000 A 
ATOM      3  C   UNL     1       2.883   4.684  17.795  0.00  0.00    +0.000 A 
ATOM      4  C   UNL     1       3.359   4.748  19.059  0.00  0.00    +0.000 A 
ATOM      5  N   UNL     1       2.652   4.050  20.059  0.00  0.00    +0.000 N 
ATOM      6  C   UNL     1       2.875   3.938  21.412  0.00  0.00    +0.000 A 
ATOM      7  N   UNL     1       1.982   3.182  22.013  0.00  0.00    +0.000 NA
ATOM      8  C   UNL     1       1.127   2.780  21.019  0.00  0.00    +0.000 A 
ATOM      9  C   UNL     1       1.512   3.297  19.804  0.00  0.00    +0.000 A 
ATOM     10  C   UNL     1       1.034   3.229  18.469  0.00  0.00    +0.000 A 
ENDBRANCH   1   4
BRANCH   1  11
ATOM     11  C   UNL     1       5.867   4.782  19.017  0.00  0.00    +0.000 C 
BRANCH  11  12
ATOM     12  C   UNL     1       7.132   5.608  19.264  0.00  0.00    +0.000 C 
BRANCH  12  13
ATOM     13  C   UNL     1       7.345   6.618  18.134  0.00  0.00    +0.000 C 
BRANCH  13  14
ATOM     14  C   UNL     1       7.038   6.038  16.804  0.00  0.00    +0.000 A 
ATOM     15  N   UNL     1       6.118   6.415  15.942  0.00  0.00    +0.000 NA
ATOM     16  N   UNL     1       6.212   5.546  14.882  0.00  0.00    +0.000 NA
ATOM     17  N   UNL     1       7.165   4.649  15.084  0.00  0.00    +0.000 NA
ATOM     18  N   UNL     1       7.680   4.952  16.281  0.00  0.00    +0.000 N 
ATOM     19  H   UNL     1       8.430   4.388  16.661  0.00  0.00    +0.000 HD
ENDBRANCH  13  14
ENDBRANCH  12  13
ENDBRANCH  11  12
ENDBRANCH   1  11
TORSDOF 5
ENDMDL
MODEL 5
REMARK VINA RESULT:      -6.7      2.357      6.298
REMARK  Name = 
REMARK  5 active torsions:
REMARK  status: ('A' for Active; 'I' for Inactive)
REMARK    1  A    between atoms: C_3  and  C_4
REMARK    2  A    between atoms: C_4  and  C_5
REMARK    3  A    between atoms: C_5  and  C_6
REMARK    4  A    between atoms: C_6  and  C_7
REMARK    5  A    between atoms: C_7  and  C_8
REMARK                            x       y       z     vdW  Elec       q    Type
REMARK                         _______ _______ _______ _____ _____    ______ ____
ROOT
ATOM      1  C   UNL     1       3.384   3.783  17.913  0.00  0.00    +0.000 C 
ENDROOT
BRANCH   1   4
ATOM      2  C   UNL     1       6.120   4.520  15.327  0.00  0.00    +0.000 A 
ATOM      3  C   UNL     1       4.862   4.097  15.920  0.00  0.00    +0.000 A 
ATOM      4  C   UNL     1       4.677   4.198  17.256  0.00  0.00    +0.000 A 
ATOM      5  N   UNL     1       5.743   4.701  18.027  0.00  0.00    +0.000 N 
ATOM      6  C   UNL     1       5.862   4.905  19.383  0.00  0.00    +0.000 A 
ATOM      7  N   UNL     1       7.031   5.404  19.721  0.00  0.00    +0.000 NA
ATOM      8  C   UNL     1       7.721   5.529  18.542  0.00  0.00    +0.000 A 
ATOM      9  C   UNL     1       6.956   5.107  17.481  0.00  0.00    +0.000 A 
ATOM     10  C   UNL     1       7.128   5.006  16.075  0.00  0.00    +0.000 A 
ENDBRANCH   1   4
BRANCH   1  11
ATOM     11  C   UNL     1       2.347   4.910  17.858  0.00  0.00    +0.000 C 
BRANCH  11  12
ATOM     12  C   UNL     1       2.549   5.937  18.975  0.00  0.00    +0.000 C 
BRANCH  12  13
ATOM     13  C   UNL     1       1.484   5.768  20.061  0.00  0.00    +0.000 C 
BRANCH  13  14
ATOM     14  C   UNL     1       1.661   4.507  20.821  0.00  0.00    +0.000 A 
ATOM     15  N   UNL     1       2.621   4.189  21.663  0.00  0.00    +0.000 NA
ATOM     16  N   UNL     1       2.356   2.906  22.077  0.00  0.00    +0.000 NA
ATOM     17  N   UNL     1       1.258   2.438  21.501  0.00  0.00    +0.000 NA
ATOM     18  N   UNL     1       0.825   3.432  20.718  0.00  0.00    +0.000 N 
ATOM     19  H   UNL     1      -0.010   3.302  20.159  0.00  0.00    +0.000 HD
ENDBRANCH  13  14
ENDBRANCH  12  13
ENDBRANCH  11  12
ENDBRANCH   1  11
TORSDOF 5
ENDMDL
MODEL 6
REMARK VINA RESULT:      -6.7      1.962      3.275
REMARK  Name = 
REMARK  5 active torsions:
REMARK  status: ('A' for Active; 'I' for Inactive)
REMARK    1  A    between atoms: C_3  and  C_4
REMARK    2  A    between atoms: C_4  and  C_5
REMARK    3  A    between atoms: C_5  and  C_6
REMARK    4  A    between atoms: C_6  and  C_7
REMARK    5  A    between atoms: C_7  and  C_8
REMARK                            x       y       z     vdW  Elec       q    Type
REMARK                         _______ _______ _______ _____ _____    ______ ____
ROOT
ATOM      1  C   UNL     1       4.290   4.906  17.030  0.00  0.00    +0.000 C 
ENDROOT
BRANCH   1   4
ATOM      2  C   UNL     1       2.081   2.005  18.222  0.00  0.00    +0.000 A 
ATOM      3  C   UNL     1       3.030   2.787  17.446  0.00  0.00    +0.000 A 
ATOM      4  C   UNL     1       3.303   4.063  17.799  0.00  0.00    +0.000 A 
ATOM      5  N   UNL     1       2.624   4.592  18.915  0.00  0.00    +0.000 N 
ATOM      6  C   UNL     1       2.676   5.837  19.499  0.00  0.00    +0.000 A 
ATOM      7  N   UNL     1       1.884   5.941  20.543  0.00  0.00    +0.000 NA
ATOM      8  C   UNL     1       1.275   4.718  20.654  0.00  0.00    +0.000 A 
ATOM      9  C   UNL     1       1.709   3.864  19.668  0.00  0.00    +0.000 A 
ATOM     10  C   UNL     1       1.444   2.521  19.290  0.00  0.00    +0.000 A 
ENDBRANCH   1   4
BRANCH   1  11
ATOM     11  C   UNL     1       5.085   4.059  16.033  0.00  0.00    +0.000 C 
BRANCH  11  12
ATOM     12  C   UNL     1       6.579   4.396  16.048  0.00  0.00    +0.000 C 
BRANCH  12  13
ATOM     13  C   UNL     1       7.066   4.618  17.482  0.00  0.00    +0.000 C 
BRANCH  13  14
ATOM     14  C   UNL     1       7.531   6.008  17.702  0.00  0.00    +0.000 A 
ATOM     15  N   UNL     1       8.020   6.541  18.802  0.00  0.00    +0.000 NA
ATOM     16  N   UNL     1       8.270   7.859  18.507  0.00  0.00    +0.000 NA
ATOM     17  N   UNL     1       7.940   8.139  17.255  0.00  0.00    +0.000 NA
ATOM     18  N   UNL     1       7.478   6.988  16.752  0.00  0.00    +0.000 N 
ATOM     19  H   UNL     1       7.150   6.956  15.794  0.00  0.00    +0.000 HD
ENDBRANCH  13  14
ENDBRANCH  12  13
ENDBRANCH  11  12
ENDBRANCH   1  11
TORSDOF 5
ENDMDL
MODEL 7
REMARK VINA RESULT:      -6.7      1.527      2.406
REMARK  Name = 
REMARK  5 active torsions:
REMARK  status: ('A' for Active; 'I' for Inactive)
REMARK    1  A    between atoms: C_3  and  C_4
REMARK    2  A    between atoms: C_4  and  C_5
REMARK    3  A    between atoms: C_5  and  C_6
REMARK    4  A    between atoms: C_6  and  C_7
REMARK    5  A    between atoms: C_7  and  C_8
REMARK                            x       y       z     vdW  Elec       q    Type
REMARK                         _______ _______ _______ _____ _____    ______ ____
ROOT
ATOM      1  C   UNL     1       3.099   6.269  19.152  0.00  0.00    +0.000 C 
ENDROOT
BRANCH   1   4
ATOM      2  C   UNL     1       1.130   3.309  17.710  0.00  0.00    +0.000 A 
ATOM      3  C   UNL     1       1.837   4.576  17.813  0.00  0.00    +0.000 A 
ATOM      4  C   UNL     1       2.348   4.969  19.001  0.00  0.00    +0.000 A 
ATOM      5  N   UNL     1       2.149   4.123  20.110  0.00  0.00    +0.000 N 
ATOM      6  C   UNL     1       2.528   4.253  21.427  0.00  0.00    +0.000 A 
ATOM      7  N   UNL     1       2.154   3.232  22.167  0.00  0.00    +0.000 NA
ATOM      8  C   UNL     1       1.492   2.392  21.308  0.00  0.00    +0.000 A 
ATOM      9  C   UNL     1       1.472   2.911  20.035  0.00  0.00    +0.000 A 
ATOM     10  C   UNL     1       0.953   2.507  18.776  0.00  0.00    +0.000 A 
ENDBRANCH   1   4
BRANCH   1  11
ATOM     11  C   UNL     1       4.387   6.264  18.323  0.00  0.00    +0.000 C 
BRANCH  11  12
ATOM     12  C   UNL     1       5.427   5.286  18.874  0.00  0.00    +0.000 C 
BRANCH  12  13
ATOM     13  C   UNL     1       5.665   4.141  17.887  0.00  0.00    +0.000 C 
BRANCH  13  14
ATOM     14  C   UNL     1       6.305   4.610  16.635  0.00  0.00    +0.000 A 
ATOM     15  N   UNL     1       7.534   5.048  16.460  0.00  0.00    +0.000 NA
ATOM     16  N   UNL     1       7.631   5.391  15.133  0.00  0.00    +0.000 NA
ATOM     17  N   UNL     1       6.487   5.174  14.500  0.00  0.00    +0.000 NA
ATOM     18  N   UNL     1       5.660   4.689  15.433  0.00  0.00    +0.000 N 
ATOM     19  H   UNL     1       4.707   4.454  15.184  0.00  0.00    +0.000 HD
ENDBRANCH  13  14
ENDBRANCH  12  13
ENDBRANCH  11  12
ENDBRANCH   1  11
TORSDOF 5
ENDMDL
MODEL 8
REMARK VINA RESULT:      -6.7      2.324      6.315
REMARK  Name = 
REMARK  5 active torsions:
REMARK  status: ('A' for Active; 'I' for Inactive)
REMARK    1  A    between atoms: C_3  and  C_4
REMARK    2  A    between atoms: C_4  and  C_5
REMARK    3  A    between atoms: C_5  and  C_6
REMARK    4  A    between atoms: C_6  and  C_7
REMARK    5  A    between atoms: C_7  and  C_8
REMARK                            x       y       z     vdW  Elec       q    Type
REMARK                         _______ _______ _______ _____ _____    ______ ____
ROOT
ATOM      1  C   UNL     1       3.297   4.508  17.434  0.00  0.00    +0.000 C 
ENDROOT
BRANCH   1   4
ATOM      2  C   UNL     1       6.478   4.341  15.297  0.00  0.00    +0.000 A 
ATOM      3  C   UNL     1       5.082   4.277  15.699  0.00  0.00    +0.000 A 
ATOM      4  C   UNL     1       4.733   4.550  16.976  0.00  0.00    +0.000 A 
ATOM      5  N   UNL     1       5.765   4.870  17.881  0.00  0.00    +0.000 N 
ATOM      6  C   UNL     1       5.730   5.175  19.222  0.00  0.00    +0.000 A 
ATOM      7  N   UNL     1       6.922   5.424  19.718  0.00  0.00    +0.000 NA
ATOM      8  C   UNL     1       7.787   5.271  18.664  0.00  0.00    +0.000 A 
ATOM      9  C   UNL     1       7.106   4.932  17.519  0.00  0.00    +0.000 A 
ATOM     10  C   UNL     1       7.453   4.655  16.170  0.00  0.00    +0.000 A 
ENDBRANCH   1   4
BRANCH   1  11
ATOM     11  C   UNL     1       2.562   3.299  16.847  0.00  0.00    +0.000 C 
BRANCH  11  12
ATOM     12  C   UNL     1       2.277   2.226  17.901  0.00  0.00    +0.000 C 
BRANCH  12  13
ATOM     13  C   UNL     1       1.110   2.648  18.796  0.00  0.00    +0.000 C 
BRANCH  13  14
ATOM     14  C   UNL     1       1.570   3.122  20.124  0.00  0.00    +0.000 A 
ATOM     15  N   UNL     1       1.851   4.351  20.500  0.00  0.00    +0.000 NA
ATOM     16  N   UNL     1       2.263   4.264  21.808  0.00  0.00    +0.000 NA
ATOM     17  N   UNL     1       2.242   3.009  22.232  0.00  0.00    +0.000 NA
ATOM     18  N   UNL     1       1.812   2.296  21.184  0.00  0.00    +0.000 N 
ATOM     19  H   UNL     1       1.722   1.290  21.266  0.00  0.00    +0.000 HD
ENDBRANCH  13  14
ENDBRANCH  12  13
ENDBRANCH  11  12
ENDBRANCH   1  11
TORSDOF 5
ENDMDL
MODEL 9
REMARK VINA RESULT:      -6.7      1.693      2.851
REMARK  Name = 
REMARK  5 active torsions:
REMARK  status: ('A' for Active; 'I' for Inactive)
REMARK    1  A    between atoms: C_3  and  C_4
REMARK    2  A    between atoms: C_4  and  C_5
REMARK    3  A    between atoms: C_5  and  C_6
REMARK    4  A    between atoms: C_6  and  C_7
REMARK    5  A    between atoms: C_7  and  C_8
REMARK                            x       y       z     vdW  Elec       q    Type
REMARK                         _______ _______ _______ _____ _____    ______ ____
ROOT
ATOM      1  C   UNL     1       2.043   5.800  18.173  0.00  0.00    +0.000 C 
ENDROOT
BRANCH   1   4
ATOM      2  C   UNL     1       3.651   2.339  17.784  0.00  0.00    +0.000 A 
ATOM      3  C   UNL     1       3.131   3.661  17.472  0.00  0.00    +0.000 A 
ATOM      4  C   UNL     1       2.583   4.419  18.449  0.00  0.00    +0.000 A 
ATOM      5  N   UNL     1       2.523   3.871  19.745  0.00  0.00    +0.000 N 
ATOM      6  C   UNL     1       2.021   4.381  20.921  0.00  0.00    +0.000 A 
ATOM      7  N   UNL     1       2.158   3.553  21.933  0.00  0.00    +0.000 NA
ATOM      8  C   UNL     1       2.770   2.444  21.408  0.00  0.00    +0.000 A 
ATOM      9  C   UNL     1       3.009   2.608  20.064  0.00  0.00    +0.000 A 
ATOM     10  C   UNL     1       3.594   1.831  19.029  0.00  0.00    +0.000 A 
ENDBRANCH   1   4
BRANCH   1  11
ATOM     11  C   UNL     1       3.136   6.863  18.321  0.00  0.00    +0.000 C 
BRANCH  11  12
ATOM     12  C   UNL     1       4.097   6.874  17.129  0.00  0.00    +0.000 C 
BRANCH  12  13
ATOM     13  C   UNL     1       5.550   6.898  17.609  0.00  0.00    +0.000 C 
BRANCH  13  14
ATOM     14  C   UNL     1       6.407   5.969  16.834  0.00  0.00    +0.000 A 
ATOM     15  N   UNL     1       7.189   5.012  17.285  0.00  0.00    +0.000 NA
ATOM     16  N   UNL     1       7.793   4.462  16.181  0.00  0.00    +0.000 NA
ATOM     17  N   UNL     1       7.397   5.067  15.070  0.00  0.00    +0.000 NA
ATOM     18  N   UNL     1       6.536   6.007  15.475  0.00  0.00    +0.000 N 
ATOM     19  H   UNL     1       6.101   6.615  14.792  0.00  0.00    +0.000 HD
ENDBRANCH  13  14
ENDBRANCH  12  13
ENDBRANCH  11  12
ENDBRANCH   1  11
TORSDOF 5
ENDMDL
