MODEL 1
REMARK VINA RESULT:      -9.9      0.000      0.000
REMARK  Name = 
REMARK  8 active torsions:
REMARK  status: ('A' for Active; 'I' for Inactive)
REMARK    1  A    between atoms: C_1  and  C_2
REMARK    2  A    between atoms: C_5  and  C_6
REMARK    3  A    between atoms: C_6  and  N_7
REMARK    4  A    between atoms: C_8  and  C_9
REMARK    5  A    between atoms: C_9  and  C_10
REMARK    6  A    between atoms: C_10  and  N_11
REMARK    7  A    between atoms: C_12  and  C_14
REMARK    8  A    between atoms: C_18  and  C_19
REMARK                            x       y       z     vdW  Elec       q    Type
REMARK                         _______ _______ _______ _____ _____    ______ ____
ROOT
ATOM      1  N   UNL     1       3.984   5.096  18.135  0.00  0.00    +0.000 N 
ATOM      2  C   UNL     1       5.141   4.694  18.781  0.00  0.00    +0.000 A 
ATOM      3  N   UNL     1       4.947   3.525  19.380  0.00  0.00    +0.000 NA
ATOM      4  C   UNL     1       3.646   3.189  19.147  0.00  0.00    +0.000 A 
ATOM      5  C   UNL     1       2.927   2.076  19.599  0.00  0.00    +0.000 A 
ATOM      6  C   UNL     1       1.570   1.972  19.270  0.00  0.00    +0.000 A 
ATOM      7  C   UNL     1       0.952   2.939  18.477  0.00  0.00    +0.000 A 
ATOM      8  C   UNL     1       1.664   4.044  17.996  0.00  0.00    +0.000 A 
ATOM      9  C   UNL     1       3.012   4.143  18.367  0.00  0.00    +0.000 A 
ENDROOT
BRANCH   1  10
ATOM     10  C   UNL     1       3.706   6.382  17.487  0.00  0.00    +0.000 C 
BRANCH  10  15
ATOM     11  C   UNL     1       0.171   9.917  20.502  0.00  0.00    +0.000 C 
ATOM     12  C   UNL     1       1.125   9.052  19.735  0.00  0.00    +0.000 A 
ATOM     13  C   UNL     1       1.468   9.335  18.411  0.00  0.00    +0.000 A 
ATOM     14  C   UNL     1       2.337   8.492  17.708  0.00  0.00    +0.000 A 
ATOM     15  C   UNL     1       2.885   7.347  18.317  0.00  0.00    +0.000 A 
ATOM     16  C   UNL     1       2.548   7.084  19.648  0.00  0.00    +0.000 A 
ATOM     17  C   UNL     1       1.674   7.920  20.346  0.00  0.00    +0.000 A 
ENDBRANCH  10  15
ENDBRANCH   1  10
BRANCH   2  18
ATOM     18  C   UNL     1       6.434   5.451  18.812  0.00  0.00    +0.000 C 
BRANCH  18  19
ATOM     19  C   UNL     1       7.602   4.649  18.207  0.00  0.00    +0.000 C 
BRANCH  19  20
ATOM     20  N   UNL     1       7.467   4.365  16.784  0.00  0.00    +0.000 N 
ATOM     21  C   UNL     1       7.158   5.355  15.875  0.00  0.00    +0.000 C 
ATOM     22  O   UNL     1       6.969   6.520  16.220  0.00  0.00    +0.000 OA
ATOM     23  H   UNL     1       7.206   3.410  16.563  0.00  0.00    +0.000 HD
BRANCH  21  24
ATOM     24  C   UNL     1       7.059   4.978  14.426  0.00  0.00    +0.000 A 
ATOM     25  C   UNL     1       7.941   5.597  13.530  0.00  0.00    +0.000 A 
ATOM     26  C   UNL     1       7.938   5.262  12.175  0.00  0.00    +0.000 A 
ATOM     27  C   UNL     1       7.060   4.288  11.698  0.00  0.00    +0.000 A 
ATOM     28  C   UNL     1       6.187   3.641  12.581  0.00  0.00    +0.000 A 
ATOM     29  C   UNL     1       5.245   2.579  12.085  0.00  0.00    +0.000 C 
ATOM     30  C   UNL     1       6.178   3.999  13.940  0.00  0.00    +0.000 A 
ENDBRANCH  21  24
ENDBRANCH  19  20
ENDBRANCH  18  19
ENDBRANCH   2  18
TORSDOF 6
ENDMDL
MODEL 2
REMARK VINA RESULT:      -9.5      2.424      8.318
REMARK  Name = 
REMARK  8 active torsions:
REMARK  status: ('A' for Active; 'I' for Inactive)
REMARK    1  A    between atoms: C_1  and  C_2
REMARK    2  A    between atoms: C_5  and  C_6
REMARK    3  A    between atoms: C_6  and  N_7
REMARK    4  A    between atoms: C_8  and  C_9
REMARK    5  A    between atoms: C_9  and  C_10
REMARK    6  A    between atoms: C_10  and  N_11
REMARK    7  A    between atoms: C_12  and  C_14
REMARK    8  A    between atoms: C_18  and  C_19
REMARK                            x       y       z     vdW  Elec       q    Type
REMARK                         _______ _______ _______ _____ _____    ______ ____
ROOT
ATOM      1  N   UNL     1       3.997   5.412  19.232  0.00  0.00    +0.000 N 
ATOM      2  C   UNL     1       3.094   6.336  18.733  0.00  0.00    +0.000 A 
ATOM      3  N   UNL     1       1.861   6.014  19.104  0.00  0.00    +0.000 NA
ATOM      4  C   UNL     1       1.967   4.857  19.817  0.00  0.00    +0.000 A 
ATOM      5  C   UNL     1       0.955   4.077  20.390  0.00  0.00    +0.000 A 
ATOM      6  C   UNL     1       1.307   2.886  21.038  0.00  0.00    +0.000 A 
ATOM      7  C   UNL     1       2.643   2.500  21.143  0.00  0.00    +0.000 A 
ATOM      8  C   UNL     1       3.668   3.283  20.597  0.00  0.00    +0.000 A 
ATOM      9  C   UNL     1       3.287   4.452  19.925  0.00  0.00    +0.000 A 
ENDROOT
BRANCH   1  10
ATOM     10  C   UNL     1       5.430   5.295  18.941  0.00  0.00    +0.000 C 
BRANCH  10  15
ATOM     11  C   UNL     1       6.459   3.880  13.371  0.00  0.00    +0.000 C 
ATOM     12  C   UNL     1       6.204   4.183  14.817  0.00  0.00    +0.000 A 
ATOM     13  C   UNL     1       4.989   3.865  15.428  0.00  0.00    +0.000 A 
ATOM     14  C   UNL     1       4.765   4.188  16.772  0.00  0.00    +0.000 A 
ATOM     15  C   UNL     1       5.756   4.834  17.536  0.00  0.00    +0.000 A 
ATOM     16  C   UNL     1       6.974   5.131  16.917  0.00  0.00    +0.000 A 
ATOM     17  C   UNL     1       7.193   4.817  15.574  0.00  0.00    +0.000 A 
ENDBRANCH  10  15
ENDBRANCH   1  10
BRANCH   2  18
ATOM     18  C   UNL     1       3.437   7.530  17.895  0.00  0.00    +0.000 C 
BRANCH  18  19
ATOM     19  C   UNL     1       2.284   8.549  17.821  0.00  0.00    +0.000 C 
BRANCH  19  20
ATOM     20  N   UNL     1       1.678   8.872  19.106  0.00  0.00    +0.000 N 
ATOM     21  C   UNL     1       0.663   9.799  19.215  0.00  0.00    +0.000 C 
ATOM     22  O   UNL     1       0.230  10.408  18.238  0.00  0.00    +0.000 OA
ATOM     23  H   UNL     1       2.276   8.717  19.911  0.00  0.00    +0.000 HD
BRANCH  21  24
ATOM     24  C   UNL     1       0.082  10.055  20.574  0.00  0.00    +0.000 A 
ATOM     25  C   UNL     1       0.214   9.048  21.540  0.00  0.00    +0.000 A 
ATOM     26  C   UNL     1      -0.261   9.234  22.839  0.00  0.00    +0.000 A 
ATOM     27  C   UNL     1      -0.863  10.440  23.197  0.00  0.00    +0.000 A 
ATOM     28  C   UNL     1      -0.983  11.468  22.253  0.00  0.00    +0.000 A 
ATOM     29  C   UNL     1      -1.616  12.780  22.628  0.00  0.00    +0.000 C 
ATOM     30  C   UNL     1      -0.524  11.267  20.940  0.00  0.00    +0.000 A 
ENDBRANCH  21  24
ENDBRANCH  19  20
ENDBRANCH  18  19
ENDBRANCH   2  18
TORSDOF 6
ENDMDL
MODEL 3
REMARK VINA RESULT:      -9.4      1.428      2.154
REMARK  Name = 
REMARK  8 active torsions:
REMARK  status: ('A' for Active; 'I' for Inactive)
REMARK    1  A    between atoms: C_1  and  C_2
REMARK    2  A    between atoms: C_5  and  C_6
REMARK    3  A    between atoms: C_6  and  N_7
REMARK    4  A    between atoms: C_8  and  C_9
REMARK    5  A    between atoms: C_9  and  C_10
REMARK    6  A    between atoms: C_10  and  N_11
REMARK    7  A    between atoms: C_12  and  C_14
REMARK    8  A    between atoms: C_18  and  C_19
REMARK                            x       y       z     vdW  Elec       q    Type
REMARK                         _______ _______ _______ _____ _____    ______ ____
ROOT
ATOM      1  N   UNL     1       2.541   6.035  19.271  0.00  0.00    +0.000 N 
ATOM      2  C   UNL     1       3.277   6.055  18.098  0.00  0.00    +0.000 A 
ATOM      3  N   UNL     1       3.123   4.911  17.443  0.00  0.00    +0.000 NA
ATOM      4  C   UNL     1       2.311   4.135  18.217  0.00  0.00    +0.000 A 
ATOM      5  C   UNL     1       1.880   2.821  18.003  0.00  0.00    +0.000 A 
ATOM      6  C   UNL     1       1.083   2.206  18.976  0.00  0.00    +0.000 A 
ATOM      7  C   UNL     1       0.694   2.900  20.122  0.00  0.00    +0.000 A 
ATOM      8  C   UNL     1       1.096   4.223  20.338  0.00  0.00    +0.000 A 
ATOM      9  C   UNL     1       1.921   4.804  19.365  0.00  0.00    +0.000 A 
ENDROOT
BRANCH   1  10
ATOM     10  C   UNL     1       2.544   7.016  20.362  0.00  0.00    +0.000 C 
BRANCH  10  15
ATOM     11  C   UNL     1      -1.213  11.480  20.142  0.00  0.00    +0.000 C 
ATOM     12  C   UNL     1      -0.296  10.294  20.183  0.00  0.00    +0.000 A 
ATOM     13  C   UNL     1      -0.290   9.412  21.265  0.00  0.00    +0.000 A 
ATOM     14  C   UNL     1       0.600   8.331  21.293  0.00  0.00    +0.000 A 
ATOM     15  C   UNL     1       1.502   8.108  20.235  0.00  0.00    +0.000 A 
ATOM     16  C   UNL     1       1.474   8.989  19.150  0.00  0.00    +0.000 A 
ATOM     17  C   UNL     1       0.593  10.072  19.127  0.00  0.00    +0.000 A 
ENDBRANCH  10  15
ENDBRANCH   1  10
BRANCH   2  18
ATOM     18  C   UNL     1       4.127   7.192  17.619  0.00  0.00    +0.000 C 
BRANCH  18  19
ATOM     19  C   UNL     1       5.574   6.758  17.313  0.00  0.00    +0.000 C 
BRANCH  19  20
ATOM     20  N   UNL     1       5.794   6.313  15.943  0.00  0.00    +0.000 N 
ATOM     21  C   UNL     1       6.523   5.176  15.660  0.00  0.00    +0.000 C 
ATOM     22  O   UNL     1       7.033   4.493  16.546  0.00  0.00    +0.000 OA
ATOM     23  H   UNL     1       5.758   7.047  15.244  0.00  0.00    +0.000 HD
BRANCH  21  24
ATOM     24  C   UNL     1       6.683   4.778  14.222  0.00  0.00    +0.000 A 
ATOM     25  C   UNL     1       7.675   5.425  13.474  0.00  0.00    +0.000 A 
ATOM     26  C   UNL     1       7.912   5.074  12.143  0.00  0.00    +0.000 A 
ATOM     27  C   UNL     1       7.167   4.057  11.546  0.00  0.00    +0.000 A 
ATOM     28  C   UNL     1       6.187   3.383  12.284  0.00  0.00    +0.000 A 
ATOM     29  C   UNL     1       5.386   2.274  11.658  0.00  0.00    +0.000 C 
ATOM     30  C   UNL     1       5.936   3.756  13.615  0.00  0.00    +0.000 A 
ENDBRANCH  21  24
ENDBRANCH  19  20
ENDBRANCH  18  19
ENDBRANCH   2  18
TORSDOF 6
ENDMDL
MODEL 4
REMARK VINA RESULT:      -9.4      0.776      1.236
REMARK  Name = 
REMARK  8 active torsions:
REMARK  status: ('A' for Active; 'I' for Inactive)
REMARK    1  A    between atoms: C_1  and  C_2
REMARK    2  A    between atoms: C_5  and  C_6
REMARK    3  A    between atoms: C_6  and  N_7
REMARK    4  A    between atoms: C_8  and  C_9
REMARK    5  A    between atoms: C_9  and  C_10
REMARK    6  A    between atoms: C_10  and  N_11
REMARK    7  A    between atoms: C_12  and  C_14
REMARK    8  A    between atoms: C_18  and  C_19
REMARK                            x       y       z     vdW  Elec       q    Type
REMARK                         _______ _______ _______ _____ _____    ______ ____
ROOT
ATOM      1  N   UNL     1       4.026   5.121  18.052  0.00  0.00    +0.000 N 
ATOM      2  C   UNL     1       5.188   4.645  18.637  0.00  0.00    +0.000 A 
ATOM      3  N   UNL     1       4.961   3.475  19.219  0.00  0.00    +0.000 NA
ATOM      4  C   UNL     1       3.635   3.210  19.038  0.00  0.00    +0.000 A 
ATOM      5  C   UNL     1       2.880   2.126  19.499  0.00  0.00    +0.000 A 
ATOM      6  C   UNL     1       1.506   2.097  19.230  0.00  0.00    +0.000 A 
ATOM      7  C   UNL     1       0.905   3.112  18.485  0.00  0.00    +0.000 A 
ATOM      8  C   UNL     1       1.652   4.190  17.996  0.00  0.00    +0.000 A 
ATOM      9  C   UNL     1       3.018   4.212  18.308  0.00  0.00    +0.000 A 
ENDROOT
BRANCH   1  10
ATOM     10  C   UNL     1       3.787   6.434  17.443  0.00  0.00    +0.000 C 
BRANCH  10  15
ATOM     11  C   UNL     1       0.143   9.856  20.460  0.00  0.00    +0.000 C 
ATOM     12  C   UNL     1       1.124   9.021  19.693  0.00  0.00    +0.000 A 
ATOM     13  C   UNL     1       1.458   9.315  18.369  0.00  0.00    +0.000 A 
ATOM     14  C   UNL     1       2.352   8.500  17.666  0.00  0.00    +0.000 A 
ATOM     15  C   UNL     1       2.936   7.372  18.274  0.00  0.00    +0.000 A 
ATOM     16  C   UNL     1       2.607   7.098  19.605  0.00  0.00    +0.000 A 
ATOM     17  C   UNL     1       1.707   7.907  20.303  0.00  0.00    +0.000 A 
ENDBRANCH  10  15
ENDBRANCH   1  10
BRANCH   2  18
ATOM     18  C   UNL     1       6.518   5.336  18.625  0.00  0.00    +0.000 C 
BRANCH  18  19
ATOM     19  C   UNL     1       7.534   4.645  17.694  0.00  0.00    +0.000 C 
BRANCH  19  20
ATOM     20  N   UNL     1       6.957   4.092  16.475  0.00  0.00    +0.000 N 
ATOM     21  C   UNL     1       7.013   4.772  15.277  0.00  0.00    +0.000 C 
ATOM     22  O   UNL     1       7.537   5.881  15.180  0.00  0.00    +0.000 OA
ATOM     23  H   UNL     1       6.197   3.437  16.622  0.00  0.00    +0.000 HD
BRANCH  21  24
ATOM     24  C   UNL     1       6.412   4.120  14.066  0.00  0.00    +0.000 A 
ATOM     25  C   UNL     1       5.036   4.281  13.855  0.00  0.00    +0.000 A 
ATOM     26  C   UNL     1       4.417   3.741  12.725  0.00  0.00    +0.000 A 
ATOM     27  C   UNL     1       5.171   3.045  11.780  0.00  0.00    +0.000 A 
ATOM     28  C   UNL     1       6.552   2.894  11.962  0.00  0.00    +0.000 A 
ATOM     29  C   UNL     1       7.380   2.159  10.944  0.00  0.00    +0.000 C 
ATOM     30  C   UNL     1       7.165   3.418  13.112  0.00  0.00    +0.000 A 
ENDBRANCH  21  24
ENDBRANCH  19  20
ENDBRANCH  18  19
ENDBRANCH   2  18
TORSDOF 6
ENDMDL
MODEL 5
REMARK VINA RESULT:      -9.3      2.166      8.345
REMARK  Name = 
REMARK  8 active torsions:
REMARK  status: ('A' for Active; 'I' for Inactive)
REMARK    1  A    between atoms: C_1  and  C_2
REMARK    2  A    between atoms: C_5  and  C_6
REMARK    3  A    between atoms: C_6  and  N_7
REMARK    4  A    between atoms: C_8  and  C_9
REMARK    5  A    between atoms: C_9  and  C_10
REMARK    6  A    between atoms: C_10  and  N_11
REMARK    7  A    between atoms: C_12  and  C_14
REMARK    8  A    between atoms: C_18  and  C_19
REMARK                            x       y       z     vdW  Elec       q    Type
REMARK                         _______ _______ _______ _____ _____    ______ ____
ROOT
ATOM      1  N   UNL     1       4.141   5.190  18.142  0.00  0.00    +0.000 N 
ATOM      2  C   UNL     1       3.227   6.228  18.065  0.00  0.00    +0.000 A 
ATOM      3  N   UNL     1       2.006   5.782  18.334  0.00  0.00    +0.000 NA
ATOM      4  C   UNL     1       2.129   4.441  18.550  0.00  0.00    +0.000 A 
ATOM      5  C   UNL     1       1.134   3.496  18.823  0.00  0.00    +0.000 A 
ATOM      6  C   UNL     1       1.500   2.151  18.957  0.00  0.00    +0.000 A 
ATOM      7  C   UNL     1       2.835   1.762  18.857  0.00  0.00    +0.000 A 
ATOM      8  C   UNL     1       3.845   2.699  18.609  0.00  0.00    +0.000 A 
ATOM      9  C   UNL     1       3.449   4.034  18.446  0.00  0.00    +0.000 A 
ENDROOT
BRANCH   1  10
ATOM     10  C   UNL     1       5.561   5.200  17.773  0.00  0.00    +0.000 C 
BRANCH  10  15
ATOM     11  C   UNL     1       6.853   3.872  12.236  0.00  0.00    +0.000 C 
ATOM     12  C   UNL     1       6.513   4.274  13.641  0.00  0.00    +0.000 A 
ATOM     13  C   UNL     1       7.434   4.936  14.456  0.00  0.00    +0.000 A 
ATOM     14  C   UNL     1       7.101   5.270  15.774  0.00  0.00    +0.000 A 
ATOM     15  C   UNL     1       5.836   4.952  16.305  0.00  0.00    +0.000 A 
ATOM     16  C   UNL     1       4.918   4.305  15.473  0.00  0.00    +0.000 A 
ATOM     17  C   UNL     1       5.253   3.963  14.161  0.00  0.00    +0.000 A 
ENDBRANCH  10  15
ENDBRANCH   1  10
BRANCH   2  18
ATOM     18  C   UNL     1       3.549   7.653  17.731  0.00  0.00    +0.000 C 
BRANCH  18  19
ATOM     19  C   UNL     1       2.291   8.537  17.645  0.00  0.00    +0.000 C 
BRANCH  19  20
ATOM     20  N   UNL     1       1.606   8.739  18.916  0.00  0.00    +0.000 N 
ATOM     21  C   UNL     1       1.124   9.976  19.290  0.00  0.00    +0.000 C 
ATOM     22  O   UNL     1       1.260  10.970  18.578  0.00  0.00    +0.000 OA
ATOM     23  H   UNL     1       1.858   8.081  19.646  0.00  0.00    +0.000 HD
BRANCH  21  24
ATOM     24  C   UNL     1       0.414  10.089  20.606  0.00  0.00    +0.000 A 
ATOM     25  C   UNL     1       0.324   8.938  21.400  0.00  0.00    +0.000 A 
ATOM     26  C   UNL     1      -0.282   8.979  22.657  0.00  0.00    +0.000 A 
ATOM     27  C   UNL     1      -0.795  10.181  23.146  0.00  0.00    +0.000 A 
ATOM     28  C   UNL     1      -0.695  11.347  22.378  0.00  0.00    +0.000 A 
ATOM     29  C   UNL     1      -1.230  12.653  22.898  0.00  0.00    +0.000 C 
ATOM     30  C   UNL     1      -0.105  11.295  21.103  0.00  0.00    +0.000 A 
ENDBRANCH  21  24
ENDBRANCH  19  20
ENDBRANCH  18  19
ENDBRANCH   2  18
TORSDOF 6
ENDMDL
MODEL 6
REMARK VINA RESULT:      -9.2      1.002      1.343
REMARK  Name = 
REMARK  8 active torsions:
REMARK  status: ('A' for Active; 'I' for Inactive)
REMARK    1  A    between atoms: C_1  and  C_2
REMARK    2  A    between atoms: C_5  and  C_6
REMARK    3  A    between atoms: C_6  and  N_7
REMARK    4  A    between atoms: C_8  and  C_9
REMARK    5  A    between atoms: C_9  and  C_10
REMARK    6  A    between atoms: C_10  and  N_11
REMARK    7  A    between atoms: C_12  and  C_14
REMARK    8  A    between atoms: C_18  and  C_19
REMARK                            x       y       z     vdW  Elec       q    Type
REMARK                         _______ _______ _______ _____ _____    ______ ____
ROOT
ATOM      1  N   UNL     1       3.667   5.327  18.595  0.00  0.00    +0.000 N 
ATOM      2  C   UNL     1       4.940   5.101  19.091  0.00  0.00    +0.000 A 
ATOM      3  N   UNL     1       4.925   4.081  19.941  0.00  0.00    +0.000 NA
ATOM      4  C   UNL     1       3.627   3.671  20.020  0.00  0.00    +0.000 A 
ATOM      5  C   UNL     1       3.066   2.662  20.813  0.00  0.00    +0.000 A 
ATOM      6  C   UNL     1       1.682   2.456  20.762  0.00  0.00    +0.000 A 
ATOM      7  C   UNL     1       0.879   3.215  19.912  0.00  0.00    +0.000 A 
ATOM      8  C   UNL     1       1.428   4.211  19.095  0.00  0.00    +0.000 A 
ATOM      9  C   UNL     1       2.811   4.420  19.189  0.00  0.00    +0.000 A 
ENDROOT
BRANCH   1  10
ATOM     10  C   UNL     1       3.202   6.438  17.758  0.00  0.00    +0.000 C 
BRANCH  10  15
ATOM     11  C   UNL     1       0.405  10.626  20.712  0.00  0.00    +0.000 C 
ATOM     12  C   UNL     1       1.071   9.515  19.956  0.00  0.00    +0.000 A 
ATOM     13  C   UNL     1       1.533   8.366  20.601  0.00  0.00    +0.000 A 
ATOM     14  C   UNL     1       2.180   7.359  19.876  0.00  0.00    +0.000 A 
ATOM     15  C   UNL     1       2.376   7.478  18.486  0.00  0.00    +0.000 A 
ATOM     16  C   UNL     1       1.893   8.625  17.850  0.00  0.00    +0.000 A 
ATOM     17  C   UNL     1       1.256   9.634  18.576  0.00  0.00    +0.000 A 
ENDBRANCH  10  15
ENDBRANCH   1  10
BRANCH   2  18
ATOM     18  C   UNL     1       6.169   5.880  18.733  0.00  0.00    +0.000 C 
BRANCH  18  19
ATOM     19  C   UNL     1       7.297   4.984  18.185  0.00  0.00    +0.000 C 
BRANCH  19  20
ATOM     20  N   UNL     1       7.383   4.942  16.731  0.00  0.00    +0.000 N 
ATOM     21  C   UNL     1       6.477   4.230  15.974  0.00  0.00    +0.000 C 
ATOM     22  O   UNL     1       5.562   3.586  16.486  0.00  0.00    +0.000 OA
ATOM     23  H   UNL     1       8.312   5.092  16.354  0.00  0.00    +0.000 HD
BRANCH  21  24
ATOM     24  C   UNL     1       6.627   4.258  14.481  0.00  0.00    +0.000 A 
ATOM     25  C   UNL     1       7.525   5.184  13.933  0.00  0.00    +0.000 A 
ATOM     26  C   UNL     1       7.750   5.236  12.557  0.00  0.00    +0.000 A 
ATOM     27  C   UNL     1       7.090   4.348  11.707  0.00  0.00    +0.000 A 
ATOM     28  C   UNL     1       6.206   3.400  12.237  0.00  0.00    +0.000 A 
ATOM     29  C   UNL     1       5.498   2.428  11.334  0.00  0.00    +0.000 C 
ATOM     30  C   UNL     1       5.965   3.368  13.621  0.00  0.00    +0.000 A 
ENDBRANCH  21  24
ENDBRANCH  19  20
ENDBRANCH  18  19
ENDBRANCH   2  18
TORSDOF 6
ENDMDL
MODEL 7
REMARK VINA RESULT:      -9.2      0.941      1.306
REMARK  Name = 
REMARK  8 active torsions:
REMARK  status: ('A' for Active; 'I' for Inactive)
REMARK    1  A    between atoms: C_1  and  C_2
REMARK    2  A    between atoms: C_5  and  C_6
REMARK    3  A    between atoms: C_6  and  N_7
REMARK    4  A    between atoms: C_8  and  C_9
REMARK    5  A    between atoms: C_9  and  C_10
REMARK    6  A    between atoms: C_10  and  N_11
REMARK    7  A    between atoms: C_12  and  C_14
REMARK    8  A    between atoms: C_18  and  C_19
REMARK                            x       y       z     vdW  Elec       q    Type
REMARK                         _______ _______ _______ _____ _____    ______ ____
ROOT
ATOM      1  N   UNL     1       3.934   5.627  17.913  0.00  0.00    +0.000 N 
ATOM      2  C   UNL     1       5.179   5.617  18.519  0.00  0.00    +0.000 A 
ATOM      3  N   UNL     1       5.409   4.432  19.070  0.00  0.00    +0.000 NA
ATOM      4  C   UNL     1       4.290   3.684  18.848  0.00  0.00    +0.000 A 
ATOM      5  C   UNL     1       4.002   2.380  19.265  0.00  0.00    +0.000 A 
ATOM      6  C   UNL     1       2.749   1.835  18.958  0.00  0.00    +0.000 A 
ATOM      7  C   UNL     1       1.816   2.563  18.219  0.00  0.00    +0.000 A 
ATOM      8  C   UNL     1       2.100   3.860  17.773  0.00  0.00    +0.000 A 
ATOM      9  C   UNL     1       3.347   4.394  18.123  0.00  0.00    +0.000 A 
ENDROOT
BRANCH   1  10
ATOM     10  C   UNL     1       3.218   6.766  17.327  0.00  0.00    +0.000 C 
BRANCH  10  15
ATOM     11  C   UNL     1       0.377  10.003  21.268  0.00  0.00    +0.000 C 
ATOM     12  C   UNL     1       1.057   9.133  20.253  0.00  0.00    +0.000 A 
ATOM     13  C   UNL     1       1.624   7.906  20.604  0.00  0.00    +0.000 A 
ATOM     14  C   UNL     1       2.281   7.129  19.643  0.00  0.00    +0.000 A 
ATOM     15  C   UNL     1       2.381   7.561  18.306  0.00  0.00    +0.000 A 
ATOM     16  C   UNL     1       1.794   8.783  17.965  0.00  0.00    +0.000 A 
ATOM     17  C   UNL     1       1.147   9.563  18.926  0.00  0.00    +0.000 A 
ENDBRANCH  10  15
ENDBRANCH   1  10
BRANCH   2  18
ATOM     18  C   UNL     1       6.142   6.765  18.558  0.00  0.00    +0.000 C 
BRANCH  18  19
ATOM     19  C   UNL     1       7.445   6.468  17.792  0.00  0.00    +0.000 C 
BRANCH  19  20
ATOM     20  N   UNL     1       7.264   6.204  16.370  0.00  0.00    +0.000 N 
ATOM     21  C   UNL     1       7.414   4.937  15.845  0.00  0.00    +0.000 C 
ATOM     22  O   UNL     1       7.720   3.974  16.545  0.00  0.00    +0.000 OA
ATOM     23  H   UNL     1       7.432   6.999  15.764  0.00  0.00    +0.000 HD
BRANCH  21  24
ATOM     24  C   UNL     1       7.188   4.751  14.373  0.00  0.00    +0.000 A 
ATOM     25  C   UNL     1       7.964   5.518  13.493  0.00  0.00    +0.000 A 
ATOM     26  C   UNL     1       7.841   5.364  12.111  0.00  0.00    +0.000 A 
ATOM     27  C   UNL     1       6.949   4.428  11.588  0.00  0.00    +0.000 A 
ATOM     28  C   UNL     1       6.181   3.636  12.452  0.00  0.00    +0.000 A 
ATOM     29  C   UNL     1       5.226   2.613  11.903  0.00  0.00    +0.000 C 
ATOM     30  C   UNL     1       6.291   3.812  13.842  0.00  0.00    +0.000 A 
ENDBRANCH  21  24
ENDBRANCH  19  20
ENDBRANCH  18  19
ENDBRANCH   2  18
TORSDOF 6
ENDMDL
MODEL 8
REMARK VINA RESULT:      -9.1      3.289      7.971
REMARK  Name = 
REMARK  8 active torsions:
REMARK  status: ('A' for Active; 'I' for Inactive)
REMARK    1  A    between atoms: C_1  and  C_2
REMARK    2  A    between atoms: C_5  and  C_6
REMARK    3  A    between atoms: C_6  and  N_7
REMARK    4  A    between atoms: C_8  and  C_9
REMARK    5  A    between atoms: C_9  and  C_10
REMARK    6  A    between atoms: C_10  and  N_11
REMARK    7  A    between atoms: C_12  and  C_14
REMARK    8  A    between atoms: C_18  and  C_19
REMARK                            x       y       z     vdW  Elec       q    Type
REMARK                         _______ _______ _______ _____ _____    ______ ____
ROOT
ATOM      1  N   UNL     1       3.911   5.962  18.624  0.00  0.00    +0.000 N 
ATOM      2  C   UNL     1       2.791   6.740  18.383  0.00  0.00    +0.000 A 
ATOM      3  N   UNL     1       1.702   6.123  18.825  0.00  0.00    +0.000 NA
ATOM      4  C   UNL     1       2.119   4.923  19.322  0.00  0.00    +0.000 A 
ATOM      5  C   UNL     1       1.359   3.879  19.862  0.00  0.00    +0.000 A 
ATOM      6  C   UNL     1       2.013   2.707  20.262  0.00  0.00    +0.000 A 
ATOM      7  C   UNL     1       3.399   2.593  20.160  0.00  0.00    +0.000 A 
ATOM      8  C   UNL     1       4.175   3.639  19.645  0.00  0.00    +0.000 A 
ATOM      9  C   UNL     1       3.494   4.788  19.220  0.00  0.00    +0.000 A 
ENDROOT
BRANCH   1  10
ATOM     10  C   UNL     1       5.287   6.184  18.167  0.00  0.00    +0.000 C 
BRANCH  10  15
ATOM     11  C   UNL     1       6.161   3.640  12.985  0.00  0.00    +0.000 C 
ATOM     12  C   UNL     1       5.997   4.310  14.316  0.00  0.00    +0.000 A 
ATOM     13  C   UNL     1       6.443   3.711  15.496  0.00  0.00    +0.000 A 
ATOM     14  C   UNL     1       6.249   4.344  16.729  0.00  0.00    +0.000 A 
ATOM     15  C   UNL     1       5.606   5.595  16.808  0.00  0.00    +0.000 A 
ATOM     16  C   UNL     1       5.180   6.191  15.619  0.00  0.00    +0.000 A 
ATOM     17  C   UNL     1       5.366   5.555  14.389  0.00  0.00    +0.000 A 
ENDBRANCH  10  15
ENDBRANCH   1  10
BRANCH   2  18
ATOM     18  C   UNL     1       2.788   8.086  17.723  0.00  0.00    +0.000 C 
BRANCH  18  19
ATOM     19  C   UNL     1       1.957   9.123  18.503  0.00  0.00    +0.000 C 
BRANCH  19  20
ATOM     20  N   UNL     1       0.681   9.463  17.885  0.00  0.00    +0.000 N 
ATOM     21  C   UNL     1      -0.325  10.082  18.598  0.00  0.00    +0.000 C 
ATOM     22  O   UNL     1      -0.202  10.363  19.789  0.00  0.00    +0.000 OA
ATOM     23  H   UNL     1       0.424   8.887  17.092  0.00  0.00    +0.000 HD
BRANCH  21  24
ATOM     24  C   UNL     1      -1.599  10.415  17.878  0.00  0.00    +0.000 A 
ATOM     25  C   UNL     1      -2.532  11.220  18.545  0.00  0.00    +0.000 A 
ATOM     26  C   UNL     1      -3.719  11.609  17.920  0.00  0.00    +0.000 A 
ATOM     27  C   UNL     1      -3.982  11.210  16.610  0.00  0.00    +0.000 A 
ATOM     28  C   UNL     1      -3.051  10.425  15.918  0.00  0.00    +0.000 A 
ATOM     29  C   UNL     1      -3.314   9.999  14.500  0.00  0.00    +0.000 C 
ATOM     30  C   UNL     1      -1.869  10.016  16.560  0.00  0.00    +0.000 A 
ENDBRANCH  21  24
ENDBRANCH  19  20
ENDBRANCH  18  19
ENDBRANCH   2  18
TORSDOF 6
ENDMDL
MODEL 9
REMARK VINA RESULT:      -9.0      3.918      7.319
REMARK  Name = 
REMARK  8 active torsions:
REMARK  status: ('A' for Active; 'I' for Inactive)
REMARK    1  A    between atoms: C_1  and  C_2
REMARK    2  A    between atoms: C_5  and  C_6
REMARK    3  A    between atoms: C_6  and  N_7
REMARK    4  A    between atoms: C_8  and  C_9
REMARK    5  A    between atoms: C_9  and  C_10
REMARK    6  A    between atoms: C_10  and  N_11
REMARK    7  A    between atoms: C_12  and  C_14
REMARK    8  A    between atoms: C_18  and  C_19
REMARK                            x       y       z     vdW  Elec       q    Type
REMARK                         _______ _______ _______ _____ _____    ______ ____
ROOT
ATOM      1  N   UNL     1      -0.030  10.836  19.328  0.00  0.00    +0.000 N 
ATOM      2  C   UNL     1       0.809   9.760  19.088  0.00  0.00    +0.000 A 
ATOM      3  N   UNL     1       0.966   9.047  20.197  0.00  0.00    +0.000 NA
ATOM      4  C   UNL     1       0.252   9.687  21.166  0.00  0.00    +0.000 A 
ATOM      5  C   UNL     1       0.127   9.372  22.524  0.00  0.00    +0.000 A 
ATOM      6  C   UNL     1      -0.628  10.218  23.346  0.00  0.00    +0.000 A 
ATOM      7  C   UNL     1      -1.274  11.336  22.817  0.00  0.00    +0.000 A 
ATOM      8  C   UNL     1      -1.179  11.650  21.456  0.00  0.00    +0.000 A 
ATOM      9  C   UNL     1      -0.390  10.806  20.662  0.00  0.00    +0.000 A 
ENDROOT
BRANCH   1  10
ATOM     10  C   UNL     1      -0.349  11.956  18.437  0.00  0.00    +0.000 C 
BRANCH  10  15
ATOM     11  C   UNL     1       3.359  16.401  19.201  0.00  0.00    +0.000 C 
ATOM     12  C   UNL     1       2.389  15.285  18.949  0.00  0.00    +0.000 A 
ATOM     13  C   UNL     1       1.015  15.454  19.133  0.00  0.00    +0.000 A 
ATOM     14  C   UNL     1       0.135  14.386  18.922  0.00  0.00    +0.000 A 
ATOM     15  C   UNL     1       0.612  13.124  18.518  0.00  0.00    +0.000 A 
ATOM     16  C   UNL     1       1.987  12.973  18.322  0.00  0.00    +0.000 A 
ATOM     17  C   UNL     1       2.866  14.036  18.541  0.00  0.00    +0.000 A 
ENDBRANCH  10  15
ENDBRANCH   1  10
BRANCH   2  18
ATOM     18  C   UNL     1       1.454   9.431  17.776  0.00  0.00    +0.000 C 
BRANCH  18  19
ATOM     19  C   UNL     1       2.637   8.455  17.929  0.00  0.00    +0.000 C 
BRANCH  19  20
ATOM     20  N   UNL     1       2.256   7.097  18.297  0.00  0.00    +0.000 N 
ATOM     21  C   UNL     1       3.048   6.013  17.980  0.00  0.00    +0.000 C 
ATOM     22  O   UNL     1       4.104   6.137  17.361  0.00  0.00    +0.000 OA
ATOM     23  H   UNL     1       1.259   6.949  18.407  0.00  0.00    +0.000 HD
BRANCH  21  24
ATOM     24  C   UNL     1       2.590   4.652  18.415  0.00  0.00    +0.000 A 
ATOM     25  C   UNL     1       2.655   3.612  17.478  0.00  0.00    +0.000 A 
ATOM     26  C   UNL     1       2.290   2.311  17.825  0.00  0.00    +0.000 A 
ATOM     27  C   UNL     1       1.868   2.027  19.124  0.00  0.00    +0.000 A 
ATOM     28  C   UNL     1       1.818   3.048  20.082  0.00  0.00    +0.000 A 
ATOM     29  C   UNL     1       1.380   2.754  21.490  0.00  0.00    +0.000 C 
ATOM     30  C   UNL     1       2.164   4.361  19.720  0.00  0.00    +0.000 A 
ENDBRANCH  21  24
ENDBRANCH  19  20
ENDBRANCH  18  19
ENDBRANCH   2  18
TORSDOF 6
ENDMDL
