MODEL 1
REMARK VINA RESULT:      -6.3      0.000      0.000
REMARK  Name = 
REMARK  5 active torsions:
REMARK  status: ('A' for Active; 'I' for Inactive)
REMARK    1  A    between atoms: C_1  and  S_2
REMARK    2  A    between atoms: S_2  and  C_3
REMARK    3  A    between atoms: C_5  and  C_6
REMARK    4  A    between atoms: C_13  and  O_14
REMARK    5  A    between atoms: C_15  and  C_16
REMARK                            x       y       z     vdW  Elec       q    Type
REMARK                         _______ _______ _______ _____ _____    ______ ____
ROOT
ATOM      1  C   UNL     1       5.793   5.826  17.324  0.00  0.00    +0.000 A 
ATOM      2  C   UNL     1       4.854   5.501  18.311  0.00  0.00    +0.000 A 
ATOM      3  C   UNL     1       4.231   4.254  18.297  0.00  0.00    +0.000 A 
ATOM      4  N   UNL     1       4.532   3.329  17.353  0.00  0.00    +0.000 NA
ATOM      5  C   UNL     1       5.430   3.677  16.412  0.00  0.00    +0.000 A 
ATOM      6  C   UNL     1       6.085   4.893  16.329  0.00  0.00    +0.000 A 
ENDROOT
BRANCH   3   7
ATOM      7  C   UNL     1       3.215   3.868  19.299  0.00  0.00    +0.000 A 
ATOM      8  C   UNL     1       1.915   4.410  19.278  0.00  0.00    +0.000 A 
ATOM      9  C   UNL     1       0.965   4.069  20.245  0.00  0.00    +0.000 A 
ATOM     10  C   UNL     1       1.291   3.167  21.253  0.00  0.00    +0.000 A 
ATOM     11  C   UNL     1       2.562   2.600  21.286  0.00  0.00    +0.000 A 
ATOM     12  C   UNL     1       3.511   2.944  20.318  0.00  0.00    +0.000 A 
ENDBRANCH   3   7
BRANCH   1  14
ATOM     13  C   UNL     1       7.994   7.066  18.389  0.00  0.00    +0.000 C 
ATOM     14  S   UNL     1       6.530   7.458  17.395  0.00  0.00    +0.000 S 
ENDBRANCH   1  14
BRANCH   5  15
ATOM     15  O   UNL     1       5.647   2.685  15.509  0.00  0.00    +0.000 OA
ATOM     16  H   UNL     1       5.970   1.973  16.093  0.00  0.00    +0.000 HD
ENDBRANCH   5  15
BRANCH   6  17
ATOM     17  C   UNL     1       7.011   5.150  15.272  0.00  0.00    +0.000 C 
ATOM     18  N   UNL     1       7.773   5.378  14.425  0.00  0.00    +0.000 NA
ENDBRANCH   6  17
TORSDOF 4
ENDMDL
MODEL 2
REMARK VINA RESULT:      -6.2      0.842      1.436
REMARK  Name = 
REMARK  5 active torsions:
REMARK  status: ('A' for Active; 'I' for Inactive)
REMARK    1  A    between atoms: C_1  and  S_2
REMARK    2  A    between atoms: S_2  and  C_3
REMARK    3  A    between atoms: C_5  and  C_6
REMARK    4  A    between atoms: C_13  and  O_14
REMARK    5  A    between atoms: C_15  and  C_16
REMARK                            x       y       z     vdW  Elec       q    Type
REMARK                         _______ _______ _______ _____ _____    ______ ____
ROOT
ATOM      1  C   UNL     1       6.339   5.146  17.933  0.00  0.00    +0.000 A 
ATOM      2  C   UNL     1       5.389   4.790  18.898  0.00  0.00    +0.000 A 
ATOM      3  C   UNL     1       4.235   4.104  18.522  0.00  0.00    +0.000 A 
ATOM      4  N   UNL     1       4.019   3.749  17.232  0.00  0.00    +0.000 NA
ATOM      5  C   UNL     1       4.946   4.115  16.327  0.00  0.00    +0.000 A 
ATOM      6  C   UNL     1       6.110   4.813  16.598  0.00  0.00    +0.000 A 
ENDROOT
BRANCH   3   7
ATOM      7  C   UNL     1       3.189   3.726  19.495  0.00  0.00    +0.000 A 
ATOM      8  C   UNL     1       3.469   2.881  20.586  0.00  0.00    +0.000 A 
ATOM      9  C   UNL     1       2.472   2.497  21.488  0.00  0.00    +0.000 A 
ATOM     10  C   UNL     1       1.171   2.960  21.326  0.00  0.00    +0.000 A 
ATOM     11  C   UNL     1       0.870   3.814  20.268  0.00  0.00    +0.000 A 
ATOM     12  C   UNL     1       1.869   4.195  19.366  0.00  0.00    +0.000 A 
ENDBRANCH   3   7
BRANCH   1  14
ATOM     13  C   UNL     1       7.463   7.631  17.666  0.00  0.00    +0.000 C 
ATOM     14  S   UNL     1       7.781   6.050  18.493  0.00  0.00    +0.000 S 
ENDBRANCH   1  14
BRANCH   5  15
ATOM     15  O   UNL     1       4.625   3.723  15.066  0.00  0.00    +0.000 OA
ATOM     16  H   UNL     1       5.504   3.732  14.642  0.00  0.00    +0.000 HD
ENDBRANCH   5  15
BRANCH   6  17
ATOM     17  C   UNL     1       7.014   5.158  15.547  0.00  0.00    +0.000 C 
ATOM     18  N   UNL     1       7.765   5.446  14.708  0.00  0.00    +0.000 NA
ENDBRANCH   6  17
TORSDOF 4
ENDMDL
MODEL 3
REMARK VINA RESULT:      -6.2      3.566      4.379
REMARK  Name = 
REMARK  5 active torsions:
REMARK  status: ('A' for Active; 'I' for Inactive)
REMARK    1  A    between atoms: C_1  and  S_2
REMARK    2  A    between atoms: S_2  and  C_3
REMARK    3  A    between atoms: C_5  and  C_6
REMARK    4  A    between atoms: C_13  and  O_14
REMARK    5  A    between atoms: C_15  and  C_16
REMARK                            x       y       z     vdW  Elec       q    Type
REMARK                         _______ _______ _______ _____ _____    ______ ____
ROOT
ATOM      1  C   UNL     1       3.571   4.514  17.552  0.00  0.00    +0.000 A 
ATOM      2  C   UNL     1       2.769   5.422  18.254  0.00  0.00    +0.000 A 
ATOM      3  C   UNL     1       3.003   6.791  18.140  0.00  0.00    +0.000 A 
ATOM      4  N   UNL     1       3.984   7.272  17.338  0.00  0.00    +0.000 NA
ATOM      5  C   UNL     1       4.744   6.372  16.685  0.00  0.00    +0.000 A 
ATOM      6  C   UNL     1       4.605   4.997  16.750  0.00  0.00    +0.000 A 
ENDROOT
BRANCH   3   7
ATOM      7  C   UNL     1       2.203   7.792  18.877  0.00  0.00    +0.000 A 
ATOM      8  C   UNL     1       1.744   8.971  18.257  0.00  0.00    +0.000 A 
ATOM      9  C   UNL     1       1.015   9.932  18.962  0.00  0.00    +0.000 A 
ATOM     10  C   UNL     1       0.716   9.731  20.306  0.00  0.00    +0.000 A 
ATOM     11  C   UNL     1       1.140   8.566  20.939  0.00  0.00    +0.000 A 
ATOM     12  C   UNL     1       1.870   7.606  20.231  0.00  0.00    +0.000 A 
ENDBRANCH   3   7
BRANCH   1  14
ATOM     13  C   UNL     1       4.027   2.522  19.380  0.00  0.00    +0.000 C 
ATOM     14  S   UNL     1       3.226   2.769  17.773  0.00  0.00    +0.000 S 
ENDBRANCH   1  14
BRANCH   5  15
ATOM     15  O   UNL     1       5.705   6.959  15.923  0.00  0.00    +0.000 OA
ATOM     16  H   UNL     1       5.242   7.769  15.638  0.00  0.00    +0.000 HD
ENDBRANCH   5  15
BRANCH   6  17
ATOM     17  C   UNL     1       5.485   4.141  16.019  0.00  0.00    +0.000 C 
ATOM     18  N   UNL     1       6.218   3.458  15.431  0.00  0.00    +0.000 NA
ENDBRANCH   6  17
TORSDOF 4
ENDMDL
MODEL 4
REMARK VINA RESULT:      -6.2      3.530      4.460
REMARK  Name = 
REMARK  5 active torsions:
REMARK  status: ('A' for Active; 'I' for Inactive)
REMARK    1  A    between atoms: C_1  and  S_2
REMARK    2  A    between atoms: S_2  and  C_3
REMARK    3  A    between atoms: C_5  and  C_6
REMARK    4  A    between atoms: C_13  and  O_14
REMARK    5  A    between atoms: C_15  and  C_16
REMARK                            x       y       z     vdW  Elec       q    Type
REMARK                         _______ _______ _______ _____ _____    ______ ____
ROOT
ATOM      1  C   UNL     1       3.618   4.483  17.570  0.00  0.00    +0.000 A 
ATOM      2  C   UNL     1       2.818   5.385  18.282  0.00  0.00    +0.000 A 
ATOM      3  C   UNL     1       3.028   6.757  18.152  0.00  0.00    +0.000 A 
ATOM      4  N   UNL     1       3.984   7.245  17.325  0.00  0.00    +0.000 NA
ATOM      5  C   UNL     1       4.744   6.352  16.662  0.00  0.00    +0.000 A 
ATOM      6  C   UNL     1       4.627   4.975  16.741  0.00  0.00    +0.000 A 
ENDROOT
BRANCH   3   7
ATOM      7  C   UNL     1       2.230   7.752  18.898  0.00  0.00    +0.000 A 
ATOM      8  C   UNL     1       1.898   7.564  20.254  0.00  0.00    +0.000 A 
ATOM      9  C   UNL     1       1.116   8.489  20.950  0.00  0.00    +0.000 A 
ATOM     10  C   UNL     1       0.655   9.634  20.308  0.00  0.00    +0.000 A 
ATOM     11  C   UNL     1       0.984   9.855  18.974  0.00  0.00    +0.000 A 
ATOM     12  C   UNL     1       1.766   8.927  18.279  0.00  0.00    +0.000 A 
ENDBRANCH   3   7
BRANCH   1  14
ATOM     13  C   UNL     1       3.903   2.573  19.516  0.00  0.00    +0.000 C 
ATOM     14  S   UNL     1       3.304   2.735  17.812  0.00  0.00    +0.000 S 
ENDBRANCH   1  14
BRANCH   5  15
ATOM     15  O   UNL     1       5.678   6.946  15.875  0.00  0.00    +0.000 OA
ATOM     16  H   UNL     1       5.109   7.381  15.213  0.00  0.00    +0.000 HD
ENDBRANCH   5  15
BRANCH   6  17
ATOM     17  C   UNL     1       5.503   4.127  15.998  0.00  0.00    +0.000 C 
ATOM     18  N   UNL     1       6.230   3.455  15.389  0.00  0.00    +0.000 NA
ENDBRANCH   6  17
TORSDOF 4
ENDMDL
MODEL 5
REMARK VINA RESULT:      -6.1      1.129      1.298
REMARK  Name = 
REMARK  5 active torsions:
REMARK  status: ('A' for Active; 'I' for Inactive)
REMARK    1  A    between atoms: C_1  and  S_2
REMARK    2  A    between atoms: S_2  and  C_3
REMARK    3  A    between atoms: C_5  and  C_6
REMARK    4  A    between atoms: C_13  and  O_14
REMARK    5  A    between atoms: C_15  and  C_16
REMARK                            x       y       z     vdW  Elec       q    Type
REMARK                         _______ _______ _______ _____ _____    ______ ____
ROOT
ATOM      1  C   UNL     1       6.213   5.584  17.266  0.00  0.00    +0.000 A 
ATOM      2  C   UNL     1       5.174   5.285  18.156  0.00  0.00    +0.000 A 
ATOM      3  C   UNL     1       4.122   4.466  17.749  0.00  0.00    +0.000 A 
ATOM      4  N   UNL     1       4.091   3.928  16.506  0.00  0.00    +0.000 NA
ATOM      5  C   UNL     1       5.099   4.243  15.671  0.00  0.00    +0.000 A 
ATOM      6  C   UNL     1       6.173   5.061  15.973  0.00  0.00    +0.000 A 
ENDROOT
BRANCH   3   7
ATOM      7  C   UNL     1       2.988   4.138  18.639  0.00  0.00    +0.000 A 
ATOM      8  C   UNL     1       2.854   4.729  19.911  0.00  0.00    +0.000 A 
ATOM      9  C   UNL     1       1.800   4.394  20.765  0.00  0.00    +0.000 A 
ATOM     10  C   UNL     1       0.845   3.467  20.363  0.00  0.00    +0.000 A 
ATOM     11  C   UNL     1       0.941   2.882  19.103  0.00  0.00    +0.000 A 
ATOM     12  C   UNL     1       1.998   3.218  18.250  0.00  0.00    +0.000 A 
ENDBRANCH   3   7
BRANCH   1  14
ATOM     13  C   UNL     1       7.935   5.796  19.388  0.00  0.00    +0.000 C 
ATOM     14  S   UNL     1       7.515   6.666  17.855  0.00  0.00    +0.000 S 
ENDBRANCH   1  14
BRANCH   5  15
ATOM     15  O   UNL     1       4.963   3.663  14.450  0.00  0.00    +0.000 OA
ATOM     16  H   UNL     1       3.996   3.544  14.411  0.00  0.00    +0.000 HD
ENDBRANCH   5  15
BRANCH   6  17
ATOM     17  C   UNL     1       7.178   5.334  14.995  0.00  0.00    +0.000 C 
ATOM     18  N   UNL     1       8.006   5.536  14.205  0.00  0.00    +0.000 NA
ENDBRANCH   6  17
TORSDOF 4
ENDMDL
MODEL 6
REMARK VINA RESULT:      -6.1      1.130      1.219
REMARK  Name = 
REMARK  5 active torsions:
REMARK  status: ('A' for Active; 'I' for Inactive)
REMARK    1  A    between atoms: C_1  and  S_2
REMARK    2  A    between atoms: S_2  and  C_3
REMARK    3  A    between atoms: C_5  and  C_6
REMARK    4  A    between atoms: C_13  and  O_14
REMARK    5  A    between atoms: C_15  and  C_16
REMARK                            x       y       z     vdW  Elec       q    Type
REMARK                         _______ _______ _______ _____ _____    ______ ____
ROOT
ATOM      1  C   UNL     1       6.180   5.595  17.258  0.00  0.00    +0.000 A 
ATOM      2  C   UNL     1       5.135   5.308  18.145  0.00  0.00    +0.000 A 
ATOM      3  C   UNL     1       4.100   4.461  17.752  0.00  0.00    +0.000 A 
ATOM      4  N   UNL     1       4.093   3.882  16.527  0.00  0.00    +0.000 NA
ATOM      5  C   UNL     1       5.107   4.186  15.694  0.00  0.00    +0.000 A 
ATOM      6  C   UNL     1       6.164   5.030  15.983  0.00  0.00    +0.000 A 
ENDROOT
BRANCH   3   7
ATOM      7  C   UNL     1       2.961   4.143  18.639  0.00  0.00    +0.000 A 
ATOM      8  C   UNL     1       1.992   3.186  18.280  0.00  0.00    +0.000 A 
ATOM      9  C   UNL     1       0.898   2.909  19.104  0.00  0.00    +0.000 A 
ATOM     10  C   UNL     1       0.752   3.577  20.316  0.00  0.00    +0.000 A 
ATOM     11  C   UNL     1       1.705   4.514  20.705  0.00  0.00    +0.000 A 
ATOM     12  C   UNL     1       2.799   4.789  19.878  0.00  0.00    +0.000 A 
ENDBRANCH   3   7
BRANCH   1  14
ATOM     13  C   UNL     1       7.920   5.865  19.360  0.00  0.00    +0.000 C 
ATOM     14  S   UNL     1       7.458   6.716  17.827  0.00  0.00    +0.000 S 
ENDBRANCH   1  14
BRANCH   5  15
ATOM     15  O   UNL     1       4.995   3.565  14.491  0.00  0.00    +0.000 OA
ATOM     16  H   UNL     1       5.273   4.281  13.889  0.00  0.00    +0.000 HD
ENDBRANCH   5  15
BRANCH   6  17
ATOM     17  C   UNL     1       7.177   5.287  15.008  0.00  0.00    +0.000 C 
ATOM     18  N   UNL     1       7.996   5.519  14.217  0.00  0.00    +0.000 NA
ENDBRANCH   6  17
TORSDOF 4
ENDMDL
MODEL 7
REMARK VINA RESULT:      -6.1      2.913      6.385
REMARK  Name = 
REMARK  5 active torsions:
REMARK  status: ('A' for Active; 'I' for Inactive)
REMARK    1  A    between atoms: C_1  and  S_2
REMARK    2  A    between atoms: S_2  and  C_3
REMARK    3  A    between atoms: C_5  and  C_6
REMARK    4  A    between atoms: C_13  and  O_14
REMARK    5  A    between atoms: C_15  and  C_16
REMARK                            x       y       z     vdW  Elec       q    Type
REMARK                         _______ _______ _______ _____ _____    ______ ____
ROOT
ATOM      1  C   UNL     1       3.829   3.777  17.732  0.00  0.00    +0.000 A 
ATOM      2  C   UNL     1       4.564   3.557  16.560  0.00  0.00    +0.000 A 
ATOM      3  C   UNL     1       5.049   4.640  15.828  0.00  0.00    +0.000 A 
ATOM      4  N   UNL     1       4.843   5.914  16.240  0.00  0.00    +0.000 NA
ATOM      5  C   UNL     1       4.123   6.092  17.364  0.00  0.00    +0.000 A 
ATOM      6  C   UNL     1       3.583   5.086  18.146  0.00  0.00    +0.000 A 
ENDROOT
BRANCH   3   7
ATOM      7  C   UNL     1       5.809   4.466  14.573  0.00  0.00    +0.000 A 
ATOM      8  C   UNL     1       7.045   5.110  14.364  0.00  0.00    +0.000 A 
ATOM      9  C   UNL     1       7.749   4.971  13.165  0.00  0.00    +0.000 A 
ATOM     10  C   UNL     1       7.238   4.173  12.146  0.00  0.00    +0.000 A 
ATOM     11  C   UNL     1       6.029   3.508  12.333  0.00  0.00    +0.000 A 
ATOM     12  C   UNL     1       5.326   3.650  13.534  0.00  0.00    +0.000 A 
ENDBRANCH   3   7
BRANCH   1  14
ATOM     13  C   UNL     1       4.421   2.286  19.955  0.00  0.00    +0.000 C 
ATOM     14  S   UNL     1       3.216   2.334  18.601  0.00  0.00    +0.000 S 
ENDBRANCH   1  14
BRANCH   5  15
ATOM     15  O   UNL     1       3.965   7.405  17.678  0.00  0.00    +0.000 OA
ATOM     16  H   UNL     1       3.712   7.339  18.617  0.00  0.00    +0.000 HD
ENDBRANCH   5  15
BRANCH   6  17
ATOM     17  C   UNL     1       2.824   5.401  19.314  0.00  0.00    +0.000 C 
ATOM     18  N   UNL     1       2.223   5.671  20.272  0.00  0.00    +0.000 NA
ENDBRANCH   6  17
TORSDOF 4
ENDMDL
MODEL 8
REMARK VINA RESULT:      -6.0      3.835      5.669
REMARK  Name = 
REMARK  5 active torsions:
REMARK  status: ('A' for Active; 'I' for Inactive)
REMARK    1  A    between atoms: C_1  and  S_2
REMARK    2  A    between atoms: S_2  and  C_3
REMARK    3  A    between atoms: C_5  and  C_6
REMARK    4  A    between atoms: C_13  and  O_14
REMARK    5  A    between atoms: C_15  and  C_16
REMARK                            x       y       z     vdW  Elec       q    Type
REMARK                         _______ _______ _______ _____ _____    ______ ____
ROOT
ATOM      1  C   UNL     1       2.446   4.046  20.003  0.00  0.00    +0.000 A 
ATOM      2  C   UNL     1       1.891   5.319  19.823  0.00  0.00    +0.000 A 
ATOM      3  C   UNL     1       2.694   6.376  19.398  0.00  0.00    +0.000 A 
ATOM      4  N   UNL     1       4.009   6.194  19.127  0.00  0.00    +0.000 NA
ATOM      5  C   UNL     1       4.514   4.960  19.320  0.00  0.00    +0.000 A 
ATOM      6  C   UNL     1       3.806   3.856  19.759  0.00  0.00    +0.000 A 
ENDROOT
BRANCH   3   7
ATOM      7  C   UNL     1       2.166   7.745  19.215  0.00  0.00    +0.000 A 
ATOM      8  C   UNL     1       1.450   8.400  20.235  0.00  0.00    +0.000 A 
ATOM      9  C   UNL     1       0.923   9.682  20.051  0.00  0.00    +0.000 A 
ATOM     10  C   UNL     1       1.110  10.344  18.843  0.00  0.00    +0.000 A 
ATOM     11  C   UNL     1       1.832   9.729  17.824  0.00  0.00    +0.000 A 
ATOM     12  C   UNL     1       2.357   8.445  18.011  0.00  0.00    +0.000 A 
ENDBRANCH   3   7
BRANCH   1  14
ATOM     13  C   UNL     1       0.777   2.128  18.976  0.00  0.00    +0.000 C 
ATOM     14  S   UNL     1       1.354   2.747  20.579  0.00  0.00    +0.000 S 
ENDBRANCH   1  14
BRANCH   5  15
ATOM     15  O   UNL     1       5.841   4.892  19.034  0.00  0.00    +0.000 OA
ATOM     16  H   UNL     1       6.223   5.283  19.842  0.00  0.00    +0.000 HD
ENDBRANCH   5  15
BRANCH   6  17
ATOM     17  C   UNL     1       4.458   2.598  19.939  0.00  0.00    +0.000 C 
ATOM     18  N   UNL     1       4.988   1.577  20.109  0.00  0.00    +0.000 NA
ENDBRANCH   6  17
TORSDOF 4
ENDMDL
MODEL 9
REMARK VINA RESULT:      -6.0      2.964      6.449
REMARK  Name = 
REMARK  5 active torsions:
REMARK  status: ('A' for Active; 'I' for Inactive)
REMARK    1  A    between atoms: C_1  and  S_2
REMARK    2  A    between atoms: S_2  and  C_3
REMARK    3  A    between atoms: C_5  and  C_6
REMARK    4  A    between atoms: C_13  and  O_14
REMARK    5  A    between atoms: C_15  and  C_16
REMARK                            x       y       z     vdW  Elec       q    Type
REMARK                         _______ _______ _______ _____ _____    ______ ____
ROOT
ATOM      1  C   UNL     1       4.163   3.914  17.834  0.00  0.00    +0.000 A 
ATOM      2  C   UNL     1       4.847   3.675  16.635  0.00  0.00    +0.000 A 
ATOM      3  C   UNL     1       5.188   4.741  15.803  0.00  0.00    +0.000 A 
ATOM      4  N   UNL     1       4.892   6.019  16.142  0.00  0.00    +0.000 NA
ATOM      5  C   UNL     1       4.225   6.213  17.296  0.00  0.00    +0.000 A 
ATOM      6  C   UNL     1       3.824   5.223  18.175  0.00  0.00    +0.000 A 
ENDROOT
BRANCH   3   7
ATOM      7  C   UNL     1       5.888   4.544  14.516  0.00  0.00    +0.000 A 
ATOM      8  C   UNL     1       5.378   3.685  13.524  0.00  0.00    +0.000 A 
ATOM      9  C   UNL     1       6.056   3.474  12.320  0.00  0.00    +0.000 A 
ATOM     10  C   UNL     1       7.258   4.130  12.074  0.00  0.00    +0.000 A 
ATOM     11  C   UNL     1       7.775   5.002  13.028  0.00  0.00    +0.000 A 
ATOM     12  C   UNL     1       7.094   5.209  14.233  0.00  0.00    +0.000 A 
ENDBRANCH   3   7
BRANCH   1  14
ATOM     13  C   UNL     1       2.064   2.189  18.199  0.00  0.00    +0.000 C 
ATOM     14  S   UNL     1       3.735   2.489  18.834  0.00  0.00    +0.000 S 
ENDBRANCH   1  14
BRANCH   5  15
ATOM     15  O   UNL     1       3.966   7.526  17.532  0.00  0.00    +0.000 OA
ATOM     16  H   UNL     1       4.078   7.898  16.637  0.00  0.00    +0.000 HD
ENDBRANCH   5  15
BRANCH   6  17
ATOM     17  C   UNL     1       3.108   5.553  19.366  0.00  0.00    +0.000 C 
ATOM     18  N   UNL     1       2.545   5.831  20.344  0.00  0.00    +0.000 NA
ENDBRANCH   6  17
TORSDOF 4
ENDMDL
