MODEL 1
REMARK VINA RESULT:      -7.0      0.000      0.000
REMARK  Name = 
REMARK  3 active torsions:
REMARK  status: ('A' for Active; 'I' for Inactive)
REMARK    1  A    between atoms: C_1  and  N_2
REMARK    2  A    between atoms: C_8  and  C_9
REMARK    3  A    between atoms: C_16  and  C_17
REMARK                            x       y       z     vdW  Elec       q    Type
REMARK                         _______ _______ _______ _____ _____    ______ ____
ROOT
ATOM      1  C   UNL     1       1.848   4.175  21.495  0.00  0.00    +0.000 C 
ATOM      2  N   UNL     1       2.043   4.806  20.196  0.00  0.00    +0.000 NA
ATOM      3  C   UNL     1       3.453   5.173  20.025  0.00  0.00    +0.000 C 
ATOM      4  C   UNL     1       4.025   3.801  19.535  0.00  0.00    +0.000 C 
ATOM      5  C   UNL     1       2.866   3.046  18.880  0.00  0.00    +0.000 C 
ATOM      6  C   UNL     1       1.751   4.062  18.956  0.00  0.00    +0.000 C 
ATOM      7  C   UNL     1       1.871   4.969  17.672  0.00  0.00    +0.000 C 
ATOM      8  C   UNL     1       3.049   6.015  17.665  0.00  0.00    +0.000 C 
ATOM      9  C   UNL     1       3.341   6.442  19.120  0.00  0.00    +0.000 C 
ENDROOT
BRANCH   9  10
ATOM     10  C   UNL     1       2.288   7.447  19.713  0.00  0.00    +0.000 A 
ATOM     11  N   UNL     1       1.891   7.419  20.973  0.00  0.00    +0.000 NA
ATOM     12  C   UNL     1       0.978   8.440  21.225  0.00  0.00    +0.000 A 
ATOM     13  C   UNL     1       0.399   8.748  22.473  0.00  0.00    +0.000 A 
ATOM     14  C   UNL     1      -0.381   9.902  22.615  0.00  0.00    +0.000 A 
ATOM     15  C   UNL     1      -0.665  10.706  21.514  0.00  0.00    +0.000 A 
ATOM     16  C   UNL     1      -0.181  10.369  20.247  0.00  0.00    +0.000 A 
ATOM     17  C   UNL     1       0.668   9.253  20.137  0.00  0.00    +0.000 A 
ATOM     18  S   UNL     1       1.515   8.678  18.769  0.00  0.00    +0.000 S 
ENDBRANCH   9  10
BRANCH   8  19
ATOM     19  C   UNL     1       4.309   5.650  16.840  0.00  0.00    +0.000 A 
ATOM     20  C   UNL     1       4.290   4.513  16.027  0.00  0.00    +0.000 A 
ATOM     21  C   UNL     1       5.376   4.205  15.178  0.00  0.00    +0.000 A 
ATOM     22  C   UNL     1       6.499   5.022  15.154  0.00  0.00    +0.000 A 
ATOM     23 CL   UNL     1       7.816   4.630  14.127  0.00  0.00    +0.000 Cl
ATOM     24  C   UNL     1       6.544   6.158  15.940  0.00  0.00    +0.000 A 
ATOM     25  C   UNL     1       5.452   6.478  16.754  0.00  0.00    +0.000 A 
ENDBRANCH   8  19
TORSDOF 2
ENDMDL
MODEL 2
REMARK VINA RESULT:      -6.8      5.886      9.212
REMARK  Name = 
REMARK  3 active torsions:
REMARK  status: ('A' for Active; 'I' for Inactive)
REMARK    1  A    between atoms: C_1  and  N_2
REMARK    2  A    between atoms: C_8  and  C_9
REMARK    3  A    between atoms: C_16  and  C_17
REMARK                            x       y       z     vdW  Elec       q    Type
REMARK                         _______ _______ _______ _____ _____    ______ ____
ROOT
ATOM      1  C   UNL     1      -1.684  16.214  21.766  0.00  0.00    +0.000 C 
ATOM      2  N   UNL     1      -1.768  14.762  21.861  0.00  0.00    +0.000 NA
ATOM      3  C   UNL     1      -1.717  14.169  20.520  0.00  0.00    +0.000 C 
ATOM      4  C   UNL     1      -0.166  14.146  20.302  0.00  0.00    +0.000 C 
ATOM      5  C   UNL     1       0.476  14.098  21.690  0.00  0.00    +0.000 C 
ATOM      6  C   UNL     1      -0.734  14.003  22.589  0.00  0.00    +0.000 C 
ATOM      7  C   UNL     1      -1.093  12.473  22.714  0.00  0.00    +0.000 C 
ATOM      8  C   UNL     1      -1.769  11.811  21.455  0.00  0.00    +0.000 C 
ATOM      9  C   UNL     1      -2.588  12.886  20.709  0.00  0.00    +0.000 C 
ENDROOT
BRANCH   9  10
ATOM     10  C   UNL     1      -3.950  13.246  21.406  0.00  0.00    +0.000 A 
ATOM     11  N   UNL     1      -4.433  12.578  22.439  0.00  0.00    +0.000 NA
ATOM     12  C   UNL     1      -5.635  13.136  22.867  0.00  0.00    +0.000 A 
ATOM     13  C   UNL     1      -6.394  12.720  23.981  0.00  0.00    +0.000 A 
ATOM     14  C   UNL     1      -7.502  13.473  24.391  0.00  0.00    +0.000 A 
ATOM     15  C   UNL     1      -7.917  14.581  23.657  0.00  0.00    +0.000 A 
ATOM     16  C   UNL     1      -7.238  14.956  22.495  0.00  0.00    +0.000 A 
ATOM     17  C   UNL     1      -6.080  14.240  22.143  0.00  0.00    +0.000 A 
ATOM     18  S   UNL     1      -4.975  14.539  20.875  0.00  0.00    +0.000 S 
ENDBRANCH   9  10
BRANCH   8  19
ATOM     19  C   UNL     1      -0.861  10.949  20.541  0.00  0.00    +0.000 A 
ATOM     20  C   UNL     1      -1.173  10.828  19.183  0.00  0.00    +0.000 A 
ATOM     21  C   UNL     1      -0.315  10.143  18.296  0.00  0.00    +0.000 A 
ATOM     22  C   UNL     1       0.854   9.556  18.766  0.00  0.00    +0.000 A 
ATOM     23 CL   UNL     1       1.882   8.717  17.679  0.00  0.00    +0.000 Cl
ATOM     24  C   UNL     1       1.193   9.666  20.101  0.00  0.00    +0.000 A 
ATOM     25  C   UNL     1       0.357  10.375  20.970  0.00  0.00    +0.000 A 
ENDBRANCH   8  19
TORSDOF 2
ENDMDL
MODEL 3
REMARK VINA RESULT:      -6.8      3.181      7.363
REMARK  Name = 
REMARK  3 active torsions:
REMARK  status: ('A' for Active; 'I' for Inactive)
REMARK    1  A    between atoms: C_1  and  N_2
REMARK    2  A    between atoms: C_8  and  C_9
REMARK    3  A    between atoms: C_16  and  C_17
REMARK                            x       y       z     vdW  Elec       q    Type
REMARK                         _______ _______ _______ _____ _____    ______ ____
ROOT
ATOM      1  C   UNL     1       3.472   1.989  17.883  0.00  0.00    +0.000 C 
ATOM      2  N   UNL     1       3.758   3.397  18.130  0.00  0.00    +0.000 NA
ATOM      3  C   UNL     1       2.593   4.214  17.771  0.00  0.00    +0.000 C 
ATOM      4  C   UNL     1       1.755   4.069  19.086  0.00  0.00    +0.000 C 
ATOM      5  C   UNL     1       2.747   3.776  20.214  0.00  0.00    +0.000 C 
ATOM      6  C   UNL     1       4.071   3.864  19.494  0.00  0.00    +0.000 C 
ATOM      7  C   UNL     1       4.506   5.379  19.522  0.00  0.00    +0.000 C 
ATOM      8  C   UNL     1       3.727   6.346  18.553  0.00  0.00    +0.000 C 
ATOM      9  C   UNL     1       3.271   5.546  17.314  0.00  0.00    +0.000 C 
ENDROOT
BRANCH   9  10
ATOM     10  C   UNL     1       4.425   5.249  16.289  0.00  0.00    +0.000 A 
ATOM     11  N   UNL     1       4.298   4.401  15.283  0.00  0.00    +0.000 NA
ATOM     12  C   UNL     1       5.465   4.360  14.524  0.00  0.00    +0.000 A 
ATOM     13  C   UNL     1       5.663   3.616  13.343  0.00  0.00    +0.000 A 
ATOM     14  C   UNL     1       6.832   3.792  12.593  0.00  0.00    +0.000 A 
ATOM     15  C   UNL     1       7.845   4.632  13.048  0.00  0.00    +0.000 A 
ATOM     16  C   UNL     1       7.714   5.307  14.264  0.00  0.00    +0.000 A 
ATOM     17  C   UNL     1       6.500   5.183  14.963  0.00  0.00    +0.000 A 
ATOM     18  S   UNL     1       5.993   5.981  16.387  0.00  0.00    +0.000 S 
ENDBRANCH   9  10
BRANCH   8  19
ATOM     19  C   UNL     1       2.621   7.232  19.184  0.00  0.00    +0.000 A 
ATOM     20  C   UNL     1       2.237   7.008  20.509  0.00  0.00    +0.000 A 
ATOM     21  C   UNL     1       1.314   7.860  21.155  0.00  0.00    +0.000 A 
ATOM     22  C   UNL     1       0.752   8.930  20.470  0.00  0.00    +0.000 A 
ATOM     23 CL   UNL     1      -0.377   9.950  21.262  0.00  0.00    +0.000 Cl
ATOM     24  C   UNL     1       1.119   9.182  19.162  0.00  0.00    +0.000 A 
ATOM     25  C   UNL     1       2.060   8.356  18.537  0.00  0.00    +0.000 A 
ENDBRANCH   8  19
TORSDOF 2
ENDMDL
MODEL 4
REMARK VINA RESULT:      -6.7      3.249      7.428
REMARK  Name = 
REMARK  3 active torsions:
REMARK  status: ('A' for Active; 'I' for Inactive)
REMARK    1  A    between atoms: C_1  and  N_2
REMARK    2  A    between atoms: C_8  and  C_9
REMARK    3  A    between atoms: C_16  and  C_17
REMARK                            x       y       z     vdW  Elec       q    Type
REMARK                         _______ _______ _______ _____ _____    ______ ____
ROOT
ATOM      1  C   UNL     1       3.708   1.858  17.745  0.00  0.00    +0.000 C 
ATOM      2  N   UNL     1       4.015   3.264  17.978  0.00  0.00    +0.000 NA
ATOM      3  C   UNL     1       2.831   4.086  17.700  0.00  0.00    +0.000 C 
ATOM      4  C   UNL     1       2.082   3.939  19.067  0.00  0.00    +0.000 C 
ATOM      5  C   UNL     1       3.145   3.637  20.126  0.00  0.00    +0.000 C 
ATOM      6  C   UNL     1       4.419   3.724  19.320  0.00  0.00    +0.000 C 
ATOM      7  C   UNL     1       4.861   5.238  19.324  0.00  0.00    +0.000 C 
ATOM      8  C   UNL     1       4.022   6.211  18.414  0.00  0.00    +0.000 C 
ATOM      9  C   UNL     1       3.483   5.417  17.204  0.00  0.00    +0.000 C 
ENDROOT
BRANCH   9  10
ATOM     10  C   UNL     1       4.565   5.121  16.104  0.00  0.00    +0.000 A 
ATOM     11  N   UNL     1       4.382   4.251  15.125  0.00  0.00    +0.000 NA
ATOM     12  C   UNL     1       5.491   4.216  14.284  0.00  0.00    +0.000 A 
ATOM     13  C   UNL     1       5.617   3.452  13.105  0.00  0.00    +0.000 A 
ATOM     14  C   UNL     1       6.726   3.635  12.270  0.00  0.00    +0.000 A 
ATOM     15  C   UNL     1       7.753   4.501  12.634  0.00  0.00    +0.000 A 
ATOM     16  C   UNL     1       7.697   5.197  13.844  0.00  0.00    +0.000 A 
ATOM     17  C   UNL     1       6.539   5.066  14.632  0.00  0.00    +0.000 A 
ATOM     18  S   UNL     1       6.122   5.882  16.074  0.00  0.00    +0.000 S 
ENDBRANCH   9  10
BRANCH   8  19
ATOM     19  C   UNL     1       2.965   7.098  19.120  0.00  0.00    +0.000 A 
ATOM     20  C   UNL     1       2.397   8.172  18.427  0.00  0.00    +0.000 A 
ATOM     21  C   UNL     1       1.355   8.937  18.993  0.00  0.00    +0.000 A 
ATOM     22  C   UNL     1       0.887   8.645  20.269  0.00  0.00    +0.000 A 
ATOM     23 CL   UNL     1      -0.373   9.590  20.951  0.00  0.00    +0.000 Cl
ATOM     24  C   UNL     1       1.421   7.584  20.975  0.00  0.00    +0.000 A 
ATOM     25  C   UNL     1       2.431   6.808  20.396  0.00  0.00    +0.000 A 
ENDBRANCH   8  19
TORSDOF 2
ENDMDL
MODEL 5
REMARK VINA RESULT:      -6.7      4.163      6.980
REMARK  Name = 
REMARK  3 active torsions:
REMARK  status: ('A' for Active; 'I' for Inactive)
REMARK    1  A    between atoms: C_1  and  N_2
REMARK    2  A    between atoms: C_8  and  C_9
REMARK    3  A    between atoms: C_16  and  C_17
REMARK                            x       y       z     vdW  Elec       q    Type
REMARK                         _______ _______ _______ _____ _____    ______ ____
ROOT
ATOM      1  C   UNL     1      -3.780  12.216  19.023  0.00  0.00    +0.000 C 
ATOM      2  N   UNL     1      -2.351  12.116  19.289  0.00  0.00    +0.000 NA
ATOM      3  C   UNL     1      -2.019  10.756  19.731  0.00  0.00    +0.000 C 
ATOM      4  C   UNL     1      -1.893  10.050  18.340  0.00  0.00    +0.000 C 
ATOM      5  C   UNL     1      -1.524  11.134  17.324  0.00  0.00    +0.000 C 
ATOM      6  C   UNL     1      -1.375  12.349  18.207  0.00  0.00    +0.000 C 
ATOM      7  C   UNL     1       0.111  12.353  18.734  0.00  0.00    +0.000 C 
ATOM      8  C   UNL     1       0.458  11.295  19.848  0.00  0.00    +0.000 C 
ATOM      9  C   UNL     1      -0.810  11.022  20.685  0.00  0.00    +0.000 C 
ENDROOT
BRANCH   9  10
ATOM     10  C   UNL     1      -1.159  12.166  21.705  0.00  0.00    +0.000 A 
ATOM     11  N   UNL     1      -2.262  12.174  22.433  0.00  0.00    +0.000 NA
ATOM     12  C   UNL     1      -2.292  13.289  23.268  0.00  0.00    +0.000 A 
ATOM     13  C   UNL     1      -3.286  13.585  24.223  0.00  0.00    +0.000 A 
ATOM     14  C   UNL     1      -3.108  14.658  25.106  0.00  0.00    +0.000 A 
ATOM     15  C   UNL     1      -1.999  15.492  24.994  0.00  0.00    +0.000 A 
ATOM     16  C   UNL     1      -1.049  15.276  23.992  0.00  0.00    +0.000 A 
ATOM     17  C   UNL     1      -1.200  14.147  23.168  0.00  0.00    +0.000 A 
ATOM     18  S   UNL     1      -0.147  13.549  21.962  0.00  0.00    +0.000 S 
ENDBRANCH   9  10
BRANCH   8  19
ATOM     19  C   UNL     1       1.213  10.019  19.396  0.00  0.00    +0.000 A 
ATOM     20  C   UNL     1       1.280   8.920  20.257  0.00  0.00    +0.000 A 
ATOM     21  C   UNL     1       1.863   7.703  19.843  0.00  0.00    +0.000 A 
ATOM     22  C   UNL     1       2.402   7.583  18.568  0.00  0.00    +0.000 A 
ATOM     23 CL   UNL     1       3.118   6.102  18.082  0.00  0.00    +0.000 Cl
ATOM     24  C   UNL     1       2.343   8.649  17.691  0.00  0.00    +0.000 A 
ATOM     25  C   UNL     1       1.734   9.843  18.094  0.00  0.00    +0.000 A 
ENDBRANCH   8  19
TORSDOF 2
ENDMDL
MODEL 6
REMARK VINA RESULT:      -6.5      4.000      6.855
REMARK  Name = 
REMARK  3 active torsions:
REMARK  status: ('A' for Active; 'I' for Inactive)
REMARK    1  A    between atoms: C_1  and  N_2
REMARK    2  A    between atoms: C_8  and  C_9
REMARK    3  A    between atoms: C_16  and  C_17
REMARK                            x       y       z     vdW  Elec       q    Type
REMARK                         _______ _______ _______ _____ _____    ______ ____
ROOT
ATOM      1  C   UNL     1      -3.550  12.283  19.208  0.00  0.00    +0.000 C 
ATOM      2  N   UNL     1      -2.113  12.083  19.351  0.00  0.00    +0.000 NA
ATOM      3  C   UNL     1      -1.845  10.728  19.849  0.00  0.00    +0.000 C 
ATOM      4  C   UNL     1      -1.903   9.936  18.500  0.00  0.00    +0.000 C 
ATOM      5  C   UNL     1      -1.550  10.927  17.388  0.00  0.00    +0.000 C 
ATOM      6  C   UNL     1      -1.228  12.175  18.175  0.00  0.00    +0.000 C 
ATOM      7  C   UNL     1       0.297  12.089  18.567  0.00  0.00    +0.000 C 
ATOM      8  C   UNL     1       0.666  11.072  19.711  0.00  0.00    +0.000 C 
ATOM      9  C   UNL     1      -0.535  10.950  20.673  0.00  0.00    +0.000 C 
ENDROOT
BRANCH   9  10
ATOM     10  C   UNL     1      -0.700  12.174  21.645  0.00  0.00    +0.000 A 
ATOM     11  N   UNL     1       0.037  13.268  21.561  0.00  0.00    +0.000 NA
ATOM     12  C   UNL     1      -0.347  14.196  22.526  0.00  0.00    +0.000 A 
ATOM     13  C   UNL     1       0.178  15.494  22.687  0.00  0.00    +0.000 A 
ATOM     14  C   UNL     1      -0.412  16.378  23.598  0.00  0.00    +0.000 A 
ATOM     15  C   UNL     1      -1.460  15.960  24.414  0.00  0.00    +0.000 A 
ATOM     16  C   UNL     1      -1.934  14.648  24.342  0.00  0.00    +0.000 A 
ATOM     17  C   UNL     1      -1.386  13.798  23.364  0.00  0.00    +0.000 A 
ATOM     18  S   UNL     1      -1.845  12.207  22.945  0.00  0.00    +0.000 S 
ENDBRANCH   9  10
BRANCH   8  19
ATOM     19  C   UNL     1       1.277   9.715  19.276  0.00  0.00    +0.000 A 
ATOM     20  C   UNL     1       1.817   9.587  17.993  0.00  0.00    +0.000 A 
ATOM     21  C   UNL     1       2.479   8.405  17.595  0.00  0.00    +0.000 A 
ATOM     22  C   UNL     1       2.587   7.334  18.473  0.00  0.00    +0.000 A 
ATOM     23 CL   UNL     1       3.384   5.899  17.973  0.00  0.00    +0.000 Cl
ATOM     24  C   UNL     1       2.071   7.434  19.751  0.00  0.00    +0.000 A 
ATOM     25  C   UNL     1       1.446   8.620  20.153  0.00  0.00    +0.000 A 
ENDBRANCH   8  19
TORSDOF 2
ENDMDL
MODEL 7
REMARK VINA RESULT:      -6.5      8.421      9.989
REMARK  Name = 
REMARK  3 active torsions:
REMARK  status: ('A' for Active; 'I' for Inactive)
REMARK    1  A    between atoms: C_1  and  N_2
REMARK    2  A    between atoms: C_8  and  C_9
REMARK    3  A    between atoms: C_16  and  C_17
REMARK                            x       y       z     vdW  Elec       q    Type
REMARK                         _______ _______ _______ _____ _____    ______ ____
ROOT
ATOM      1  C   UNL     1       5.101  15.298  23.433  0.00  0.00    +0.000 C 
ATOM      2  N   UNL     1       6.401  14.640  23.398  0.00  0.00    +0.000 NA
ATOM      3  C   UNL     1       6.481  13.755  22.230  0.00  0.00    +0.000 C 
ATOM      4  C   UNL     1       6.889  14.799  21.137  0.00  0.00    +0.000 C 
ATOM      5  C   UNL     1       7.603  15.944  21.861  0.00  0.00    +0.000 C 
ATOM      6  C   UNL     1       7.636  15.439  23.283  0.00  0.00    +0.000 C 
ATOM      7  C   UNL     1       8.934  14.555  23.425  0.00  0.00    +0.000 C 
ATOM      8  C   UNL     1       8.888  13.135  22.746  0.00  0.00    +0.000 C 
ATOM      9  C   UNL     1       7.429  12.628  22.754  0.00  0.00    +0.000 C 
ENDROOT
BRANCH   9  10
ATOM     10  C   UNL     1       6.942  12.111  24.155  0.00  0.00    +0.000 A 
ATOM     11  N   UNL     1       5.785  11.498  24.338  0.00  0.00    +0.000 NA
ATOM     12  C   UNL     1       5.631  11.125  25.671  0.00  0.00    +0.000 A 
ATOM     13  C   UNL     1       4.550  10.399  26.211  0.00  0.00    +0.000 A 
ATOM     14  C   UNL     1       4.601   9.954  27.538  0.00  0.00    +0.000 A 
ATOM     15  C   UNL     1       5.671  10.296  28.360  0.00  0.00    +0.000 A 
ATOM     16  C   UNL     1       6.709  11.097  27.875  0.00  0.00    +0.000 A 
ATOM     17  C   UNL     1       6.683  11.466  26.518  0.00  0.00    +0.000 A 
ATOM     18  S   UNL     1       7.858  12.313  25.612  0.00  0.00    +0.000 S 
ENDBRANCH   9  10
BRANCH   8  19
ATOM     19  C   UNL     1       9.610  12.983  21.383  0.00  0.00    +0.000 A 
ATOM     20  C   UNL     1       9.335  11.872  20.581  0.00  0.00    +0.000 A 
ATOM     21  C   UNL     1       9.888  11.751  19.287  0.00  0.00    +0.000 A 
ATOM     22  C   UNL     1      10.739  12.732  18.796  0.00  0.00    +0.000 A 
ATOM     23 CL   UNL     1      11.414  12.567  17.227  0.00  0.00    +0.000 Cl
ATOM     24  C   UNL     1      11.023  13.847  19.561  0.00  0.00    +0.000 A 
ATOM     25  C   UNL     1      10.446  13.980  20.829  0.00  0.00    +0.000 A 
ENDBRANCH   8  19
TORSDOF 2
ENDMDL
MODEL 8
REMARK VINA RESULT:      -6.5      4.229      8.283
REMARK  Name = 
REMARK  3 active torsions:
REMARK  status: ('A' for Active; 'I' for Inactive)
REMARK    1  A    between atoms: C_1  and  N_2
REMARK    2  A    between atoms: C_8  and  C_9
REMARK    3  A    between atoms: C_16  and  C_17
REMARK                            x       y       z     vdW  Elec       q    Type
REMARK                         _______ _______ _______ _____ _____    ______ ____
ROOT
ATOM      1  C   UNL     1      -1.693  10.001  17.480  0.00  0.00    +0.000 C 
ATOM      2  N   UNL     1      -0.901  10.359  18.650  0.00  0.00    +0.000 NA
ATOM      3  C   UNL     1       0.094  11.376  18.289  0.00  0.00    +0.000 C 
ATOM      4  C   UNL     1      -0.794  12.661  18.396  0.00  0.00    +0.000 C 
ATOM      5  C   UNL     1      -1.920  12.342  19.382  0.00  0.00    +0.000 C 
ATOM      6  C   UNL     1      -1.550  10.950  19.835  0.00  0.00    +0.000 C 
ATOM      7  C   UNL     1      -0.552  11.112  21.045  0.00  0.00    +0.000 C 
ATOM      8  C   UNL     1       0.913  11.563  20.684  0.00  0.00    +0.000 C 
ATOM      9  C   UNL     1       1.260  11.039  19.274  0.00  0.00    +0.000 C 
ENDROOT
BRANCH   9  10
ATOM     10  C   UNL     1       1.589   9.503  19.228  0.00  0.00    +0.000 A 
ATOM     11  N   UNL     1       1.442   8.701  20.269  0.00  0.00    +0.000 NA
ATOM     12  C   UNL     1       1.779   7.392  19.932  0.00  0.00    +0.000 A 
ATOM     13  C   UNL     1       1.680   6.265  20.774  0.00  0.00    +0.000 A 
ATOM     14  C   UNL     1       1.902   4.984  20.255  0.00  0.00    +0.000 A 
ATOM     15  C   UNL     1       2.306   4.814  18.934  0.00  0.00    +0.000 A 
ATOM     16  C   UNL     1       2.504   5.922  18.106  0.00  0.00    +0.000 A 
ATOM     17  C   UNL     1       2.197   7.196  18.618  0.00  0.00    +0.000 A 
ATOM     18  S   UNL     1       2.206   8.706  17.818  0.00  0.00    +0.000 S 
ENDBRANCH   9  10
BRANCH   8  19
ATOM     19  C   UNL     1       1.268  13.054  20.918  0.00  0.00    +0.000 A 
ATOM     20  C   UNL     1       2.340  13.621  20.222  0.00  0.00    +0.000 A 
ATOM     21  C   UNL     1       2.628  14.999  20.324  0.00  0.00    +0.000 A 
ATOM     22  C   UNL     1       1.857  15.817  21.140  0.00  0.00    +0.000 A 
ATOM     23 CL   UNL     1       2.225  17.488  21.264  0.00  0.00    +0.000 Cl
ATOM     24  C   UNL     1       0.785  15.288  21.834  0.00  0.00    +0.000 A 
ATOM     25  C   UNL     1       0.482  13.928  21.703  0.00  0.00    +0.000 A 
ENDBRANCH   8  19
TORSDOF 2
ENDMDL
MODEL 9
REMARK VINA RESULT:      -6.5      4.256      8.368
REMARK  Name = 
REMARK  3 active torsions:
REMARK  status: ('A' for Active; 'I' for Inactive)
REMARK    1  A    between atoms: C_1  and  N_2
REMARK    2  A    between atoms: C_8  and  C_9
REMARK    3  A    between atoms: C_16  and  C_17
REMARK                            x       y       z     vdW  Elec       q    Type
REMARK                         _______ _______ _______ _____ _____    ______ ____
ROOT
ATOM      1  C   UNL     1      -1.668   9.988  17.376  0.00  0.00    +0.000 C 
ATOM      2  N   UNL     1      -0.938  10.338  18.588  0.00  0.00    +0.000 NA
ATOM      3  C   UNL     1       0.048  11.385  18.294  0.00  0.00    +0.000 C 
ATOM      4  C   UNL     1      -0.874  12.647  18.387  0.00  0.00    +0.000 C 
ATOM      5  C   UNL     1      -2.035  12.281  19.315  0.00  0.00    +0.000 C 
ATOM      6  C   UNL     1      -1.653  10.888  19.755  0.00  0.00    +0.000 C 
ATOM      7  C   UNL     1      -0.714  11.046  21.012  0.00  0.00    +0.000 C 
ATOM      8  C   UNL     1       0.755  11.538  20.726  0.00  0.00    +0.000 C 
ATOM      9  C   UNL     1       1.176  11.053  19.322  0.00  0.00    +0.000 C 
ENDROOT
BRANCH   9  10
ATOM     10  C   UNL     1       1.543   9.526  19.260  0.00  0.00    +0.000 A 
ATOM     11  N   UNL     1       1.423   8.711  20.293  0.00  0.00    +0.000 NA
ATOM     12  C   UNL     1       1.790   7.414  19.941  0.00  0.00    +0.000 A 
ATOM     13  C   UNL     1       1.725   6.277  20.773  0.00  0.00    +0.000 A 
ATOM     14  C   UNL     1       1.975   5.007  20.240  0.00  0.00    +0.000 A 
ATOM     15  C   UNL     1       2.375   4.860  18.914  0.00  0.00    +0.000 A 
ATOM     16  C   UNL     1       2.540   5.980  18.096  0.00  0.00    +0.000 A 
ATOM     17  C   UNL     1       2.205   7.241  18.623  0.00  0.00    +0.000 A 
ATOM     18  S   UNL     1       2.171   8.759  17.838  0.00  0.00    +0.000 S 
ENDBRANCH   9  10
BRANCH   8  19
ATOM     19  C   UNL     1       1.064  13.031  21.007  0.00  0.00    +0.000 A 
ATOM     20  C   UNL     1       0.205  13.766  21.831  0.00  0.00    +0.000 A 
ATOM     21  C   UNL     1       0.507  15.095  22.198  0.00  0.00    +0.000 A 
ATOM     22  C   UNL     1       1.662  15.707  21.725  0.00  0.00    +0.000 A 
ATOM     23 CL   UNL     1       2.011  17.326  22.170  0.00  0.00    +0.000 Cl
ATOM     24  C   UNL     1       2.534  15.004  20.916  0.00  0.00    +0.000 A 
ATOM     25  C   UNL     1       2.248  13.675  20.582  0.00  0.00    +0.000 A 
ENDBRANCH   8  19
TORSDOF 2
ENDMDL
