MODEL 1
REMARK VINA RESULT:      -7.6      0.000      0.000
REMARK  Name = 
REMARK  8 active torsions:
REMARK  status: ('A' for Active; 'I' for Inactive)
REMARK    1  A    between atoms: C_1  and  C_2
REMARK    2  A    between atoms: C_5  and  S_6
REMARK    3  A    between atoms: S_6  and  N_9
REMARK    4  A    between atoms: N_9  and  C_10
REMARK    5  A    between atoms: C_10  and  C_11
REMARK    6  A    between atoms: C_10  and  C_18
REMARK    7  A    between atoms: C_11  and  C_12
REMARK    8  A    between atoms: C_18  and  O_20
REMARK                            x       y       z     vdW  Elec       q    Type
REMARK                         _______ _______ _______ _____ _____    ______ ____
ROOT
ATOM      1  N   UNL     1       5.049   5.209  16.770  0.00  0.00    +0.000 NA
ATOM      2  H   UNL     1       5.188   4.197  16.683  0.00  0.00    +0.000 HD
ENDROOT
BRANCH   1   3
ATOM      3  S   UNL     1       6.027   6.061  15.698  0.00  0.00    +0.000 S 
ATOM      4  O   UNL     1       7.339   6.223  16.276  0.00  0.00    +0.000 OA
ATOM      5  O   UNL     1       5.249   7.204  15.259  0.00  0.00    +0.000 OA
BRANCH   3  10
ATOM      6  C   UNL     1       6.606   2.221  11.044  0.00  0.00    +0.000 C 
ATOM      7  C   UNL     1       6.433   3.201  12.167  0.00  0.00    +0.000 A 
ATOM      8  C   UNL     1       7.442   4.127  12.460  0.00  0.00    +0.000 A 
ATOM      9  C   UNL     1       7.308   4.997  13.538  0.00  0.00    +0.000 A 
ATOM     10  C   UNL     1       6.155   4.947  14.323  0.00  0.00    +0.000 A 
ATOM     11  C   UNL     1       5.124   4.049  14.031  0.00  0.00    +0.000 A 
ATOM     12  C   UNL     1       5.269   3.175  12.952  0.00  0.00    +0.000 A 
ENDBRANCH   3  10
ENDBRANCH   1   3
BRANCH   1  13
ATOM     13  C   UNL     1       4.874   5.684  18.166  0.00  0.00    +0.000 C 
BRANCH  13  14
ATOM     14  C   UNL     1       5.703   4.792  19.099  0.00  0.00    +0.000 C 
ATOM     15  O   UNL     1       6.525   5.279  19.873  0.00  0.00    +0.000 OA
BRANCH  14  16
ATOM     16  O   UNL     1       5.501   3.462  19.065  0.00  0.00    +0.000 OA
ATOM     17  H   UNL     1       6.271   2.895  18.866  0.00  0.00    +0.000 HD
ENDBRANCH  14  16
ENDBRANCH  13  14
BRANCH  13  18
ATOM     18  C   UNL     1       3.426   5.964  18.578  0.00  0.00    +0.000 C 
BRANCH  18  19
ATOM     19  C   UNL     1       2.477   4.840  18.931  0.00  0.00    +0.000 A 
ATOM     20  C   UNL     1       2.042   4.777  20.266  0.00  0.00    +0.000 A 
ATOM     21  C   UNL     1       1.197   3.759  20.703  0.00  0.00    +0.000 A 
ATOM     22  C   UNL     1       0.758   2.792  19.808  0.00  0.00    +0.000 A 
ATOM     23  C   UNL     1       1.138   2.866  18.470  0.00  0.00    +0.000 A 
ATOM     24  C   UNL     1       1.984   3.890  18.028  0.00  0.00    +0.000 A 
ENDBRANCH  18  19
ENDBRANCH  13  18
ENDBRANCH   1  13
TORSDOF 7
ENDMDL
MODEL 2
REMARK VINA RESULT:      -7.6      0.174      1.041
REMARK  Name = 
REMARK  8 active torsions:
REMARK  status: ('A' for Active; 'I' for Inactive)
REMARK    1  A    between atoms: C_1  and  C_2
REMARK    2  A    between atoms: C_5  and  S_6
REMARK    3  A    between atoms: S_6  and  N_9
REMARK    4  A    between atoms: N_9  and  C_10
REMARK    5  A    between atoms: C_10  and  C_11
REMARK    6  A    between atoms: C_10  and  C_18
REMARK    7  A    between atoms: C_11  and  C_12
REMARK    8  A    between atoms: C_18  and  O_20
REMARK                            x       y       z     vdW  Elec       q    Type
REMARK                         _______ _______ _______ _____ _____    ______ ____
ROOT
ATOM      1  N   UNL     1       5.192   5.053  16.678  0.00  0.00    +0.000 NA
ATOM      2  H   UNL     1       5.457   4.063  16.656  0.00  0.00    +0.000 HD
ENDROOT
BRANCH   1   3
ATOM      3  S   UNL     1       6.067   5.950  15.554  0.00  0.00    +0.000 S 
ATOM      4  O   UNL     1       7.394   6.191  16.067  0.00  0.00    +0.000 OA
ATOM      5  O   UNL     1       5.206   7.043  15.147  0.00  0.00    +0.000 OA
BRANCH   3  10
ATOM      6  C   UNL     1       6.639   2.108  10.901  0.00  0.00    +0.000 C 
ATOM      7  C   UNL     1       6.465   3.087  12.025  0.00  0.00    +0.000 A 
ATOM      8  C   UNL     1       7.437   4.065  12.269  0.00  0.00    +0.000 A 
ATOM      9  C   UNL     1       7.307   4.935  13.347  0.00  0.00    +0.000 A 
ATOM     10  C   UNL     1       6.192   4.834  14.181  0.00  0.00    +0.000 A 
ATOM     11  C   UNL     1       5.197   3.882  13.939  0.00  0.00    +0.000 A 
ATOM     12  C   UNL     1       5.338   3.009  12.859  0.00  0.00    +0.000 A 
ENDBRANCH   3  10
ENDBRANCH   1   3
BRANCH   1  13
ATOM     13  C   UNL     1       4.945   5.592  18.039  0.00  0.00    +0.000 C 
BRANCH  13  14
ATOM     14  C   UNL     1       5.689   4.719  19.058  0.00  0.00    +0.000 C 
ATOM     15  O   UNL     1       6.467   5.218  19.868  0.00  0.00    +0.000 OA
BRANCH  14  16
ATOM     16  O   UNL     1       5.460   3.393  19.058  0.00  0.00    +0.000 OA
ATOM     17  H   UNL     1       4.656   3.075  19.513  0.00  0.00    +0.000 HD
ENDBRANCH  14  16
ENDBRANCH  13  14
BRANCH  13  18
ATOM     18  C   UNL     1       3.483   5.927  18.347  0.00  0.00    +0.000 C 
BRANCH  18  19
ATOM     19  C   UNL     1       2.552   4.902  18.957  0.00  0.00    +0.000 A 
ATOM     20  C   UNL     1       2.033   3.926  18.090  0.00  0.00    +0.000 A 
ATOM     21  C   UNL     1       1.137   2.960  18.544  0.00  0.00    +0.000 A 
ATOM     22  C   UNL     1       0.756   2.943  19.880  0.00  0.00    +0.000 A 
ATOM     23  C   UNL     1       1.299   3.872  20.765  0.00  0.00    +0.000 A 
ATOM     24  C   UNL     1       2.201   4.840  20.311  0.00  0.00    +0.000 A 
ENDBRANCH  18  19
ENDBRANCH  13  18
ENDBRANCH   1  13
TORSDOF 7
ENDMDL
MODEL 3
REMARK VINA RESULT:      -7.5      0.138      1.043
REMARK  Name = 
REMARK  8 active torsions:
REMARK  status: ('A' for Active; 'I' for Inactive)
REMARK    1  A    between atoms: C_1  and  C_2
REMARK    2  A    between atoms: C_5  and  S_6
REMARK    3  A    between atoms: S_6  and  N_9
REMARK    4  A    between atoms: N_9  and  C_10
REMARK    5  A    between atoms: C_10  and  C_11
REMARK    6  A    between atoms: C_10  and  C_18
REMARK    7  A    between atoms: C_11  and  C_12
REMARK    8  A    between atoms: C_18  and  O_20
REMARK                            x       y       z     vdW  Elec       q    Type
REMARK                         _______ _______ _______ _____ _____    ______ ____
ROOT
ATOM      1  N   UNL     1       5.217   5.157  16.750  0.00  0.00    +0.000 NA
ATOM      2  H   UNL     1       5.455   4.161  16.706  0.00  0.00    +0.000 HD
ENDROOT
BRANCH   1   3
ATOM      3  S   UNL     1       6.102   6.054  15.633  0.00  0.00    +0.000 S 
ATOM      4  O   UNL     1       7.417   6.314  16.167  0.00  0.00    +0.000 OA
ATOM      5  O   UNL     1       5.236   7.132  15.200  0.00  0.00    +0.000 OA
BRANCH   3  10
ATOM      6  C   UNL     1       6.510   2.225  10.951  0.00  0.00    +0.000 C 
ATOM      7  C   UNL     1       6.442   3.144  12.136  0.00  0.00    +0.000 A 
ATOM      8  C   UNL     1       5.350   3.090  13.010  0.00  0.00    +0.000 A 
ATOM      9  C   UNL     1       5.256   3.981  14.076  0.00  0.00    +0.000 A 
ATOM     10  C   UNL     1       6.264   4.925  14.274  0.00  0.00    +0.000 A 
ATOM     11  C   UNL     1       7.376   4.978  13.428  0.00  0.00    +0.000 A 
ATOM     12  C   UNL     1       7.460   4.085  12.358  0.00  0.00    +0.000 A 
ENDBRANCH   3  10
ENDBRANCH   1   3
BRANCH   1  13
ATOM     13  C   UNL     1       5.000   5.675  18.124  0.00  0.00    +0.000 C 
BRANCH  13  14
ATOM     14  C   UNL     1       5.761   4.782  19.114  0.00  0.00    +0.000 C 
ATOM     15  O   UNL     1       6.592   5.259  19.884  0.00  0.00    +0.000 OA
BRANCH  14  16
ATOM     16  O   UNL     1       5.489   3.465  19.132  0.00  0.00    +0.000 OA
ATOM     17  H   UNL     1       5.543   2.983  18.285  0.00  0.00    +0.000 HD
ENDBRANCH  14  16
ENDBRANCH  13  14
BRANCH  13  18
ATOM     18  C   UNL     1       3.547   6.011  18.468  0.00  0.00    +0.000 C 
BRANCH  18  19
ATOM     19  C   UNL     1       2.566   4.935  18.880  0.00  0.00    +0.000 A 
ATOM     20  C   UNL     1       2.167   4.928  20.227  0.00  0.00    +0.000 A 
ATOM     21  C   UNL     1       1.297   3.956  20.717  0.00  0.00    +0.000 A 
ATOM     22  C   UNL     1       0.797   2.980  19.864  0.00  0.00    +0.000 A 
ATOM     23  C   UNL     1       1.143   3.000  18.514  0.00  0.00    +0.000 A 
ATOM     24  C   UNL     1       2.014   3.978  18.020  0.00  0.00    +0.000 A 
ENDBRANCH  18  19
ENDBRANCH  13  18
ENDBRANCH   1  13
TORSDOF 7
ENDMDL
MODEL 4
REMARK VINA RESULT:      -7.5      0.148      1.464
REMARK  Name = 
REMARK  8 active torsions:
REMARK  status: ('A' for Active; 'I' for Inactive)
REMARK    1  A    between atoms: C_1  and  C_2
REMARK    2  A    between atoms: C_5  and  S_6
REMARK    3  A    between atoms: S_6  and  N_9
REMARK    4  A    between atoms: N_9  and  C_10
REMARK    5  A    between atoms: C_10  and  C_11
REMARK    6  A    between atoms: C_10  and  C_18
REMARK    7  A    between atoms: C_11  and  C_12
REMARK    8  A    between atoms: C_18  and  O_20
REMARK                            x       y       z     vdW  Elec       q    Type
REMARK                         _______ _______ _______ _____ _____    ______ ____
ROOT
ATOM      1  N   UNL     1       5.236   5.152  16.774  0.00  0.00    +0.000 NA
ATOM      2  H   UNL     1       5.499   4.162  16.739  0.00  0.00    +0.000 HD
ENDROOT
BRANCH   1   3
ATOM      3  S   UNL     1       6.089   6.059  15.641  0.00  0.00    +0.000 S 
ATOM      4  O   UNL     1       7.406   6.345  16.154  0.00  0.00    +0.000 OA
ATOM      5  O   UNL     1       5.197   7.120  15.216  0.00  0.00    +0.000 OA
BRANCH   3  10
ATOM      6  C   UNL     1       6.497   2.220  10.968  0.00  0.00    +0.000 C 
ATOM      7  C   UNL     1       6.429   3.141  12.151  0.00  0.00    +0.000 A 
ATOM      8  C   UNL     1       5.335   3.091  13.023  0.00  0.00    +0.000 A 
ATOM      9  C   UNL     1       5.241   3.984  14.087  0.00  0.00    +0.000 A 
ATOM     10  C   UNL     1       6.251   4.927  14.284  0.00  0.00    +0.000 A 
ATOM     11  C   UNL     1       7.364   4.976  13.440  0.00  0.00    +0.000 A 
ATOM     12  C   UNL     1       7.448   4.081  12.372  0.00  0.00    +0.000 A 
ENDBRANCH   3  10
ENDBRANCH   1   3
BRANCH   1  13
ATOM     13  C   UNL     1       5.018   5.679  18.145  0.00  0.00    +0.000 C 
BRANCH  13  14
ATOM     14  C   UNL     1       5.772   4.789  19.142  0.00  0.00    +0.000 C 
ATOM     15  O   UNL     1       6.607   5.266  19.907  0.00  0.00    +0.000 OA
BRANCH  14  16
ATOM     16  O   UNL     1       5.489   3.474  19.172  0.00  0.00    +0.000 OA
ATOM     17  H   UNL     1       5.988   2.893  18.567  0.00  0.00    +0.000 HD
ENDBRANCH  14  16
ENDBRANCH  13  14
BRANCH  13  18
ATOM     18  C   UNL     1       3.565   6.023  18.482  0.00  0.00    +0.000 C 
BRANCH  18  19
ATOM     19  C   UNL     1       2.608   4.974  19.006  0.00  0.00    +0.000 A 
ATOM     20  C   UNL     1       2.120   4.043  18.075  0.00  0.00    +0.000 A 
ATOM     21  C   UNL     1       1.205   3.060  18.447  0.00  0.00    +0.000 A 
ATOM     22  C   UNL     1       0.773   2.980  19.765  0.00  0.00    +0.000 A 
ATOM     23  C   UNL     1       1.284   3.863  20.714  0.00  0.00    +0.000 A 
ATOM     24  C   UNL     1       2.206   4.848  20.342  0.00  0.00    +0.000 A 
ENDBRANCH  18  19
ENDBRANCH  13  18
ENDBRANCH   1  13
TORSDOF 7
ENDMDL
MODEL 5
REMARK VINA RESULT:      -7.5      3.748      5.075
REMARK  Name = 
REMARK  8 active torsions:
REMARK  status: ('A' for Active; 'I' for Inactive)
REMARK    1  A    between atoms: C_1  and  C_2
REMARK    2  A    between atoms: C_5  and  S_6
REMARK    3  A    between atoms: S_6  and  N_9
REMARK    4  A    between atoms: N_9  and  C_10
REMARK    5  A    between atoms: C_10  and  C_11
REMARK    6  A    between atoms: C_10  and  C_18
REMARK    7  A    between atoms: C_11  and  C_12
REMARK    8  A    between atoms: C_18  and  O_20
REMARK                            x       y       z     vdW  Elec       q    Type
REMARK                         _______ _______ _______ _____ _____    ______ ____
ROOT
ATOM      1  N   UNL     1       1.986   3.651  19.128  0.00  0.00    +0.000 NA
ATOM      2  H   UNL     1       1.113   3.119  19.186  0.00  0.00    +0.000 HD
ENDROOT
BRANCH   1   3
ATOM      3  S   UNL     1       3.039   2.988  17.994  0.00  0.00    +0.000 S 
ATOM      4  O   UNL     1       2.379   2.923  16.713  0.00  0.00    +0.000 OA
ATOM      5  O   UNL     1       3.608   1.805  18.611  0.00  0.00    +0.000 OA
BRANCH   3  10
ATOM      6  C   UNL     1       7.531   7.049  17.725  0.00  0.00    +0.000 C 
ATOM      7  C   UNL     1       6.386   6.082  17.804  0.00  0.00    +0.000 A 
ATOM      8  C   UNL     1       6.228   5.264  18.930  0.00  0.00    +0.000 A 
ATOM      9  C   UNL     1       5.202   4.324  18.980  0.00  0.00    +0.000 A 
ATOM     10  C   UNL     1       4.324   4.207  17.901  0.00  0.00    +0.000 A 
ATOM     11  C   UNL     1       4.449   5.032  16.779  0.00  0.00    +0.000 A 
ATOM     12  C   UNL     1       5.484   5.968  16.734  0.00  0.00    +0.000 A 
ENDBRANCH   3  10
ENDBRANCH   1   3
BRANCH   1  13
ATOM     13  C   UNL     1       2.499   4.132  20.435  0.00  0.00    +0.000 C 
BRANCH  13  14
ATOM     14  C   UNL     1       2.550   2.949  21.411  0.00  0.00    +0.000 C 
ATOM     15  O   UNL     1       1.578   2.660  22.105  0.00  0.00    +0.000 OA
BRANCH  14  16
ATOM     16  O   UNL     1       3.681   2.222  21.482  0.00  0.00    +0.000 OA
ATOM     17  H   UNL     1       4.067   1.910  20.642  0.00  0.00    +0.000 HD
ENDBRANCH  14  16
ENDBRANCH  13  14
BRANCH  13  18
ATOM     18  C   UNL     1       1.859   5.426  20.945  0.00  0.00    +0.000 C 
BRANCH  18  19
ATOM     19  C   UNL     1       1.878   6.693  20.119  0.00  0.00    +0.000 A 
ATOM     20  C   UNL     1       1.289   7.831  20.694  0.00  0.00    +0.000 A 
ATOM     21  C   UNL     1       1.220   9.038  20.001  0.00  0.00    +0.000 A 
ATOM     22  C   UNL     1       1.756   9.133  18.723  0.00  0.00    +0.000 A 
ATOM     23  C   UNL     1       2.389   8.030  18.155  0.00  0.00    +0.000 A 
ATOM     24  C   UNL     1       2.461   6.818  18.852  0.00  0.00    +0.000 A 
ENDBRANCH  18  19
ENDBRANCH  13  18
ENDBRANCH   1  13
TORSDOF 7
ENDMDL
MODEL 6
REMARK VINA RESULT:      -7.4      3.613      5.164
REMARK  Name = 
REMARK  8 active torsions:
REMARK  status: ('A' for Active; 'I' for Inactive)
REMARK    1  A    between atoms: C_1  and  C_2
REMARK    2  A    between atoms: C_5  and  S_6
REMARK    3  A    between atoms: S_6  and  N_9
REMARK    4  A    between atoms: N_9  and  C_10
REMARK    5  A    between atoms: C_10  and  C_11
REMARK    6  A    between atoms: C_10  and  C_18
REMARK    7  A    between atoms: C_11  and  C_12
REMARK    8  A    between atoms: C_18  and  O_20
REMARK                            x       y       z     vdW  Elec       q    Type
REMARK                         _______ _______ _______ _____ _____    ______ ____
ROOT
ATOM      1  N   UNL     1       1.996   4.438  18.943  0.00  0.00    +0.000 NA
ATOM      2  H   UNL     1       1.024   4.190  18.734  0.00  0.00    +0.000 HD
ENDROOT
BRANCH   1   3
ATOM      3  S   UNL     1       3.075   3.559  17.996  0.00  0.00    +0.000 S 
ATOM      4  O   UNL     1       2.512   3.373  16.681  0.00  0.00    +0.000 OA
ATOM      5  O   UNL     1       3.497   2.431  18.802  0.00  0.00    +0.000 OA
BRANCH   3  10
ATOM      6  C   UNL     1       7.706   7.436  17.485  0.00  0.00    +0.000 C 
ATOM      7  C   UNL     1       6.592   6.438  17.600  0.00  0.00    +0.000 A 
ATOM      8  C   UNL     1       5.665   6.290  16.561  0.00  0.00    +0.000 A 
ATOM      9  C   UNL     1       4.596   5.408  16.690  0.00  0.00    +0.000 A 
ATOM     10  C   UNL     1       4.458   4.662  17.862  0.00  0.00    +0.000 A 
ATOM     11  C   UNL     1       5.387   4.774  18.900  0.00  0.00    +0.000 A 
ATOM     12  C   UNL     1       6.453   5.666  18.765  0.00  0.00    +0.000 A 
ENDBRANCH   3  10
ENDBRANCH   1   3
BRANCH   1  13
ATOM     13  C   UNL     1       2.274   4.664  20.383  0.00  0.00    +0.000 C 
BRANCH  13  14
ATOM     14  C   UNL     1       1.653   3.516  21.192  0.00  0.00    +0.000 C 
ATOM     15  O   UNL     1       2.177   3.120  22.231  0.00  0.00    +0.000 OA
BRANCH  14  16
ATOM     16  O   UNL     1       0.511   2.960  20.747  0.00  0.00    +0.000 OA
ATOM     17  H   UNL     1       0.587   2.240  20.093  0.00  0.00    +0.000 HD
ENDBRANCH  14  16
ENDBRANCH  13  14
BRANCH  13  18
ATOM     18  C   UNL     1       2.006   6.087  20.880  0.00  0.00    +0.000 C 
BRANCH  18  19
ATOM     19  C   UNL     1       1.946   7.257  19.921  0.00  0.00    +0.000 A 
ATOM     20  C   UNL     1       1.187   8.366  20.327  0.00  0.00    +0.000 A 
ATOM     21  C   UNL     1       1.036   9.479  19.502  0.00  0.00    +0.000 A 
ATOM     22  C   UNL     1       1.657   9.509  18.260  0.00  0.00    +0.000 A 
ATOM     23  C   UNL     1       2.455   8.439  17.861  0.00  0.00    +0.000 A 
ATOM     24  C   UNL     1       2.609   7.322  18.690  0.00  0.00    +0.000 A 
ENDBRANCH  18  19
ENDBRANCH  13  18
ENDBRANCH   1  13
TORSDOF 7
ENDMDL
MODEL 7
REMARK VINA RESULT:      -7.4      3.970      6.915
REMARK  Name = 
REMARK  8 active torsions:
REMARK  status: ('A' for Active; 'I' for Inactive)
REMARK    1  A    between atoms: C_1  and  C_2
REMARK    2  A    between atoms: C_5  and  S_6
REMARK    3  A    between atoms: S_6  and  N_9
REMARK    4  A    between atoms: N_9  and  C_10
REMARK    5  A    between atoms: C_10  and  C_11
REMARK    6  A    between atoms: C_10  and  C_18
REMARK    7  A    between atoms: C_11  and  C_12
REMARK    8  A    between atoms: C_18  and  O_20
REMARK                            x       y       z     vdW  Elec       q    Type
REMARK                         _______ _______ _______ _____ _____    ______ ____
ROOT
ATOM      1  N   UNL     1       3.862   4.699  19.491  0.00  0.00    +0.000 NA
ATOM      2  H   UNL     1       4.536   4.680  20.263  0.00  0.00    +0.000 HD
ENDROOT
BRANCH   1   3
ATOM      3  S   UNL     1       2.292   4.940  20.047  0.00  0.00    +0.000 S 
ATOM      4  O   UNL     1       2.263   4.770  21.479  0.00  0.00    +0.000 OA
ATOM      5  O   UNL     1       1.429   4.165  19.177  0.00  0.00    +0.000 OA
BRANCH   3  10
ATOM      6  C   UNL     1       1.278  10.754  18.662  0.00  0.00    +0.000 C 
ATOM      7  C   UNL     1       1.570   9.329  19.032  0.00  0.00    +0.000 A 
ATOM      8  C   UNL     1       2.191   8.473  18.114  0.00  0.00    +0.000 A 
ATOM      9  C   UNL     1       2.409   7.136  18.434  0.00  0.00    +0.000 A 
ATOM     10  C   UNL     1       2.012   6.654  19.681  0.00  0.00    +0.000 A 
ATOM     11  C   UNL     1       1.414   7.498  20.622  0.00  0.00    +0.000 A 
ATOM     12  C   UNL     1       1.194   8.836  20.292  0.00  0.00    +0.000 A 
ENDBRANCH   3  10
ENDBRANCH   1   3
BRANCH   1  13
ATOM     13  C   UNL     1       4.134   3.712  18.416  0.00  0.00    +0.000 C 
BRANCH  13  14
ATOM     14  C   UNL     1       4.380   2.339  19.057  0.00  0.00    +0.000 C 
ATOM     15  O   UNL     1       4.906   2.245  20.164  0.00  0.00    +0.000 OA
BRANCH  14  16
ATOM     16  O   UNL     1       3.994   1.238  18.388  0.00  0.00    +0.000 OA
ATOM     17  H   UNL     1       4.661   0.539  18.250  0.00  0.00    +0.000 HD
ENDBRANCH  14  16
ENDBRANCH  13  14
BRANCH  13  18
ATOM     18  C   UNL     1       5.134   4.171  17.352  0.00  0.00    +0.000 C 
BRANCH  18  19
ATOM     19  C   UNL     1       6.115   5.290  17.625  0.00  0.00    +0.000 A 
ATOM     20  C   UNL     1       7.105   5.041  18.590  0.00  0.00    +0.000 A 
ATOM     21  C   UNL     1       8.033   6.019  18.943  0.00  0.00    +0.000 A 
ATOM     22  C   UNL     1       7.998   7.262  18.322  0.00  0.00    +0.000 A 
ATOM     23  C   UNL     1       7.056   7.510  17.326  0.00  0.00    +0.000 A 
ATOM     24  C   UNL     1       6.125   6.528  16.969  0.00  0.00    +0.000 A 
ENDBRANCH  18  19
ENDBRANCH  13  18
ENDBRANCH   1  13
TORSDOF 7
ENDMDL
MODEL 8
REMARK VINA RESULT:      -7.4      3.990      6.858
REMARK  Name = 
REMARK  8 active torsions:
REMARK  status: ('A' for Active; 'I' for Inactive)
REMARK    1  A    between atoms: C_1  and  C_2
REMARK    2  A    between atoms: C_5  and  S_6
REMARK    3  A    between atoms: S_6  and  N_9
REMARK    4  A    between atoms: N_9  and  C_10
REMARK    5  A    between atoms: C_10  and  C_11
REMARK    6  A    between atoms: C_10  and  C_18
REMARK    7  A    between atoms: C_11  and  C_12
REMARK    8  A    between atoms: C_18  and  O_20
REMARK                            x       y       z     vdW  Elec       q    Type
REMARK                         _______ _______ _______ _____ _____    ______ ____
ROOT
ATOM      1  N   UNL     1       3.772   4.438  19.599  0.00  0.00    +0.000 NA
ATOM      2  H   UNL     1       4.374   4.233  20.402  0.00  0.00    +0.000 HD
ENDROOT
BRANCH   1   3
ATOM      3  S   UNL     1       2.214   4.854  20.084  0.00  0.00    +0.000 S 
ATOM      4  O   UNL     1       2.148   4.848  21.525  0.00  0.00    +0.000 OA
ATOM      5  O   UNL     1       1.311   4.050  19.284  0.00  0.00    +0.000 OA
BRANCH   3  10
ATOM      6  C   UNL     1       1.779  10.630  18.301  0.00  0.00    +0.000 C 
ATOM      7  C   UNL     1       1.844   9.190  18.715  0.00  0.00    +0.000 A 
ATOM      8  C   UNL     1       1.414   8.801  19.990  0.00  0.00    +0.000 A 
ATOM      9  C   UNL     1       1.529   7.475  20.398  0.00  0.00    +0.000 A 
ATOM     10  C   UNL     1       2.070   6.531  19.523  0.00  0.00    +0.000 A 
ATOM     11  C   UNL     1       2.480   6.893  18.237  0.00  0.00    +0.000 A 
ATOM     12  C   UNL     1       2.367   8.226  17.838  0.00  0.00    +0.000 A 
ENDBRANCH   3  10
ENDBRANCH   1   3
BRANCH   1  13
ATOM     13  C   UNL     1       3.980   3.544  18.433  0.00  0.00    +0.000 C 
BRANCH  13  14
ATOM     14  C   UNL     1       4.213   2.115  18.942  0.00  0.00    +0.000 C 
ATOM     15  O   UNL     1       3.643   1.158  18.422  0.00  0.00    +0.000 OA
BRANCH  14  16
ATOM     16  O   UNL     1       5.071   1.928  19.962  0.00  0.00    +0.000 OA
ATOM     17  H   UNL     1       6.025   1.974  19.761  0.00  0.00    +0.000 HD
ENDBRANCH  14  16
ENDBRANCH  13  14
BRANCH  13  18
ATOM     18  C   UNL     1       4.954   4.072  17.376  0.00  0.00    +0.000 C 
BRANCH  18  19
ATOM     19  C   UNL     1       5.984   5.128  17.714  0.00  0.00    +0.000 A 
ATOM     20  C   UNL     1       5.892   6.345  17.018  0.00  0.00    +0.000 A 
ATOM     21  C   UNL     1       6.815   7.368  17.226  0.00  0.00    +0.000 A 
ATOM     22  C   UNL     1       7.839   7.198  18.149  0.00  0.00    +0.000 A 
ATOM     23  C   UNL     1       7.917   6.018  18.885  0.00  0.00    +0.000 A 
ATOM     24  C   UNL     1       6.989   4.991  18.679  0.00  0.00    +0.000 A 
ENDBRANCH  18  19
ENDBRANCH  13  18
ENDBRANCH   1  13
TORSDOF 7
ENDMDL
MODEL 9
REMARK VINA RESULT:      -7.3      3.976      6.861
REMARK  Name = 
REMARK  8 active torsions:
REMARK  status: ('A' for Active; 'I' for Inactive)
REMARK    1  A    between atoms: C_1  and  C_2
REMARK    2  A    between atoms: C_5  and  S_6
REMARK    3  A    between atoms: S_6  and  N_9
REMARK    4  A    between atoms: N_9  and  C_10
REMARK    5  A    between atoms: C_10  and  C_11
REMARK    6  A    between atoms: C_10  and  C_18
REMARK    7  A    between atoms: C_11  and  C_12
REMARK    8  A    between atoms: C_18  and  O_20
REMARK                            x       y       z     vdW  Elec       q    Type
REMARK                         _______ _______ _______ _____ _____    ______ ____
ROOT
ATOM      1  N   UNL     1       3.430   4.114  19.316  0.00  0.00    +0.000 NA
ATOM      2  H   UNL     1       4.128   3.673  19.924  0.00  0.00    +0.000 HD
ENDROOT
BRANCH   1   3
ATOM      3  S   UNL     1       2.088   4.632  20.191  0.00  0.00    +0.000 S 
ATOM      4  O   UNL     1       2.387   4.569  21.601  0.00  0.00    +0.000 OA
ATOM      5  O   UNL     1       0.945   3.938  19.630  0.00  0.00    +0.000 OA
BRANCH   3  10
ATOM      6  C   UNL     1       1.567  10.418  18.461  0.00  0.00    +0.000 C 
ATOM      7  C   UNL     1       1.741   8.997  18.912  0.00  0.00    +0.000 A 
ATOM      8  C   UNL     1       2.191   8.020  18.015  0.00  0.00    +0.000 A 
ATOM      9  C   UNL     1       2.296   6.691  18.415  0.00  0.00    +0.000 A 
ATOM     10  C   UNL     1       1.957   6.338  19.722  0.00  0.00    +0.000 A 
ATOM     11  C   UNL     1       1.531   7.302  20.641  0.00  0.00    +0.000 A 
ATOM     12  C   UNL     1       1.423   8.632  20.230  0.00  0.00    +0.000 A 
ENDBRANCH   3  10
ENDBRANCH   1   3
BRANCH   1  13
ATOM     13  C   UNL     1       3.257   3.450  18.000  0.00  0.00    +0.000 C 
BRANCH  13  14
ATOM     14  C   UNL     1       3.012   1.953  18.231  0.00  0.00    +0.000 C 
ATOM     15  O   UNL     1       3.950   1.160  18.278  0.00  0.00    +0.000 OA
BRANCH  14  16
ATOM     16  O   UNL     1       1.746   1.526  18.396  0.00  0.00    +0.000 OA
ATOM     17  H   UNL     1       1.614   0.692  18.885  0.00  0.00    +0.000 HD
ENDBRANCH  14  16
ENDBRANCH  13  14
BRANCH  13  18
ATOM     18  C   UNL     1       4.296   3.829  16.942  0.00  0.00    +0.000 C 
BRANCH  18  19
ATOM     19  C   UNL     1       5.411   4.805  17.247  0.00  0.00    +0.000 A 
ATOM     20  C   UNL     1       5.258   6.112  16.755  0.00  0.00    +0.000 A 
ATOM     21  C   UNL     1       6.245   7.077  16.948  0.00  0.00    +0.000 A 
ATOM     22  C   UNL     1       7.398   6.756  17.652  0.00  0.00    +0.000 A 
ATOM     23  C   UNL     1       7.545   5.480  18.192  0.00  0.00    +0.000 A 
ATOM     24  C   UNL     1       6.554   4.510  18.001  0.00  0.00    +0.000 A 
ENDBRANCH  18  19
ENDBRANCH  13  18
ENDBRANCH   1  13
TORSDOF 7
ENDMDL
