MODEL 1
REMARK VINA RESULT:      -9.7      0.000      0.000
REMARK  Name = 
REMARK  5 active torsions:
REMARK  status: ('A' for Active; 'I' for Inactive)
REMARK    1  A    between atoms: C_1  and  N_2
REMARK    2  A    between atoms: C_6  and  C_7
REMARK    3  A    between atoms: C_7  and  C_8
REMARK    4  A    between atoms: C_14  and  C_15
REMARK    5  A    between atoms: N_21  and  C_22
REMARK                            x       y       z     vdW  Elec       q    Type
REMARK                         _______ _______ _______ _____ _____    ______ ____
ROOT
ATOM      1  C   UNL     1       1.674   8.155  19.774  0.00  0.00    +0.000 C 
ATOM      2  C   UNL     1       1.174   8.705  20.894  0.00  0.00    +0.000 C 
ATOM      3  C   UNL     1       0.795  10.145  21.039  0.00  0.00    +0.000 C 
ATOM      4  N   UNL     1       1.263  10.953  19.915  0.00  0.00    +0.000 N 
ATOM      5  C   UNL     1       1.510  12.288  20.208  0.00  0.00    +0.000 C 
ATOM      6  O   UNL     1       1.370  12.697  21.361  0.00  0.00    +0.000 OA
ATOM      7  N   UNL     1       1.922  13.089  19.167  0.00  0.00    +0.000 N 
ATOM      8  C   UNL     1       1.147  10.325  18.598  0.00  0.00    +0.000 C 
ATOM      9  C   UNL     1       1.904   8.993  18.542  0.00  0.00    +0.000 C 
ATOM     10  H   UNL     1       1.632  12.807  18.251  0.00  0.00    +0.000 HD
ENDROOT
BRANCH   1  17
ATOM     11  C   UNL     1       3.917   4.178  17.633  0.00  0.00    +0.000 A 
ATOM     12  C   UNL     1       4.001   2.888  18.126  0.00  0.00    +0.000 A 
ATOM     13  N   UNL     1       3.254   2.813  19.273  0.00  0.00    +0.000 N 
ATOM     14  C   UNL     1       2.717   4.043  19.569  0.00  0.00    +0.000 A 
ATOM     15  C   UNL     1       2.006   4.480  20.692  0.00  0.00    +0.000 A 
ATOM     16  C   UNL     1       1.647   5.835  20.743  0.00  0.00    +0.000 A 
ATOM     17  C   UNL     1       1.904   6.700  19.675  0.00  0.00    +0.000 A 
ATOM     18  C   UNL     1       2.541   6.202  18.525  0.00  0.00    +0.000 A 
ATOM     19  C   UNL     1       3.029   4.884  18.503  0.00  0.00    +0.000 A 
ATOM     20  H   UNL     1       3.168   1.994  19.858  0.00  0.00    +0.000 HD
BRANCH  11  21
ATOM     21  C   UNL     1       4.682   4.738  16.460  0.00  0.00    +0.000 C 
BRANCH  21  27
ATOM     22  C   UNL     1       7.521   4.673  17.650  0.00  0.00    +0.000 C 
ATOM     23  N   UNL     1       7.226   4.338  16.270  0.00  0.00    +0.000 NA
ATOM     24  C   UNL     1       7.484   5.412  15.324  0.00  0.00    +0.000 C 
ATOM     25  C   UNL     1       6.951   4.822  14.027  0.00  0.00    +0.000 C 
ATOM     26  C   UNL     1       5.968   3.732  14.454  0.00  0.00    +0.000 C 
ATOM     27  C   UNL     1       5.866   3.845  15.982  0.00  0.00    +0.000 C 
ENDBRANCH  21  27
ENDBRANCH  11  21
ENDBRANCH   1  17
BRANCH   7  28
ATOM     28  C   UNL     1       2.390  14.435  19.297  0.00  0.00    +0.000 A 
ATOM     29  C   UNL     1       3.740  14.690  19.585  0.00  0.00    +0.000 A 
ATOM     30  C   UNL     1       4.211  15.983  19.783  0.00  0.00    +0.000 A 
ATOM     31  C   UNL     1       3.341  17.056  19.669  0.00  0.00    +0.000 A 
ATOM     32  C   UNL     1       1.999  16.855  19.327  0.00  0.00    +0.000 A 
ATOM     33  C   UNL     1       1.163  17.974  19.202  0.00  0.00    +0.000 A 
ATOM     34  C   UNL     1      -0.180  17.825  18.858  0.00  0.00    +0.000 A 
ATOM     35  C   UNL     1      -0.693  16.559  18.637  0.00  0.00    +0.000 A 
ATOM     36  C   UNL     1       0.128  15.434  18.770  0.00  0.00    +0.000 A 
ATOM     37  C   UNL     1       1.496  15.539  19.123  0.00  0.00    +0.000 A 
ENDBRANCH   7  28
TORSDOF 4
ENDMDL
MODEL 2
REMARK VINA RESULT:      -9.6      0.696      1.314
REMARK  Name = 
REMARK  5 active torsions:
REMARK  status: ('A' for Active; 'I' for Inactive)
REMARK    1  A    between atoms: C_1  and  N_2
REMARK    2  A    between atoms: C_6  and  C_7
REMARK    3  A    between atoms: C_7  and  C_8
REMARK    4  A    between atoms: C_14  and  C_15
REMARK    5  A    between atoms: N_21  and  C_22
REMARK                            x       y       z     vdW  Elec       q    Type
REMARK                         _______ _______ _______ _____ _____    ______ ____
ROOT
ATOM      1  C   UNL     1       1.700   7.917  19.665  0.00  0.00    +0.000 C 
ATOM      2  C   UNL     1       1.284   8.559  20.771  0.00  0.00    +0.000 C 
ATOM      3  C   UNL     1       0.914  10.008  20.826  0.00  0.00    +0.000 C 
ATOM      4  N   UNL     1       1.296  10.720  19.608  0.00  0.00    +0.000 N 
ATOM      5  C   UNL     1       1.562  12.072  19.773  0.00  0.00    +0.000 C 
ATOM      6  O   UNL     1       1.508  12.575  20.895  0.00  0.00    +0.000 OA
ATOM      7  N   UNL     1       1.896  12.785  18.642  0.00  0.00    +0.000 N 
ATOM      8  C   UNL     1       1.084   9.988  18.359  0.00  0.00    +0.000 C 
ATOM      9  C   UNL     1       1.836   8.651  18.356  0.00  0.00    +0.000 C 
ATOM     10  H   UNL     1       1.538  12.431  17.777  0.00  0.00    +0.000 HD
ENDROOT
BRANCH   1  17
ATOM     11  C   UNL     1       3.791   3.770  17.699  0.00  0.00    +0.000 A 
ATOM     12  C   UNL     1       3.911   2.525  18.288  0.00  0.00    +0.000 A 
ATOM     13  N   UNL     1       3.247   2.545  19.487  0.00  0.00    +0.000 N 
ATOM     14  C   UNL     1       2.730   3.798  19.719  0.00  0.00    +0.000 A 
ATOM     15  C   UNL     1       2.099   4.327  20.850  0.00  0.00    +0.000 A 
ATOM     16  C   UNL     1       1.743   5.683  20.817  0.00  0.00    +0.000 A 
ATOM     17  C   UNL     1       1.924   6.458  19.667  0.00  0.00    +0.000 A 
ATOM     18  C   UNL     1       2.479   5.866  18.520  0.00  0.00    +0.000 A 
ATOM     19  C   UNL     1       2.965   4.549  18.570  0.00  0.00    +0.000 A 
ATOM     20  H   UNL     1       3.203   1.776  20.141  0.00  0.00    +0.000 HD
BRANCH  11  21
ATOM     21  C   UNL     1       4.471   4.231  16.435  0.00  0.00    +0.000 C 
BRANCH  21  27
ATOM     22  C   UNL     1       6.706   5.131  14.518  0.00  0.00    +0.000 C 
ATOM     23  N   UNL     1       6.725   5.393  15.944  0.00  0.00    +0.000 NA
ATOM     24  C   UNL     1       7.547   4.472  16.712  0.00  0.00    +0.000 C 
ATOM     25  C   UNL     1       7.249   4.903  18.140  0.00  0.00    +0.000 C 
ATOM     26  C   UNL     1       5.905   5.629  18.071  0.00  0.00    +0.000 C 
ATOM     27  C   UNL     1       5.418   5.454  16.625  0.00  0.00    +0.000 C 
ENDBRANCH  21  27
ENDBRANCH  11  21
ENDBRANCH   1  17
BRANCH   7  28
ATOM     28  C   UNL     1       2.369  14.134  18.628  0.00  0.00    +0.000 A 
ATOM     29  C   UNL     1       3.739  14.401  18.477  0.00  0.00    +0.000 A 
ATOM     30  C   UNL     1       4.238  15.698  18.525  0.00  0.00    +0.000 A 
ATOM     31  C   UNL     1       3.369  16.763  18.699  0.00  0.00    +0.000 A 
ATOM     32  C   UNL     1       1.989  16.551  18.797  0.00  0.00    +0.000 A 
ATOM     33  C   UNL     1       1.147  17.662  18.949  0.00  0.00    +0.000 A 
ATOM     34  C   UNL     1      -0.234  17.501  19.045  0.00  0.00    +0.000 A 
ATOM     35  C   UNL     1      -0.780  16.231  18.988  0.00  0.00    +0.000 A 
ATOM     36  C   UNL     1       0.049  15.114  18.848  0.00  0.00    +0.000 A 
ATOM     37  C   UNL     1       1.458  15.230  18.753  0.00  0.00    +0.000 A 
ENDBRANCH   7  28
TORSDOF 4
ENDMDL
MODEL 3
REMARK VINA RESULT:      -9.5      0.951      2.332
REMARK  Name = 
REMARK  5 active torsions:
REMARK  status: ('A' for Active; 'I' for Inactive)
REMARK    1  A    between atoms: C_1  and  N_2
REMARK    2  A    between atoms: C_6  and  C_7
REMARK    3  A    between atoms: C_7  and  C_8
REMARK    4  A    between atoms: C_14  and  C_15
REMARK    5  A    between atoms: N_21  and  C_22
REMARK                            x       y       z     vdW  Elec       q    Type
REMARK                         _______ _______ _______ _____ _____    ______ ____
ROOT
ATOM      1  C   UNL     1       1.558   8.078  19.794  0.00  0.00    +0.000 C 
ATOM      2  C   UNL     1       1.310   8.650  20.985  0.00  0.00    +0.000 C 
ATOM      3  C   UNL     1       0.774  10.035  21.169  0.00  0.00    +0.000 C 
ATOM      4  N   UNL     1       0.785  10.799  19.924  0.00  0.00    +0.000 N 
ATOM      5  C   UNL     1       0.900  12.175  20.076  0.00  0.00    +0.000 C 
ATOM      6  O   UNL     1       1.025  12.658  21.201  0.00  0.00    +0.000 OA
ATOM      7  N   UNL     1       0.883  12.933  18.926  0.00  0.00    +0.000 N 
ATOM      8  C   UNL     1       0.405  10.053  18.724  0.00  0.00    +0.000 C 
ATOM      9  C   UNL     1       1.308   8.832  18.512  0.00  0.00    +0.000 C 
ATOM     10  H   UNL     1       0.396  12.539  18.145  0.00  0.00    +0.000 HD
ENDROOT
BRANCH   1  17
ATOM     11  C   UNL     1       4.052   4.355  17.479  0.00  0.00    +0.000 A 
ATOM     12  C   UNL     1       4.363   3.106  17.984  0.00  0.00    +0.000 A 
ATOM     13  N   UNL     1       3.770   2.973  19.213  0.00  0.00    +0.000 N 
ATOM     14  C   UNL     1       3.110   4.133  19.546  0.00  0.00    +0.000 A 
ATOM     15  C   UNL     1       2.481   4.512  20.737  0.00  0.00    +0.000 A 
ATOM     16  C   UNL     1       1.953   5.810  20.804  0.00  0.00    +0.000 A 
ATOM     17  C   UNL     1       1.967   6.663  19.696  0.00  0.00    +0.000 A 
ATOM     18  C   UNL     1       2.529   6.212  18.489  0.00  0.00    +0.000 A 
ATOM     19  C   UNL     1       3.182   4.970  18.435  0.00  0.00    +0.000 A 
ATOM     20  H   UNL     1       3.862   2.172  19.820  0.00  0.00    +0.000 HD
BRANCH  11  21
ATOM     21  C   UNL     1       4.595   4.969  16.213  0.00  0.00    +0.000 C 
BRANCH  21  27
ATOM     22  C   UNL     1       7.164   5.146  14.526  0.00  0.00    +0.000 C 
ATOM     23  N   UNL     1       7.100   5.526  15.924  0.00  0.00    +0.000 NA
ATOM     24  C   UNL     1       7.593   4.514  16.844  0.00  0.00    +0.000 C 
ATOM     25  C   UNL     1       7.264   5.132  18.195  0.00  0.00    +0.000 C 
ATOM     26  C   UNL     1       6.149   6.141  17.916  0.00  0.00    +0.000 C 
ATOM     27  C   UNL     1       5.784   5.951  16.437  0.00  0.00    +0.000 C 
ENDBRANCH  21  27
ENDBRANCH  11  21
ENDBRANCH   1  17
BRANCH   7  28
ATOM     28  C   UNL     1       1.160  14.335  18.858  0.00  0.00    +0.000 A 
ATOM     29  C   UNL     1       0.130  15.269  19.054  0.00  0.00    +0.000 A 
ATOM     30  C   UNL     1       0.353  16.636  18.929  0.00  0.00    +0.000 A 
ATOM     31  C   UNL     1       1.624  17.100  18.630  0.00  0.00    +0.000 A 
ATOM     32  C   UNL     1       2.694  16.210  18.481  0.00  0.00    +0.000 A 
ATOM     33  C   UNL     1       3.967  16.728  18.201  0.00  0.00    +0.000 A 
ATOM     34  C   UNL     1       5.064  15.882  18.050  0.00  0.00    +0.000 A 
ATOM     35  C   UNL     1       4.895  14.514  18.180  0.00  0.00    +0.000 A 
ATOM     36  C   UNL     1       3.629  13.983  18.448  0.00  0.00    +0.000 A 
ATOM     37  C   UNL     1       2.486  14.806  18.603  0.00  0.00    +0.000 A 
ENDBRANCH   7  28
TORSDOF 4
ENDMDL
MODEL 4
REMARK VINA RESULT:      -9.4      0.815      2.026
REMARK  Name = 
REMARK  5 active torsions:
REMARK  status: ('A' for Active; 'I' for Inactive)
REMARK    1  A    between atoms: C_1  and  N_2
REMARK    2  A    between atoms: C_6  and  C_7
REMARK    3  A    between atoms: C_7  and  C_8
REMARK    4  A    between atoms: C_14  and  C_15
REMARK    5  A    between atoms: N_21  and  C_22
REMARK                            x       y       z     vdW  Elec       q    Type
REMARK                         _______ _______ _______ _____ _____    ______ ____
ROOT
ATOM      1  C   UNL     1       1.531   8.120  19.863  0.00  0.00    +0.000 C 
ATOM      2  C   UNL     1       1.177   8.722  21.011  0.00  0.00    +0.000 C 
ATOM      3  C   UNL     1       0.681  10.130  21.117  0.00  0.00    +0.000 C 
ATOM      4  N   UNL     1       0.860  10.872  19.870  0.00  0.00    +0.000 N 
ATOM      5  C   UNL     1       1.014  12.244  20.015  0.00  0.00    +0.000 C 
ATOM      6  O   UNL     1       1.033  12.742  21.141  0.00  0.00    +0.000 OA
ATOM      7  N   UNL     1       1.154  12.981  18.861  0.00  0.00    +0.000 N 
ATOM      8  C   UNL     1       0.584  10.119  18.646  0.00  0.00    +0.000 C 
ATOM      9  C   UNL     1       1.455   8.860  18.552  0.00  0.00    +0.000 C 
ATOM     10  H   UNL     1       0.740  12.593  18.036  0.00  0.00    +0.000 HD
ENDROOT
BRANCH   1  17
ATOM     11  C   UNL     1       4.071   4.253  17.856  0.00  0.00    +0.000 A 
ATOM     12  C   UNL     1       4.286   3.005  18.411  0.00  0.00    +0.000 A 
ATOM     13  N   UNL     1       3.580   2.923  19.583  0.00  0.00    +0.000 N 
ATOM     14  C   UNL     1       2.940   4.114  19.833  0.00  0.00    +0.000 A 
ATOM     15  C   UNL     1       2.223   4.545  20.955  0.00  0.00    +0.000 A 
ATOM     16  C   UNL     1       1.743   5.863  20.948  0.00  0.00    +0.000 A 
ATOM     17  C   UNL     1       1.890   6.689  19.830  0.00  0.00    +0.000 A 
ATOM     18  C   UNL     1       2.539   6.189  18.688  0.00  0.00    +0.000 A 
ATOM     19  C   UNL     1       3.145   4.922  18.717  0.00  0.00    +0.000 A 
ATOM     20  H   UNL     1       3.585   2.133  20.212  0.00  0.00    +0.000 HD
BRANCH  11  21
ATOM     21  C   UNL     1       4.749   4.816  16.632  0.00  0.00    +0.000 C 
BRANCH  21  27
ATOM     22  C   UNL     1       7.652   4.632  17.642  0.00  0.00    +0.000 C 
ATOM     23  N   UNL     1       7.265   4.356  16.272  0.00  0.00    +0.000 NA
ATOM     24  C   UNL     1       7.495   5.458  15.351  0.00  0.00    +0.000 C 
ATOM     25  C   UNL     1       6.868   4.931  14.069  0.00  0.00    +0.000 C 
ATOM     26  C   UNL     1       5.881   3.852  14.516  0.00  0.00    +0.000 C 
ATOM     27  C   UNL     1       5.876   3.911  16.051  0.00  0.00    +0.000 C 
ENDBRANCH  21  27
ENDBRANCH  11  21
ENDBRANCH   1  17
BRANCH   7  28
ATOM     28  C   UNL     1       1.494  14.370  18.805  0.00  0.00    +0.000 A 
ATOM     29  C   UNL     1       0.503  15.348  18.983  0.00  0.00    +0.000 A 
ATOM     30  C   UNL     1       0.788  16.704  18.869  0.00  0.00    +0.000 A 
ATOM     31  C   UNL     1       2.085  17.113  18.599  0.00  0.00    +0.000 A 
ATOM     32  C   UNL     1       3.117  16.177  18.470  0.00  0.00    +0.000 A 
ATOM     33  C   UNL     1       4.417  16.640  18.219  0.00  0.00    +0.000 A 
ATOM     34  C   UNL     1       5.479  15.746  18.089  0.00  0.00    +0.000 A 
ATOM     35  C   UNL     1       5.248  14.387  18.209  0.00  0.00    +0.000 A 
ATOM     36  C   UNL     1       3.954  13.911  18.447  0.00  0.00    +0.000 A 
ATOM     37  C   UNL     1       2.845  14.783  18.581  0.00  0.00    +0.000 A 
ENDBRANCH   7  28
TORSDOF 4
ENDMDL
MODEL 5
REMARK VINA RESULT:      -9.4      1.296      2.355
REMARK  Name = 
REMARK  5 active torsions:
REMARK  status: ('A' for Active; 'I' for Inactive)
REMARK    1  A    between atoms: C_1  and  N_2
REMARK    2  A    between atoms: C_6  and  C_7
REMARK    3  A    between atoms: C_7  and  C_8
REMARK    4  A    between atoms: C_14  and  C_15
REMARK    5  A    between atoms: N_21  and  C_22
REMARK                            x       y       z     vdW  Elec       q    Type
REMARK                         _______ _______ _______ _____ _____    ______ ____
ROOT
ATOM      1  C   UNL     1       1.539   8.041  20.039  0.00  0.00    +0.000 C 
ATOM      2  C   UNL     1       1.405   8.636  21.237  0.00  0.00    +0.000 C 
ATOM      3  C   UNL     1       0.856  10.012  21.448  0.00  0.00    +0.000 C 
ATOM      4  N   UNL     1       0.718  10.747  20.193  0.00  0.00    +0.000 N 
ATOM      5  C   UNL     1       0.814  12.128  20.303  0.00  0.00    +0.000 C 
ATOM      6  O   UNL     1       1.045  12.640  21.399  0.00  0.00    +0.000 OA
ATOM      7  N   UNL     1       0.658  12.858  19.146  0.00  0.00    +0.000 N 
ATOM      8  C   UNL     1       0.232   9.964  19.056  0.00  0.00    +0.000 C 
ATOM      9  C   UNL     1       1.138   8.759  18.776  0.00  0.00    +0.000 C 
ATOM     10  H   UNL     1       0.101  12.435  18.429  0.00  0.00    +0.000 HD
ENDROOT
BRANCH   1  17
ATOM     11  C   UNL     1       5.134   4.566  19.379  0.00  0.00    +0.000 A 
ATOM     12  C   UNL     1       5.056   3.210  19.640  0.00  0.00    +0.000 A 
ATOM     13  N   UNL     1       3.770   2.912  20.007  0.00  0.00    +0.000 N 
ATOM     14  C   UNL     1       3.009   4.057  20.038  0.00  0.00    +0.000 A 
ATOM     15  C   UNL     1       1.698   4.268  20.476  0.00  0.00    +0.000 A 
ATOM     16  C   UNL     1       1.212   5.583  20.454  0.00  0.00    +0.000 A 
ATOM     17  C   UNL     1       1.971   6.634  19.928  0.00  0.00    +0.000 A 
ATOM     18  C   UNL     1       3.251   6.366  19.415  0.00  0.00    +0.000 A 
ATOM     19  C   UNL     1       3.812   5.085  19.546  0.00  0.00    +0.000 A 
ATOM     20  H   UNL     1       3.442   1.999  20.287  0.00  0.00    +0.000 HD
BRANCH  11  21
ATOM     21  C   UNL     1       6.386   5.346  19.065  0.00  0.00    +0.000 C 
BRANCH  21  27
ATOM     22  C   UNL     1       7.631   7.587  17.360  0.00  0.00    +0.000 C 
ATOM     23  N   UNL     1       6.887   6.477  16.797  0.00  0.00    +0.000 NA
ATOM     24  C   UNL     1       5.505   6.788  16.468  0.00  0.00    +0.000 C 
ATOM     25  C   UNL     1       4.967   5.426  16.055  0.00  0.00    +0.000 C 
ATOM     26  C   UNL     1       5.907   4.408  16.703  0.00  0.00    +0.000 C 
ATOM     27  C   UNL     1       6.859   5.230  17.584  0.00  0.00    +0.000 C 
ENDBRANCH  21  27
ENDBRANCH  11  21
ENDBRANCH   1  17
BRANCH   7  28
ATOM     28  C   UNL     1       0.891  14.264  19.020  0.00  0.00    +0.000 A 
ATOM     29  C   UNL     1      -0.156  15.176  19.224  0.00  0.00    +0.000 A 
ATOM     30  C   UNL     1       0.023  16.543  19.043  0.00  0.00    +0.000 A 
ATOM     31  C   UNL     1       1.267  17.031  18.679  0.00  0.00    +0.000 A 
ATOM     32  C   UNL     1       2.356  16.166  18.520  0.00  0.00    +0.000 A 
ATOM     33  C   UNL     1       3.601  16.709  18.173  0.00  0.00    +0.000 A 
ATOM     34  C   UNL     1       4.716  15.888  18.008  0.00  0.00    +0.000 A 
ATOM     35  C   UNL     1       4.592  14.522  18.191  0.00  0.00    +0.000 A 
ATOM     36  C   UNL     1       3.353  13.966  18.526  0.00  0.00    +0.000 A 
ATOM     37  C   UNL     1       2.193  14.762  18.697  0.00  0.00    +0.000 A 
ENDBRANCH   7  28
TORSDOF 4
ENDMDL
MODEL 6
REMARK VINA RESULT:      -9.3      0.914      1.084
REMARK  Name = 
REMARK  5 active torsions:
REMARK  status: ('A' for Active; 'I' for Inactive)
REMARK    1  A    between atoms: C_1  and  N_2
REMARK    2  A    between atoms: C_6  and  C_7
REMARK    3  A    between atoms: C_7  and  C_8
REMARK    4  A    between atoms: C_14  and  C_15
REMARK    5  A    between atoms: N_21  and  C_22
REMARK                            x       y       z     vdW  Elec       q    Type
REMARK                         _______ _______ _______ _____ _____    ______ ____
ROOT
ATOM      1  C   UNL     1       1.712   7.804  19.809  0.00  0.00    +0.000 C 
ATOM      2  C   UNL     1       1.300   8.486  20.892  0.00  0.00    +0.000 C 
ATOM      3  C   UNL     1       0.942   9.938  20.897  0.00  0.00    +0.000 C 
ATOM      4  N   UNL     1       1.329  10.606  19.657  0.00  0.00    +0.000 N 
ATOM      5  C   UNL     1       1.606  11.961  19.775  0.00  0.00    +0.000 C 
ATOM      6  O   UNL     1       1.555  12.502  20.880  0.00  0.00    +0.000 OA
ATOM      7  N   UNL     1       1.945  12.632  18.622  0.00  0.00    +0.000 N 
ATOM      8  C   UNL     1       1.112   9.833  18.433  0.00  0.00    +0.000 C 
ATOM      9  C   UNL     1       1.854   8.492  18.475  0.00  0.00    +0.000 C 
ATOM     10  H   UNL     1       1.585  12.252  17.768  0.00  0.00    +0.000 HD
ENDROOT
BRANCH   1  17
ATOM     11  C   UNL     1       3.680   3.561  17.922  0.00  0.00    +0.000 A 
ATOM     12  C   UNL     1       3.817   2.339  18.555  0.00  0.00    +0.000 A 
ATOM     13  N   UNL     1       3.208   2.414  19.781  0.00  0.00    +0.000 N 
ATOM     14  C   UNL     1       2.712   3.680  19.985  0.00  0.00    +0.000 A 
ATOM     15  C   UNL     1       2.138   4.261  21.121  0.00  0.00    +0.000 A 
ATOM     16  C   UNL     1       1.791   5.618  21.049  0.00  0.00    +0.000 A 
ATOM     17  C   UNL     1       1.925   6.344  19.861  0.00  0.00    +0.000 A 
ATOM     18  C   UNL     1       2.422   5.700  18.715  0.00  0.00    +0.000 A 
ATOM     19  C   UNL     1       2.900   4.382  18.797  0.00  0.00    +0.000 A 
ATOM     20  H   UNL     1       3.189   1.674  20.467  0.00  0.00    +0.000 HD
BRANCH  11  21
ATOM     21  C   UNL     1       4.305   3.963  16.610  0.00  0.00    +0.000 C 
BRANCH  21  27
ATOM     22  C   UNL     1       4.782   7.004  16.553  0.00  0.00    +0.000 C 
ATOM     23  N   UNL     1       5.780   6.033  16.151  0.00  0.00    +0.000 NA
ATOM     24  C   UNL     1       5.883   5.837  14.714  0.00  0.00    +0.000 C 
ATOM     25  C   UNL     1       6.875   4.688  14.624  0.00  0.00    +0.000 C 
ATOM     26  C   UNL     1       6.814   3.995  15.986  0.00  0.00    +0.000 C 
ATOM     27  C   UNL     1       5.677   4.688  16.749  0.00  0.00    +0.000 C 
ENDBRANCH  21  27
ENDBRANCH  11  21
ENDBRANCH   1  17
BRANCH   7  28
ATOM     28  C   UNL     1       2.429  13.977  18.561  0.00  0.00    +0.000 A 
ATOM     29  C   UNL     1       3.799  14.228  18.387  0.00  0.00    +0.000 A 
ATOM     30  C   UNL     1       4.309  15.522  18.391  0.00  0.00    +0.000 A 
ATOM     31  C   UNL     1       3.450  16.598  18.543  0.00  0.00    +0.000 A 
ATOM     32  C   UNL     1       2.070  16.400  18.663  0.00  0.00    +0.000 A 
ATOM     33  C   UNL     1       1.238  17.522  18.792  0.00  0.00    +0.000 A 
ATOM     34  C   UNL     1      -0.143  17.376  18.909  0.00  0.00    +0.000 A 
ATOM     35  C   UNL     1      -0.700  16.109  18.896  0.00  0.00    +0.000 A 
ATOM     36  C   UNL     1       0.119  14.981  18.780  0.00  0.00    +0.000 A 
ATOM     37  C   UNL     1       1.528  15.083  18.664  0.00  0.00    +0.000 A 
ENDBRANCH   7  28
TORSDOF 4
ENDMDL
MODEL 7
REMARK VINA RESULT:      -9.1      1.044      1.261
REMARK  Name = 
REMARK  5 active torsions:
REMARK  status: ('A' for Active; 'I' for Inactive)
REMARK    1  A    between atoms: C_1  and  N_2
REMARK    2  A    between atoms: C_6  and  C_7
REMARK    3  A    between atoms: C_7  and  C_8
REMARK    4  A    between atoms: C_14  and  C_15
REMARK    5  A    between atoms: N_21  and  C_22
REMARK                            x       y       z     vdW  Elec       q    Type
REMARK                         _______ _______ _______ _____ _____    ______ ____
ROOT
ATOM      1  C   UNL     1       1.674   8.138  19.989  0.00  0.00    +0.000 C 
ATOM      2  C   UNL     1       1.146   8.692  21.094  0.00  0.00    +0.000 C 
ATOM      3  C   UNL     1       0.733  10.126  21.213  0.00  0.00    +0.000 C 
ATOM      4  N   UNL     1       1.199  10.929  20.085  0.00  0.00    +0.000 N 
ATOM      5  C   UNL     1       1.412  12.272  20.363  0.00  0.00    +0.000 C 
ATOM      6  O   UNL     1       1.246  12.694  21.508  0.00  0.00    +0.000 OA
ATOM      7  N   UNL     1       1.822  13.068  19.317  0.00  0.00    +0.000 N 
ATOM      8  C   UNL     1       1.116  10.280  18.775  0.00  0.00    +0.000 C 
ATOM      9  C   UNL     1       1.903   8.964  18.749  0.00  0.00    +0.000 C 
ATOM     10  H   UNL     1       1.551  12.768  18.401  0.00  0.00    +0.000 HD
ENDROOT
BRANCH   1  17
ATOM     11  C   UNL     1       4.835   4.252  19.407  0.00  0.00    +0.000 A 
ATOM     12  C   UNL     1       4.601   2.921  19.703  0.00  0.00    +0.000 A 
ATOM     13  N   UNL     1       3.290   2.784  20.081  0.00  0.00    +0.000 N 
ATOM     14  C   UNL     1       2.669   4.011  20.084  0.00  0.00    +0.000 A 
ATOM     15  C   UNL     1       1.393   4.384  20.521  0.00  0.00    +0.000 A 
ATOM     16  C   UNL     1       1.064   5.747  20.467  0.00  0.00    +0.000 A 
ATOM     17  C   UNL     1       1.938   6.688  19.912  0.00  0.00    +0.000 A 
ATOM     18  C   UNL     1       3.175   6.260  19.403  0.00  0.00    +0.000 A 
ATOM     19  C   UNL     1       3.583   4.925  19.565  0.00  0.00    +0.000 A 
ATOM     20  H   UNL     1       2.859   1.923  20.385  0.00  0.00    +0.000 HD
BRANCH  11  21
ATOM     21  C   UNL     1       6.168   4.872  19.071  0.00  0.00    +0.000 C 
BRANCH  21  27
ATOM     22  C   UNL     1       7.661   6.974  17.390  0.00  0.00    +0.000 C 
ATOM     23  N   UNL     1       6.753   5.998  16.821  0.00  0.00    +0.000 NA
ATOM     24  C   UNL     1       5.418   6.508  16.549  0.00  0.00    +0.000 C 
ATOM     25  C   UNL     1       4.684   5.248  16.116  0.00  0.00    +0.000 C 
ATOM     26  C   UNL     1       5.492   4.089  16.700  0.00  0.00    +0.000 C 
ATOM     27  C   UNL     1       6.575   4.741  17.572  0.00  0.00    +0.000 C 
ENDBRANCH  21  27
ENDBRANCH  11  21
ENDBRANCH   1  17
BRANCH   7  28
ATOM     28  C   UNL     1       2.257  14.426  19.435  0.00  0.00    +0.000 A 
ATOM     29  C   UNL     1       3.600  14.715  19.724  0.00  0.00    +0.000 A 
ATOM     30  C   UNL     1       4.040  16.021  19.911  0.00  0.00    +0.000 A 
ATOM     31  C   UNL     1       3.146  17.072  19.784  0.00  0.00    +0.000 A 
ATOM     32  C   UNL     1       1.810  16.837  19.440  0.00  0.00    +0.000 A 
ATOM     33  C   UNL     1       0.948  17.935  19.301  0.00  0.00    +0.000 A 
ATOM     34  C   UNL     1      -0.390  17.751  18.955  0.00  0.00    +0.000 A 
ATOM     35  C   UNL     1      -0.872  16.471  18.745  0.00  0.00    +0.000 A 
ATOM     36  C   UNL     1      -0.026  15.366  18.892  0.00  0.00    +0.000 A 
ATOM     37  C   UNL     1       1.338  15.507  19.248  0.00  0.00    +0.000 A 
ENDBRANCH   7  28
TORSDOF 4
ENDMDL
MODEL 8
REMARK VINA RESULT:      -9.0      4.290     11.097
REMARK  Name = 
REMARK  5 active torsions:
REMARK  status: ('A' for Active; 'I' for Inactive)
REMARK    1  A    between atoms: C_1  and  N_2
REMARK    2  A    between atoms: C_6  and  C_7
REMARK    3  A    between atoms: C_7  and  C_8
REMARK    4  A    between atoms: C_14  and  C_15
REMARK    5  A    between atoms: N_21  and  C_22
REMARK                            x       y       z     vdW  Elec       q    Type
REMARK                         _______ _______ _______ _____ _____    ______ ____
ROOT
ATOM      1  C   UNL     1      -0.392  11.361  20.107  0.00  0.00    +0.000 C 
ATOM      2  C   UNL     1      -0.019  10.636  21.176  0.00  0.00    +0.000 C 
ATOM      3  C   UNL     1       1.011   9.551  21.151  0.00  0.00    +0.000 C 
ATOM      4  N   UNL     1       1.391   9.184  19.789  0.00  0.00    +0.000 N 
ATOM      5  C   UNL     1       1.824   7.875  19.628  0.00  0.00    +0.000 C 
ATOM      6  O   UNL     1       1.826   7.108  20.591  0.00  0.00    +0.000 OA
ATOM      7  N   UNL     1       2.221   7.499  18.364  0.00  0.00    +0.000 N 
ATOM      8  C   UNL     1       1.523  10.299  18.851  0.00  0.00    +0.000 C 
ATOM      9  C   UNL     1       0.224  11.109  18.755  0.00  0.00    +0.000 C 
ATOM     10  H   UNL     1       2.562   8.232  17.773  0.00  0.00    +0.000 HD
ENDROOT
BRANCH   1  17
ATOM     11  C   UNL     1      -5.052  13.203  20.681  0.00  0.00    +0.000 A 
ATOM     12  C   UNL     1      -5.413  14.487  21.046  0.00  0.00    +0.000 A 
ATOM     13  N   UNL     1      -4.279  15.254  21.119  0.00  0.00    +0.000 N 
ATOM     14  C   UNL     1      -3.171  14.484  20.851  0.00  0.00    +0.000 A 
ATOM     15  C   UNL     1      -1.809  14.790  20.936  0.00  0.00    +0.000 A 
ATOM     16  C   UNL     1      -0.896  13.759  20.669  0.00  0.00    +0.000 A 
ATOM     17  C   UNL     1      -1.324  12.497  20.242  0.00  0.00    +0.000 A 
ATOM     18  C   UNL     1      -2.699  12.256  20.083  0.00  0.00    +0.000 A 
ATOM     19  C   UNL     1      -3.637  13.228  20.471  0.00  0.00    +0.000 A 
ATOM     20  H   UNL     1      -4.249  16.224  21.398  0.00  0.00    +0.000 HD
BRANCH  11  21
ATOM     21  C   UNL     1      -5.964  12.005  20.605  0.00  0.00    +0.000 C 
BRANCH  21  27
ATOM     22  C   UNL     1      -7.094   9.426  19.360  0.00  0.00    +0.000 C 
ATOM     23  N   UNL     1      -6.722  10.591  18.581  0.00  0.00    +0.000 NA
ATOM     24  C   UNL     1      -5.414  10.500  17.953  0.00  0.00    +0.000 C 
ATOM     25  C   UNL     1      -5.256  11.890  17.355  0.00  0.00    +0.000 C 
ATOM     26  C   UNL     1      -6.210  12.782  18.150  0.00  0.00    +0.000 C 
ATOM     27  C   UNL     1      -6.765  11.893  19.272  0.00  0.00    +0.000 C 
ENDBRANCH  21  27
ENDBRANCH  11  21
ENDBRANCH   1  17
BRANCH   7  28
ATOM     28  C   UNL     1       2.531   6.163  17.959  0.00  0.00    +0.000 A 
ATOM     29  C   UNL     1       1.560   5.153  18.049  0.00  0.00    +0.000 A 
ATOM     30  C   UNL     1       1.851   3.832  17.726  0.00  0.00    +0.000 A 
ATOM     31  C   UNL     1       3.119   3.497  17.279  0.00  0.00    +0.000 A 
ATOM     32  C   UNL     1       4.103   4.478  17.119  0.00  0.00    +0.000 A 
ATOM     33  C   UNL     1       5.365   4.094  16.642  0.00  0.00    +0.000 A 
ATOM     34  C   UNL     1       6.376   5.037  16.461  0.00  0.00    +0.000 A 
ATOM     35  C   UNL     1       6.131   6.367  16.755  0.00  0.00    +0.000 A 
ATOM     36  C   UNL     1       4.881   6.762  17.243  0.00  0.00    +0.000 A 
ATOM     37  C   UNL     1       3.827   5.837  17.447  0.00  0.00    +0.000 A 
ENDBRANCH   7  28
TORSDOF 4
ENDMDL
MODEL 9
REMARK VINA RESULT:      -8.8      2.652      3.669
REMARK  Name = 
REMARK  5 active torsions:
REMARK  status: ('A' for Active; 'I' for Inactive)
REMARK    1  A    between atoms: C_1  and  N_2
REMARK    2  A    between atoms: C_6  and  C_7
REMARK    3  A    between atoms: C_7  and  C_8
REMARK    4  A    between atoms: C_14  and  C_15
REMARK    5  A    between atoms: N_21  and  C_22
REMARK                            x       y       z     vdW  Elec       q    Type
REMARK                         _______ _______ _______ _____ _____    ______ ____
ROOT
ATOM      1  C   UNL     1       1.530   7.921  19.922  0.00  0.00    +0.000 C 
ATOM      2  C   UNL     1       1.657   8.734  18.859  0.00  0.00    +0.000 C 
ATOM      3  C   UNL     1       1.472  10.219  18.895  0.00  0.00    +0.000 C 
ATOM      4  N   UNL     1       0.889  10.670  20.156  0.00  0.00    +0.000 N 
ATOM      5  C   UNL     1       0.145  11.839  20.079  0.00  0.00    +0.000 C 
ATOM      6  O   UNL     1      -0.016  12.392  18.990  0.00  0.00    +0.000 OA
ATOM      7  N   UNL     1      -0.396  12.314  21.253  0.00  0.00    +0.000 N 
ATOM      8  C   UNL     1       1.384   9.994  21.356  0.00  0.00    +0.000 C 
ATOM      9  C   UNL     1       1.170   8.477  21.276  0.00  0.00    +0.000 C 
ATOM     10  H   UNL     1       0.087  12.065  22.094  0.00  0.00    +0.000 HD
ENDROOT
BRANCH   1  17
ATOM     11  C   UNL     1       3.990   4.082  17.768  0.00  0.00    +0.000 A 
ATOM     12  C   UNL     1       4.166   2.804  18.268  0.00  0.00    +0.000 A 
ATOM     13  N   UNL     1       3.445   2.689  19.429  0.00  0.00    +0.000 N 
ATOM     14  C   UNL     1       2.833   3.884  19.725  0.00  0.00    +0.000 A 
ATOM     15  C   UNL     1       2.115   4.283  20.858  0.00  0.00    +0.000 A 
ATOM     16  C   UNL     1       1.670   5.612  20.907  0.00  0.00    +0.000 A 
ATOM     17  C   UNL     1       1.852   6.484  19.828  0.00  0.00    +0.000 A 
ATOM     18  C   UNL     1       2.501   6.019  18.671  0.00  0.00    +0.000 A 
ATOM     19  C   UNL     1       3.072   4.736  18.649  0.00  0.00    +0.000 A 
ATOM     20  H   UNL     1       3.422   1.871  20.021  0.00  0.00    +0.000 HD
BRANCH  11  21
ATOM     21  C   UNL     1       4.697   4.681  16.579  0.00  0.00    +0.000 C 
BRANCH  21  27
ATOM     22  C   UNL     1       7.570   4.679  17.686  0.00  0.00    +0.000 C 
ATOM     23  N   UNL     1       7.246   4.361  16.309  0.00  0.00    +0.000 NA
ATOM     24  C   UNL     1       7.444   5.460  15.377  0.00  0.00    +0.000 C 
ATOM     25  C   UNL     1       6.892   4.878  14.085  0.00  0.00    +0.000 C 
ATOM     26  C   UNL     1       5.953   3.752  14.518  0.00  0.00    +0.000 C 
ATOM     27  C   UNL     1       5.893   3.833  16.050  0.00  0.00    +0.000 C 
ENDBRANCH  21  27
ENDBRANCH  11  21
ENDBRANCH   1  17
BRANCH   7  28
ATOM     28  C   UNL     1      -1.328  13.395  21.355  0.00  0.00    +0.000 A 
ATOM     29  C   UNL     1      -1.194  14.523  20.530  0.00  0.00    +0.000 A 
ATOM     30  C   UNL     1      -2.043  15.618  20.651  0.00  0.00    +0.000 A 
ATOM     31  C   UNL     1      -3.066  15.595  21.586  0.00  0.00    +0.000 A 
ATOM     32  C   UNL     1      -3.273  14.470  22.391  0.00  0.00    +0.000 A 
ATOM     33  C   UNL     1      -4.335  14.484  23.307  0.00  0.00    +0.000 A 
ATOM     34  C   UNL     1      -4.585  13.384  24.126  0.00  0.00    +0.000 A 
ATOM     35  C   UNL     1      -3.776  12.265  24.034  0.00  0.00    +0.000 A 
ATOM     36  C   UNL     1      -2.707  12.242  23.133  0.00  0.00    +0.000 A 
ATOM     37  C   UNL     1      -2.413  13.339  22.285  0.00  0.00    +0.000 A 
ENDBRANCH   7  28
TORSDOF 4
ENDMDL
