MODEL 1
REMARK VINA RESULT:      -8.4      0.000      0.000
REMARK  Name = 
REMARK  1 active torsions:
REMARK  status: ('A' for Active; 'I' for Inactive)
REMARK    1  A    between atoms: N_6  and  C_7
REMARK                            x       y       z     vdW  Elec       q    Type
REMARK                         _______ _______ _______ _____ _____    ______ ____
ROOT
ATOM      1  C   UNL     1       5.283   4.313  16.930  0.00  0.00    +0.000 A 
ATOM      2  N   UNL     1       5.451   3.604  15.775  0.00  0.00    +0.000 NA
ATOM      3  C   UNL     1       6.366   4.012  14.869  0.00  0.00    +0.000 A 
ATOM      4  N   UNL     1       7.205   5.060  14.951  0.00  0.00    +0.000 NA
ATOM      5  C   UNL     1       7.044   5.703  16.113  0.00  0.00    +0.000 A 
ATOM      6  N   UNL     1       7.748   6.797  16.532  0.00  0.00    +0.000 N 
ATOM      7  N   UNL     1       7.391   7.237  17.756  0.00  0.00    +0.000 NA
ATOM      8  C   UNL     1       6.431   6.375  18.115  0.00  0.00    +0.000 A 
ATOM      9  C   UNL     1       6.149   5.405  17.126  0.00  0.00    +0.000 A 
ATOM     10  H   UNL     1       8.477   7.281  16.024  0.00  0.00    +0.000 HD
ENDROOT
BRANCH   1  16
ATOM     11  C   UNL     1       0.688   3.132  20.002  0.00  0.00    +0.000 C 
ATOM     12  C   UNL     1       1.556   3.156  21.017  0.00  0.00    +0.000 C 
ATOM     13  C   UNL     1       2.963   2.672  20.922  0.00  0.00    +0.000 C 
ATOM     14  C   UNL     1       3.506   2.424  19.508  0.00  0.00    +0.000 C 
ATOM     15  C   UNL     1       4.647   3.385  19.122  0.00  0.00    +0.000 C 
ATOM     16  N   UNL     1       4.301   3.928  17.822  0.00  0.00    +0.000 N 
ATOM     17  C   UNL     1       3.009   3.487  17.343  0.00  0.00    +0.000 C 
ATOM     18  C   UNL     1       2.510   2.433  18.337  0.00  0.00    +0.000 C 
ATOM     19  C   UNL     1       1.018   2.612  18.646  0.00  0.00    +0.000 C 
ENDBRANCH   1  16
TORSDOF 1
ENDMDL
MODEL 2
REMARK VINA RESULT:      -8.1      1.269      2.757
REMARK  Name = 
REMARK  1 active torsions:
REMARK  status: ('A' for Active; 'I' for Inactive)
REMARK    1  A    between atoms: N_6  and  C_7
REMARK                            x       y       z     vdW  Elec       q    Type
REMARK                         _______ _______ _______ _____ _____    ______ ____
ROOT
ATOM      1  C   UNL     1       5.342   5.420  17.547  0.00  0.00    +0.000 A 
ATOM      2  N   UNL     1       5.990   6.467  18.137  0.00  0.00    +0.000 NA
ATOM      3  C   UNL     1       7.102   6.974  17.561  0.00  0.00    +0.000 A 
ATOM      4  N   UNL     1       7.687   6.595  16.412  0.00  0.00    +0.000 NA
ATOM      5  C   UNL     1       7.002   5.598  15.840  0.00  0.00    +0.000 A 
ATOM      6  N   UNL     1       7.304   4.991  14.654  0.00  0.00    +0.000 N 
ATOM      7  N   UNL     1       6.434   4.023  14.301  0.00  0.00    +0.000 NA
ATOM      8  C   UNL     1       5.550   4.035  15.308  0.00  0.00    +0.000 A 
ATOM      9  C   UNL     1       5.858   4.981  16.313  0.00  0.00    +0.000 A 
ATOM     10  H   UNL     1       8.089   5.196  14.048  0.00  0.00    +0.000 HD
ENDROOT
BRANCH   1  16
ATOM     11  C   UNL     1       1.275   3.354  20.883  0.00  0.00    +0.000 C 
ATOM     12  C   UNL     1       1.030   2.570  19.831  0.00  0.00    +0.000 C 
ATOM     13  C   UNL     1       1.163   3.013  18.412  0.00  0.00    +0.000 C 
ATOM     14  C   UNL     1       1.908   4.334  18.177  0.00  0.00    +0.000 C 
ATOM     15  C   UNL     1       3.234   4.152  17.414  0.00  0.00    +0.000 C 
ATOM     16  N   UNL     1       4.243   4.865  18.174  0.00  0.00    +0.000 N 
ATOM     17  C   UNL     1       3.738   5.434  19.404  0.00  0.00    +0.000 C 
ATOM     18  C   UNL     1       2.221   5.217  19.396  0.00  0.00    +0.000 C 
ATOM     19  C   UNL     1       1.708   4.775  20.773  0.00  0.00    +0.000 C 
ENDBRANCH   1  16
TORSDOF 1
ENDMDL
MODEL 3
REMARK VINA RESULT:      -8.1      0.863      2.183
REMARK  Name = 
REMARK  1 active torsions:
REMARK  status: ('A' for Active; 'I' for Inactive)
REMARK    1  A    between atoms: N_6  and  C_7
REMARK                            x       y       z     vdW  Elec       q    Type
REMARK                         _______ _______ _______ _____ _____    ______ ____
ROOT
ATOM      1  C   UNL     1       5.501   5.298  17.630  0.00  0.00    +0.000 A 
ATOM      2  N   UNL     1       6.135   6.368  18.191  0.00  0.00    +0.000 NA
ATOM      3  C   UNL     1       7.182   6.934  17.552  0.00  0.00    +0.000 A 
ATOM      4  N   UNL     1       7.709   6.596  16.363  0.00  0.00    +0.000 NA
ATOM      5  C   UNL     1       7.037   5.574  15.822  0.00  0.00    +0.000 A 
ATOM      6  N   UNL     1       7.290   4.994  14.611  0.00  0.00    +0.000 N 
ATOM      7  N   UNL     1       6.444   3.989  14.302  0.00  0.00    +0.000 NA
ATOM      8  C   UNL     1       5.628   3.948  15.363  0.00  0.00    +0.000 A 
ATOM      9  C   UNL     1       5.955   4.897  16.359  0.00  0.00    +0.000 A 
ATOM     10  H   UNL     1       8.023   5.243  13.959  0.00  0.00    +0.000 HD
ENDROOT
BRANCH   1  16
ATOM     11  C   UNL     1       0.755   3.390  20.035  0.00  0.00    +0.000 C 
ATOM     12  C   UNL     1       1.590   3.005  21.003  0.00  0.00    +0.000 C 
ATOM     13  C   UNL     1       2.973   2.501  20.760  0.00  0.00    +0.000 C 
ATOM     14  C   UNL     1       3.547   2.734  19.355  0.00  0.00    +0.000 C 
ATOM     15  C   UNL     1       4.748   3.699  19.346  0.00  0.00    +0.000 C 
ATOM     16  N   UNL     1       4.472   4.684  18.318  0.00  0.00    +0.000 N 
ATOM     17  C   UNL     1       3.175   4.518  17.699  0.00  0.00    +0.000 C 
ATOM     18  C   UNL     1       2.590   3.214  18.251  0.00  0.00    +0.000 C 
ATOM     19  C   UNL     1       1.100   3.362  18.586  0.00  0.00    +0.000 C 
ENDBRANCH   1  16
TORSDOF 1
ENDMDL
MODEL 4
REMARK VINA RESULT:      -8.0      1.042      1.638
REMARK  Name = 
REMARK  1 active torsions:
REMARK  status: ('A' for Active; 'I' for Inactive)
REMARK    1  A    between atoms: N_6  and  C_7
REMARK                            x       y       z     vdW  Elec       q    Type
REMARK                         _______ _______ _______ _____ _____    ______ ____
ROOT
ATOM      1  C   UNL     1       4.949   4.601  16.727  0.00  0.00    +0.000 A 
ATOM      2  N   UNL     1       4.963   4.013  15.495  0.00  0.00    +0.000 NA
ATOM      3  C   UNL     1       5.902   4.374  14.594  0.00  0.00    +0.000 A 
ATOM      4  N   UNL     1       6.899   5.262  14.746  0.00  0.00    +0.000 NA
ATOM      5  C   UNL     1       6.882   5.785  15.977  0.00  0.00    +0.000 A 
ATOM      6  N   UNL     1       7.766   6.701  16.476  0.00  0.00    +0.000 N 
ATOM      7  N   UNL     1       7.525   7.047  17.757  0.00  0.00    +0.000 NA
ATOM      8  C   UNL     1       6.451   6.310  18.069  0.00  0.00    +0.000 A 
ATOM      9  C   UNL     1       5.985   5.516  16.996  0.00  0.00    +0.000 A 
ATOM     10  H   UNL     1       8.546   7.120  15.987  0.00  0.00    +0.000 HD
ENDROOT
BRANCH   1  16
ATOM     11  C   UNL     1       1.354   3.711  20.996  0.00  0.00    +0.000 C 
ATOM     12  C   UNL     1       1.031   2.626  20.288  0.00  0.00    +0.000 C 
ATOM     13  C   UNL     1       0.992   2.585  18.798  0.00  0.00    +0.000 C 
ATOM     14  C   UNL     1       1.651   3.761  18.065  0.00  0.00    +0.000 C 
ATOM     15  C   UNL     1       2.894   3.347  17.254  0.00  0.00    +0.000 C 
ATOM     16  N   UNL     1       3.948   4.274  17.621  0.00  0.00    +0.000 N 
ATOM     17  C   UNL     1       3.554   5.210  18.652  0.00  0.00    +0.000 C 
ATOM     18  C   UNL     1       2.055   4.994  18.889  0.00  0.00    +0.000 C 
ATOM     19  C   UNL     1       1.712   5.021  20.384  0.00  0.00    +0.000 C 
ENDBRANCH   1  16
TORSDOF 1
ENDMDL
MODEL 5
REMARK VINA RESULT:      -7.9      1.335      2.398
REMARK  Name = 
REMARK  1 active torsions:
REMARK  status: ('A' for Active; 'I' for Inactive)
REMARK    1  A    between atoms: N_6  and  C_7
REMARK                            x       y       z     vdW  Elec       q    Type
REMARK                         _______ _______ _______ _____ _____    ______ ____
ROOT
ATOM      1  C   UNL     1       5.506   5.014  18.558  0.00  0.00    +0.000 A 
ATOM      2  N   UNL     1       6.355   5.325  19.581  0.00  0.00    +0.000 NA
ATOM      3  C   UNL     1       7.577   5.829  19.305  0.00  0.00    +0.000 A 
ATOM      4  N   UNL     1       8.106   6.110  18.102  0.00  0.00    +0.000 NA
ATOM      5  C   UNL     1       7.233   5.835  17.127  0.00  0.00    +0.000 A 
ATOM      6  N   UNL     1       7.435   6.022  15.788  0.00  0.00    +0.000 N 
ATOM      7  N   UNL     1       6.379   5.675  15.025  0.00  0.00    +0.000 NA
ATOM      8  C   UNL     1       5.481   5.261  15.928  0.00  0.00    +0.000 A 
ATOM      9  C   UNL     1       5.957   5.315  17.258  0.00  0.00    +0.000 A 
ATOM     10  H   UNL     1       8.271   6.381  15.344  0.00  0.00    +0.000 HD
ENDROOT
BRANCH   1  16
ATOM     11  C   UNL     1       0.601   2.233  18.934  0.00  0.00    +0.000 C 
ATOM     12  C   UNL     1       0.248   3.279  19.685  0.00  0.00    +0.000 C 
ATOM     13  C   UNL     1       1.176   3.992  20.610  0.00  0.00    +0.000 C 
ATOM     14  C   UNL     1       2.671   3.686  20.446  0.00  0.00    +0.000 C 
ATOM     15  C   UNL     1       3.486   4.901  19.964  0.00  0.00    +0.000 C 
ATOM     16  N   UNL     1       4.283   4.439  18.844  0.00  0.00    +0.000 N 
ATOM     17  C   UNL     1       4.020   3.063  18.483  0.00  0.00    +0.000 C 
ATOM     18  C   UNL     1       3.076   2.503  19.552  0.00  0.00    +0.000 C 
ATOM     19  C   UNL     1       1.968   1.642  18.931  0.00  0.00    +0.000 C 
ENDBRANCH   1  16
TORSDOF 1
ENDMDL
MODEL 6
REMARK VINA RESULT:      -7.8      1.109      2.401
REMARK  Name = 
REMARK  1 active torsions:
REMARK  status: ('A' for Active; 'I' for Inactive)
REMARK    1  A    between atoms: N_6  and  C_7
REMARK                            x       y       z     vdW  Elec       q    Type
REMARK                         _______ _______ _______ _____ _____    ______ ____
ROOT
ATOM      1  C   UNL     1       5.411   5.363  17.531  0.00  0.00    +0.000 A 
ATOM      2  N   UNL     1       6.106   6.348  18.172  0.00  0.00    +0.000 NA
ATOM      3  C   UNL     1       7.213   6.866  17.596  0.00  0.00    +0.000 A 
ATOM      4  N   UNL     1       7.750   6.557  16.403  0.00  0.00    +0.000 NA
ATOM      5  C   UNL     1       7.019   5.622  15.785  0.00  0.00    +0.000 A 
ATOM      6  N   UNL     1       7.265   5.094  14.549  0.00  0.00    +0.000 N 
ATOM      7  N   UNL     1       6.357   4.176  14.159  0.00  0.00    +0.000 NA
ATOM      8  C   UNL     1       5.507   4.139  15.193  0.00  0.00    +0.000 A 
ATOM      9  C   UNL     1       5.873   5.001  16.252  0.00  0.00    +0.000 A 
ATOM     10  H   UNL     1       8.035   5.322  13.933  0.00  0.00    +0.000 HD
ENDROOT
BRANCH   1  16
ATOM     11  C   UNL     1       0.856   2.536  19.322  0.00  0.00    +0.000 C 
ATOM     12  C   UNL     1       0.658   3.636  20.053  0.00  0.00    +0.000 C 
ATOM     13  C   UNL     1       1.756   4.440  20.662  0.00  0.00    +0.000 C 
ATOM     14  C   UNL     1       3.176   4.149  20.158  0.00  0.00    +0.000 C 
ATOM     15  C   UNL     1       3.802   5.333  19.398  0.00  0.00    +0.000 C 
ATOM     16  N   UNL     1       4.318   4.793  18.154  0.00  0.00    +0.000 N 
ATOM     17  C   UNL     1       4.026   3.387  17.976  0.00  0.00    +0.000 C 
ATOM     18  C   UNL     1       3.395   2.902  19.286  0.00  0.00    +0.000 C 
ATOM     19  C   UNL     1       2.202   1.972  19.025  0.00  0.00    +0.000 C 
ENDBRANCH   1  16
TORSDOF 1
ENDMDL
MODEL 7
REMARK VINA RESULT:      -7.8      1.478      2.605
REMARK  Name = 
REMARK  1 active torsions:
REMARK  status: ('A' for Active; 'I' for Inactive)
REMARK    1  A    between atoms: N_6  and  C_7
REMARK                            x       y       z     vdW  Elec       q    Type
REMARK                         _______ _______ _______ _____ _____    ______ ____
ROOT
ATOM      1  C   UNL     1       5.606   5.028  18.607  0.00  0.00    +0.000 A 
ATOM      2  N   UNL     1       6.475   5.317  19.619  0.00  0.00    +0.000 NA
ATOM      3  C   UNL     1       7.699   5.807  19.328  0.00  0.00    +0.000 A 
ATOM      4  N   UNL     1       8.212   6.094  18.120  0.00  0.00    +0.000 NA
ATOM      5  C   UNL     1       7.320   5.841  17.156  0.00  0.00    +0.000 A 
ATOM      6  N   UNL     1       7.502   6.040  15.816  0.00  0.00    +0.000 N 
ATOM      7  N   UNL     1       6.429   5.715  15.067  0.00  0.00    +0.000 NA
ATOM      8  C   UNL     1       5.540   5.303  15.981  0.00  0.00    +0.000 A 
ATOM      9  C   UNL     1       6.039   5.337  17.303  0.00  0.00    +0.000 A 
ATOM     10  H   UNL     1       8.335   6.393  15.362  0.00  0.00    +0.000 HD
ENDROOT
BRANCH   1  16
ATOM     11  C   UNL     1       0.714   3.082  20.662  0.00  0.00    +0.000 C 
ATOM     12  C   UNL     1       0.882   2.138  19.732  0.00  0.00    +0.000 C 
ATOM     13  C   UNL     1       1.484   2.387  18.390  0.00  0.00    +0.000 C 
ATOM     14  C   UNL     1       2.213   3.726  18.207  0.00  0.00    +0.000 C 
ATOM     15  C   UNL     1       3.727   3.562  17.979  0.00  0.00    +0.000 C 
ATOM     16  N   UNL     1       4.380   4.466  18.907  0.00  0.00    +0.000 N 
ATOM     17  C   UNL     1       3.456   5.153  19.782  0.00  0.00    +0.000 C 
ATOM     18  C   UNL     1       2.047   4.797  19.297  0.00  0.00    +0.000 C 
ATOM     19  C   UNL     1       1.103   4.507  20.472  0.00  0.00    +0.000 C 
ENDBRANCH   1  16
TORSDOF 1
ENDMDL
MODEL 8
REMARK VINA RESULT:      -7.6      1.564      2.635
REMARK  Name = 
REMARK  1 active torsions:
REMARK  status: ('A' for Active; 'I' for Inactive)
REMARK    1  A    between atoms: N_6  and  C_7
REMARK                            x       y       z     vdW  Elec       q    Type
REMARK                         _______ _______ _______ _____ _____    ______ ____
ROOT
ATOM      1  C   UNL     1       5.491   4.266  17.663  0.00  0.00    +0.000 A 
ATOM      2  N   UNL     1       6.605   4.467  18.427  0.00  0.00    +0.000 NA
ATOM      3  C   UNL     1       7.802   4.641  17.828  0.00  0.00    +0.000 A 
ATOM      4  N   UNL     1       8.075   4.673  16.512  0.00  0.00    +0.000 NA
ATOM      5  C   UNL     1       6.957   4.518  15.794  0.00  0.00    +0.000 A 
ATOM      6  N   UNL     1       6.867   4.523  14.431  0.00  0.00    +0.000 N 
ATOM      7  N   UNL     1       5.611   4.360  13.968  0.00  0.00    +0.000 NA
ATOM      8  C   UNL     1       4.889   4.258  15.091  0.00  0.00    +0.000 A 
ATOM      9  C   UNL     1       5.670   4.327  16.268  0.00  0.00    +0.000 A 
ATOM     10  H   UNL     1       7.628   4.631  13.772  0.00  0.00    +0.000 HD
ENDROOT
BRANCH   1  16
ATOM     11  C   UNL     1       0.920   3.653  20.930  0.00  0.00    +0.000 C 
ATOM     12  C   UNL     1       0.669   2.628  20.112  0.00  0.00    +0.000 C 
ATOM     13  C   UNL     1       0.980   2.630  18.653  0.00  0.00    +0.000 C 
ATOM     14  C   UNL     1       1.905   3.749  18.154  0.00  0.00    +0.000 C 
ATOM     15  C   UNL     1       3.258   3.226  17.634  0.00  0.00    +0.000 C 
ATOM     16  N   UNL     1       4.280   4.025  18.283  0.00  0.00    +0.000 N 
ATOM     17  C   UNL     1       3.747   4.970  19.240  0.00  0.00    +0.000 C 
ATOM     18  C   UNL     1       2.222   4.909  19.111  0.00  0.00    +0.000 C 
ATOM     19  C   UNL     1       1.539   4.933  20.485  0.00  0.00    +0.000 C 
ENDBRANCH   1  16
TORSDOF 1
ENDMDL
MODEL 9
REMARK VINA RESULT:      -7.5      1.001      1.632
REMARK  Name = 
REMARK  1 active torsions:
REMARK  status: ('A' for Active; 'I' for Inactive)
REMARK    1  A    between atoms: N_6  and  C_7
REMARK                            x       y       z     vdW  Elec       q    Type
REMARK                         _______ _______ _______ _____ _____    ______ ____
ROOT
ATOM      1  C   UNL     1       4.995   4.608  16.984  0.00  0.00    +0.000 A 
ATOM      2  N   UNL     1       4.916   3.992  15.768  0.00  0.00    +0.000 NA
ATOM      3  C   UNL     1       5.773   4.343  14.785  0.00  0.00    +0.000 A 
ATOM      4  N   UNL     1       6.769   5.244  14.836  0.00  0.00    +0.000 NA
ATOM      5  C   UNL     1       6.846   5.795  16.052  0.00  0.00    +0.000 A 
ATOM      6  N   UNL     1       7.756   6.731  16.457  0.00  0.00    +0.000 N 
ATOM      7  N   UNL     1       7.616   7.104  17.746  0.00  0.00    +0.000 NA
ATOM      8  C   UNL     1       6.580   6.363  18.160  0.00  0.00    +0.000 A 
ATOM      9  C   UNL     1       6.039   5.539  17.147  0.00  0.00    +0.000 A 
ATOM     10  H   UNL     1       8.489   7.147  15.897  0.00  0.00    +0.000 HD
ENDROOT
BRANCH   1  16
ATOM     11  C   UNL     1       1.568   2.472  20.938  0.00  0.00    +0.000 C 
ATOM     12  C   UNL     1       0.758   3.456  20.542  0.00  0.00    +0.000 C 
ATOM     13  C   UNL     1       1.232   4.805  20.116  0.00  0.00    +0.000 C 
ATOM     14  C   UNL     1       2.735   4.944  19.839  0.00  0.00    +0.000 C 
ATOM     15  C   UNL     1       3.051   5.240  18.360  0.00  0.00    +0.000 C 
ATOM     16  N   UNL     1       4.075   4.291  17.964  0.00  0.00    +0.000 N 
ATOM     17  C   UNL     1       4.411   3.344  19.005  0.00  0.00    +0.000 C 
ATOM     18  C   UNL     1       3.661   3.793  20.263  0.00  0.00    +0.000 C 
ATOM     19  C   UNL     1       3.051   2.599  21.010  0.00  0.00    +0.000 C 
ENDBRANCH   1  16
TORSDOF 1
ENDMDL
