MODEL 1
REMARK VINA RESULT:      -7.3      0.000      0.000
REMARK  Name = 
REMARK  13 active torsions:
REMARK  status: ('A' for Active; 'I' for Inactive)
REMARK    1  A    between atoms: C_1  and  C_2
REMARK    2  A    between atoms: C_2  and  O_3
REMARK    3  A    between atoms: O_3  and  C_4
REMARK    4  A    between atoms: C_7  and  C_8
REMARK    5  A    between atoms: C_8  and  C_9
REMARK    6  A    between atoms: C_9  and  N_10
REMARK    7  A    between atoms: C_11  and  C_13
REMARK    8  A    between atoms: C_13  and  O_14
REMARK    9  A    between atoms: O_14  and  C_15
REMARK   10  A    between atoms: C_15  and  C_17
REMARK   11  A    between atoms: C_25  and  O_26
REMARK   12  A    between atoms: O_26  and  C_27
REMARK   13  A    between atoms: C_27  and  C_28
REMARK                            x       y       z     vdW  Elec       q    Type
REMARK                         _______ _______ _______ _____ _____    ______ ____
ROOT
ATOM      1  N   UNL     1       7.544   6.919  17.671  0.00  0.00    +0.000 N 
ATOM      2  C   UNL     1       7.423   5.689  18.286  0.00  0.00    +0.000 C 
ATOM      3  O   UNL     1       7.982   5.419  19.347  0.00  0.00    +0.000 OA
ATOM      4  H   UNL     1       7.109   7.090  16.771  0.00  0.00    +0.000 HD
ENDROOT
BRANCH   1   5
ATOM      5  C   UNL     1       8.353   7.958  18.279  0.00  0.00    +0.000 C 
BRANCH   5   6
ATOM      6  C   UNL     1       8.135   9.352  17.683  0.00  0.00    +0.000 C 
BRANCH   6  10
ATOM      7  C   UNL     1      10.181  12.592  19.713  0.00  0.00    +0.000 A 
ATOM      8  C   UNL     1      10.178  11.297  20.251  0.00  0.00    +0.000 A 
ATOM      9  C   UNL     1       9.504  10.252  19.613  0.00  0.00    +0.000 A 
ATOM     10  C   UNL     1       8.787  10.485  18.439  0.00  0.00    +0.000 A 
ATOM     11  C   UNL     1       8.738  11.794  17.938  0.00  0.00    +0.000 A 
ATOM     12  C   UNL     1       9.396  12.855  18.580  0.00  0.00    +0.000 A 
BRANCH   7  13
ATOM     13  O   UNL     1      10.946  13.600  20.240  0.00  0.00    +0.000 OA
BRANCH  13  15
ATOM     14  C   UNL     1      10.709  15.828  21.101  0.00  0.00    +0.000 C 
ATOM     15  C   UNL     1      10.343  14.367  21.286  0.00  0.00    +0.000 C 
ENDBRANCH  13  15
ENDBRANCH   7  13
BRANCH  12  16
ATOM     16  O   UNL     1       9.212  14.057  17.946  0.00  0.00    +0.000 OA
BRANCH  16  17
ATOM     17  C   UNL     1       8.236  14.946  18.490  0.00  0.00    +0.000 C 
ATOM     18  C   UNL     1       6.960  14.807  17.673  0.00  0.00    +0.000 C 
ENDBRANCH  16  17
ENDBRANCH  12  16
ENDBRANCH   6  10
ENDBRANCH   5   6
ENDBRANCH   1   5
BRANCH   2  19
ATOM     19  C   UNL     1       6.528   4.688  17.554  0.00  0.00    +0.000 C 
BRANCH  19  20
ATOM     20  O   UNL     1       5.602   4.041  18.426  0.00  0.00    +0.000 OA
BRANCH  20  21
ATOM     21  C   UNL     1       4.343   4.514  18.346  0.00  0.00    +0.000 C 
ATOM     22  O   UNL     1       3.890   5.264  17.498  0.00  0.00    +0.000 OA
BRANCH  21  23
ATOM     23  C   UNL     1       3.489   3.990  19.499  0.00  0.00    +0.000 C 
ATOM     24  N   UNL     1       3.816   2.880  20.089  0.00  0.00    +0.000 NA
ATOM     25  N   UNL     1       3.041   2.470  21.135  0.00  0.00    +0.000 N 
ATOM     26  C   UNL     1       1.815   2.973  21.486  0.00  0.00    +0.000 C 
ATOM     27  O   UNL     1       1.168   2.508  22.424  0.00  0.00    +0.000 OA
ATOM     28  C   UNL     1       1.271   4.067  20.608  0.00  0.00    +0.000 C 
ATOM     29  C   UNL     1       2.369   4.880  19.958  0.00  0.00    +0.000 C 
ATOM     30  H   UNL     1       3.373   1.664  21.656  0.00  0.00    +0.000 HD
ENDBRANCH  21  23
ENDBRANCH  20  21
ENDBRANCH  19  20
ENDBRANCH   2  19
TORSDOF 11
ENDMDL
MODEL 2
REMARK VINA RESULT:      -7.2      2.974      9.680
REMARK  Name = 
REMARK  13 active torsions:
REMARK  status: ('A' for Active; 'I' for Inactive)
REMARK    1  A    between atoms: C_1  and  C_2
REMARK    2  A    between atoms: C_2  and  O_3
REMARK    3  A    between atoms: O_3  and  C_4
REMARK    4  A    between atoms: C_7  and  C_8
REMARK    5  A    between atoms: C_8  and  C_9
REMARK    6  A    between atoms: C_9  and  N_10
REMARK    7  A    between atoms: C_11  and  C_13
REMARK    8  A    between atoms: C_13  and  O_14
REMARK    9  A    between atoms: O_14  and  C_15
REMARK   10  A    between atoms: C_15  and  C_17
REMARK   11  A    between atoms: C_25  and  O_26
REMARK   12  A    between atoms: O_26  and  C_27
REMARK   13  A    between atoms: C_27  and  C_28
REMARK                            x       y       z     vdW  Elec       q    Type
REMARK                         _______ _______ _______ _____ _____    ______ ____
ROOT
ATOM      1  N   UNL     1       7.272   7.305  16.792  0.00  0.00    +0.000 N 
ATOM      2  C   UNL     1       7.923   7.821  17.895  0.00  0.00    +0.000 C 
ATOM      3  O   UNL     1       8.340   7.116  18.812  0.00  0.00    +0.000 OA
ATOM      4  H   UNL     1       6.897   7.921  16.080  0.00  0.00    +0.000 HD
ENDROOT
BRANCH   1   5
ATOM      5  C   UNL     1       7.060   5.874  16.679  0.00  0.00    +0.000 C 
BRANCH   5   6
ATOM      6  C   UNL     1       5.814   5.486  15.877  0.00  0.00    +0.000 C 
BRANCH   6  10
ATOM      7  C   UNL     1       2.382   4.745  18.423  0.00  0.00    +0.000 A 
ATOM      8  C   UNL     1       2.983   3.700  17.706  0.00  0.00    +0.000 A 
ATOM      9  C   UNL     1       4.076   3.934  16.868  0.00  0.00    +0.000 A 
ATOM     10  C   UNL     1       4.574   5.227  16.700  0.00  0.00    +0.000 A 
ATOM     11  C   UNL     1       3.932   6.280  17.368  0.00  0.00    +0.000 A 
ATOM     12  C   UNL     1       2.822   6.058  18.198  0.00  0.00    +0.000 A 
BRANCH   7  13
ATOM     13  O   UNL     1       1.402   4.522  19.356  0.00  0.00    +0.000 OA
BRANCH  13  15
ATOM     14  C   UNL     1       2.105   3.594  21.454  0.00  0.00    +0.000 C 
ATOM     15  C   UNL     1       1.501   3.301  20.093  0.00  0.00    +0.000 C 
ENDBRANCH  13  15
ENDBRANCH   7  13
BRANCH  12  16
ATOM     16  O   UNL     1       2.327   7.215  18.744  0.00  0.00    +0.000 OA
BRANCH  16  17
ATOM     17  C   UNL     1       2.324   8.382  17.922  0.00  0.00    +0.000 C 
ATOM     18  C   UNL     1       1.382   9.401  18.547  0.00  0.00    +0.000 C 
ENDBRANCH  16  17
ENDBRANCH  12  16
ENDBRANCH   6  10
ENDBRANCH   5   6
ENDBRANCH   1   5
BRANCH   2  19
ATOM     19  C   UNL     1       8.099   9.341  17.885  0.00  0.00    +0.000 C 
BRANCH  19  20
ATOM     20  O   UNL     1       8.990   9.796  18.904  0.00  0.00    +0.000 OA
BRANCH  20  21
ATOM     21  C   UNL     1       9.629  10.943  18.608  0.00  0.00    +0.000 C 
ATOM     22  O   UNL     1      10.354  11.158  17.651  0.00  0.00    +0.000 OA
BRANCH  21  23
ATOM     23  C   UNL     1       9.345  12.013  19.660  0.00  0.00    +0.000 C 
ATOM     24  N   UNL     1       9.209  13.254  19.296  0.00  0.00    +0.000 NA
ATOM     25  N   UNL     1       8.923  14.168  20.266  0.00  0.00    +0.000 N 
ATOM     26  C   UNL     1       8.995  13.968  21.621  0.00  0.00    +0.000 C 
ATOM     27  O   UNL     1       8.757  14.870  22.423  0.00  0.00    +0.000 OA
ATOM     28  C   UNL     1       9.460  12.608  22.065  0.00  0.00    +0.000 C 
ATOM     29  C   UNL     1       9.119  11.528  21.063  0.00  0.00    +0.000 C 
ATOM     30  H   UNL     1       8.708  15.110  19.952  0.00  0.00    +0.000 HD
ENDBRANCH  21  23
ENDBRANCH  20  21
ENDBRANCH  19  20
ENDBRANCH   2  19
TORSDOF 11
ENDMDL
MODEL 3
REMARK VINA RESULT:      -7.1      6.435      9.587
REMARK  Name = 
REMARK  13 active torsions:
REMARK  status: ('A' for Active; 'I' for Inactive)
REMARK    1  A    between atoms: C_1  and  C_2
REMARK    2  A    between atoms: C_2  and  O_3
REMARK    3  A    between atoms: O_3  and  C_4
REMARK    4  A    between atoms: C_7  and  C_8
REMARK    5  A    between atoms: C_8  and  C_9
REMARK    6  A    between atoms: C_9  and  N_10
REMARK    7  A    between atoms: C_11  and  C_13
REMARK    8  A    between atoms: C_13  and  O_14
REMARK    9  A    between atoms: O_14  and  C_15
REMARK   10  A    between atoms: C_15  and  C_17
REMARK   11  A    between atoms: C_25  and  O_26
REMARK   12  A    between atoms: O_26  and  C_27
REMARK   13  A    between atoms: C_27  and  C_28
REMARK                            x       y       z     vdW  Elec       q    Type
REMARK                         _______ _______ _______ _____ _____    ______ ____
ROOT
ATOM      1  N   UNL     1       1.584   8.441  19.261  0.00  0.00    +0.000 N 
ATOM      2  C   UNL     1       2.383   7.395  18.844  0.00  0.00    +0.000 C 
ATOM      3  O   UNL     1       3.091   7.458  17.841  0.00  0.00    +0.000 OA
ATOM      4  H   UNL     1       0.975   8.335  20.064  0.00  0.00    +0.000 HD
ENDROOT
BRANCH   1   5
ATOM      5  C   UNL     1       1.561   9.681  18.510  0.00  0.00    +0.000 C 
BRANCH   5   6
ATOM      6  C   UNL     1       0.939  10.860  19.263  0.00  0.00    +0.000 C 
BRANCH   6  10
ATOM      7  C   UNL     1      -3.277  11.532  18.502  0.00  0.00    +0.000 A 
ATOM      8  C   UNL     1      -2.630  12.172  19.569  0.00  0.00    +0.000 A 
ATOM      9  C   UNL     1      -1.277  11.945  19.833  0.00  0.00    +0.000 A 
ATOM     10  C   UNL     1      -0.546  11.045  19.056  0.00  0.00    +0.000 A 
ATOM     11  C   UNL     1      -1.211  10.358  18.030  0.00  0.00    +0.000 A 
ATOM     12  C   UNL     1      -2.575  10.565  17.768  0.00  0.00    +0.000 A 
BRANCH   7  13
ATOM     13  O   UNL     1      -4.562  11.841  18.136  0.00  0.00    +0.000 OA
BRANCH  13  15
ATOM     14  C   UNL     1      -6.392  13.371  18.401  0.00  0.00    +0.000 C 
ATOM     15  C   UNL     1      -5.346  12.532  19.112  0.00  0.00    +0.000 C 
ENDBRANCH  13  15
ENDBRANCH   7  13
BRANCH  12  16
ATOM     16  O   UNL     1      -3.042   9.787  16.739  0.00  0.00    +0.000 OA
BRANCH  16  17
ATOM     17  C   UNL     1      -2.566  10.077  15.425  0.00  0.00    +0.000 C 
ATOM     18  C   UNL     1      -3.758  10.086  14.480  0.00  0.00    +0.000 C 
ENDBRANCH  16  17
ENDBRANCH  12  16
ENDBRANCH   6  10
ENDBRANCH   5   6
ENDBRANCH   1   5
BRANCH   2  19
ATOM     19  C   UNL     1       2.331   6.151  19.732  0.00  0.00    +0.000 C 
BRANCH  19  20
ATOM     20  O   UNL     1       3.629   5.630  20.022  0.00  0.00    +0.000 OA
BRANCH  20  21
ATOM     21  C   UNL     1       3.843   4.386  19.551  0.00  0.00    +0.000 C 
ATOM     22  O   UNL     1       3.279   3.361  19.894  0.00  0.00    +0.000 OA
BRANCH  21  23
ATOM     23  C   UNL     1       4.936   4.388  18.485  0.00  0.00    +0.000 C 
ATOM     24  N   UNL     1       6.185   4.359  18.844  0.00  0.00    +0.000 NA
ATOM     25  N   UNL     1       7.124   4.328  17.855  0.00  0.00    +0.000 N 
ATOM     26  C   UNL     1       6.911   4.562  16.521  0.00  0.00    +0.000 C 
ATOM     27  O   UNL     1       7.833   4.554  15.706  0.00  0.00    +0.000 OA
ATOM     28  C   UNL     1       5.501   4.912  16.127  0.00  0.00    +0.000 C 
ATOM     29  C   UNL     1       4.477   4.301  17.058  0.00  0.00    +0.000 C 
ATOM     30  H   UNL     1       8.088   4.191  18.149  0.00  0.00    +0.000 HD
ENDBRANCH  21  23
ENDBRANCH  20  21
ENDBRANCH  19  20
ENDBRANCH   2  19
TORSDOF 11
ENDMDL
MODEL 4
REMARK VINA RESULT:      -7.0      6.300      8.906
REMARK  Name = 
REMARK  13 active torsions:
REMARK  status: ('A' for Active; 'I' for Inactive)
REMARK    1  A    between atoms: C_1  and  C_2
REMARK    2  A    between atoms: C_2  and  O_3
REMARK    3  A    between atoms: O_3  and  C_4
REMARK    4  A    between atoms: C_7  and  C_8
REMARK    5  A    between atoms: C_8  and  C_9
REMARK    6  A    between atoms: C_9  and  N_10
REMARK    7  A    between atoms: C_11  and  C_13
REMARK    8  A    between atoms: C_13  and  O_14
REMARK    9  A    between atoms: O_14  and  C_15
REMARK   10  A    between atoms: C_15  and  C_17
REMARK   11  A    between atoms: C_25  and  O_26
REMARK   12  A    between atoms: O_26  and  C_27
REMARK   13  A    between atoms: C_27  and  C_28
REMARK                            x       y       z     vdW  Elec       q    Type
REMARK                         _______ _______ _______ _____ _____    ______ ____
ROOT
ATOM      1  N   UNL     1       1.887   6.772  20.950  0.00  0.00    +0.000 N 
ATOM      2  C   UNL     1       2.345   6.047  19.867  0.00  0.00    +0.000 C 
ATOM      3  O   UNL     1       2.455   6.530  18.743  0.00  0.00    +0.000 OA
ATOM      4  H   UNL     1       1.761   6.327  21.852  0.00  0.00    +0.000 HD
ENDROOT
BRANCH   1   5
ATOM      5  C   UNL     1       1.519   8.166  20.787  0.00  0.00    +0.000 C 
BRANCH   5   6
ATOM      6  C   UNL     1       1.179   8.882  22.097  0.00  0.00    +0.000 C 
BRANCH   6  10
ATOM      7  C   UNL     1      -1.720  12.095  21.824  0.00  0.00    +0.000 A 
ATOM      8  C   UNL     1      -1.589  11.346  23.002  0.00  0.00    +0.000 A 
ATOM      9  C   UNL     1      -0.671  10.296  23.091  0.00  0.00    +0.000 A 
ATOM     10  C   UNL     1       0.114   9.947  21.991  0.00  0.00    +0.000 A 
ATOM     11  C   UNL     1      -0.065  10.656  20.794  0.00  0.00    +0.000 A 
ATOM     12  C   UNL     1      -0.997  11.701  20.688  0.00  0.00    +0.000 A 
BRANCH   7  13
ATOM     13  O   UNL     1      -2.508  13.215  21.755  0.00  0.00    +0.000 OA
BRANCH  13  15
ATOM     14  C   UNL     1      -4.755  12.696  21.091  0.00  0.00    +0.000 C 
ATOM     15  C   UNL     1      -3.845  13.075  22.244  0.00  0.00    +0.000 C 
ENDBRANCH  13  15
ENDBRANCH   7  13
BRANCH  12  16
ATOM     16  O   UNL     1      -1.035  12.254  19.434  0.00  0.00    +0.000 OA
BRANCH  16  17
ATOM     17  C   UNL     1      -1.288  11.379  18.335  0.00  0.00    +0.000 C 
ATOM     18  C   UNL     1      -2.793  11.197  18.210  0.00  0.00    +0.000 C 
ENDBRANCH  16  17
ENDBRANCH  12  16
ENDBRANCH   6  10
ENDBRANCH   5   6
ENDBRANCH   1   5
BRANCH   2  19
ATOM     19  C   UNL     1       2.716   4.595  20.175  0.00  0.00    +0.000 C 
BRANCH  19  20
ATOM     20  O   UNL     1       4.025   4.256  19.717  0.00  0.00    +0.000 OA
BRANCH  20  21
ATOM     21  C   UNL     1       4.043   3.495  18.607  0.00  0.00    +0.000 C 
ATOM     22  O   UNL     1       3.392   2.487  18.393  0.00  0.00    +0.000 OA
BRANCH  21  23
ATOM     23  C   UNL     1       5.027   4.051  17.580  0.00  0.00    +0.000 C 
ATOM     24  N   UNL     1       4.716   4.038  16.318  0.00  0.00    +0.000 NA
ATOM     25  N   UNL     1       5.612   4.576  15.442  0.00  0.00    +0.000 N 
ATOM     26  C   UNL     1       6.913   4.917  15.714  0.00  0.00    +0.000 C 
ATOM     27  O   UNL     1       7.662   5.359  14.843  0.00  0.00    +0.000 OA
ATOM     28  C   UNL     1       7.390   4.643  17.113  0.00  0.00    +0.000 C 
ATOM     29  C   UNL     1       6.267   4.699  18.125  0.00  0.00    +0.000 C 
ATOM     30  H   UNL     1       5.307   4.661  14.476  0.00  0.00    +0.000 HD
ENDBRANCH  21  23
ENDBRANCH  20  21
ENDBRANCH  19  20
ENDBRANCH   2  19
TORSDOF 11
ENDMDL
MODEL 5
REMARK VINA RESULT:      -7.0      4.427      7.882
REMARK  Name = 
REMARK  13 active torsions:
REMARK  status: ('A' for Active; 'I' for Inactive)
REMARK    1  A    between atoms: C_1  and  C_2
REMARK    2  A    between atoms: C_2  and  O_3
REMARK    3  A    between atoms: O_3  and  C_4
REMARK    4  A    between atoms: C_7  and  C_8
REMARK    5  A    between atoms: C_8  and  C_9
REMARK    6  A    between atoms: C_9  and  N_10
REMARK    7  A    between atoms: C_11  and  C_13
REMARK    8  A    between atoms: C_13  and  O_14
REMARK    9  A    between atoms: O_14  and  C_15
REMARK   10  A    between atoms: C_15  and  C_17
REMARK   11  A    between atoms: C_25  and  O_26
REMARK   12  A    between atoms: O_26  and  C_27
REMARK   13  A    between atoms: C_27  and  C_28
REMARK                            x       y       z     vdW  Elec       q    Type
REMARK                         _______ _______ _______ _____ _____    ______ ____
ROOT
ATOM      1  N   UNL     1       1.567   3.244  18.993  0.00  0.00    +0.000 N 
ATOM      2  C   UNL     1       1.457   3.694  20.294  0.00  0.00    +0.000 C 
ATOM      3  O   UNL     1       1.821   3.028  21.261  0.00  0.00    +0.000 OA
ATOM      4  H   UNL     1       1.210   3.799  18.224  0.00  0.00    +0.000 HD
ENDROOT
BRANCH   1   5
ATOM      5  C   UNL     1       2.138   1.938  18.723  0.00  0.00    +0.000 C 
BRANCH   5   6
ATOM      6  C   UNL     1       3.665   1.932  18.608  0.00  0.00    +0.000 C 
BRANCH   6  10
ATOM      7  C   UNL     1       5.652   5.647  17.579  0.00  0.00    +0.000 A 
ATOM      8  C   UNL     1       5.453   5.288  18.920  0.00  0.00    +0.000 A 
ATOM      9  C   UNL     1       4.796   4.103  19.259  0.00  0.00    +0.000 A 
ATOM     10  C   UNL     1       4.290   3.264  18.265  0.00  0.00    +0.000 A 
ATOM     11  C   UNL     1       4.434   3.657  16.927  0.00  0.00    +0.000 A 
ATOM     12  C   UNL     1       5.077   4.854  16.574  0.00  0.00    +0.000 A 
BRANCH   7  13
ATOM     13  O   UNL     1       6.413   6.729  17.218  0.00  0.00    +0.000 OA
BRANCH  13  15
ATOM     14  C   UNL     1       8.029   8.358  17.919  0.00  0.00    +0.000 C 
ATOM     15  C   UNL     1       7.651   6.889  17.917  0.00  0.00    +0.000 C 
ENDBRANCH  13  15
ENDBRANCH   7  13
BRANCH  12  16
ATOM     16  O   UNL     1       5.098   5.068  15.220  0.00  0.00    +0.000 OA
BRANCH  16  17
ATOM     17  C   UNL     1       5.800   4.120  14.415  0.00  0.00    +0.000 C 
ATOM     18  C   UNL     1       7.098   4.763  13.949  0.00  0.00    +0.000 C 
ENDBRANCH  16  17
ENDBRANCH  12  16
ENDBRANCH   6  10
ENDBRANCH   5   6
ENDBRANCH   1   5
BRANCH   2  19
ATOM     19  C   UNL     1       0.856   5.093  20.442  0.00  0.00    +0.000 C 
BRANCH  19  20
ATOM     20  O   UNL     1       1.824   6.066  20.835  0.00  0.00    +0.000 OA
BRANCH  20  21
ATOM     21  C   UNL     1       1.964   7.088  19.970  0.00  0.00    +0.000 C 
ATOM     22  O   UNL     1       2.462   7.049  18.857  0.00  0.00    +0.000 OA
BRANCH  21  23
ATOM     23  C   UNL     1       1.408   8.383  20.559  0.00  0.00    +0.000 C 
ATOM     24  N   UNL     1       1.429   8.566  21.845  0.00  0.00    +0.000 NA
ATOM     25  N   UNL     1       0.952   9.751  22.321  0.00  0.00    +0.000 N 
ATOM     26  C   UNL     1       0.231  10.681  21.616  0.00  0.00    +0.000 C 
ATOM     27  O   UNL     1      -0.196  11.707  22.146  0.00  0.00    +0.000 OA
ATOM     28  C   UNL     1      -0.077  10.334  20.185  0.00  0.00    +0.000 C 
ATOM     29  C   UNL     1       0.971   9.430  19.575  0.00  0.00    +0.000 C 
ATOM     30  H   UNL     1       1.079   9.926  23.314  0.00  0.00    +0.000 HD
ENDBRANCH  21  23
ENDBRANCH  20  21
ENDBRANCH  19  20
ENDBRANCH   2  19
TORSDOF 11
ENDMDL
MODEL 6
REMARK VINA RESULT:      -7.0      5.871      9.013
REMARK  Name = 
REMARK  13 active torsions:
REMARK  status: ('A' for Active; 'I' for Inactive)
REMARK    1  A    between atoms: C_1  and  C_2
REMARK    2  A    between atoms: C_2  and  O_3
REMARK    3  A    between atoms: O_3  and  C_4
REMARK    4  A    between atoms: C_7  and  C_8
REMARK    5  A    between atoms: C_8  and  C_9
REMARK    6  A    between atoms: C_9  and  N_10
REMARK    7  A    between atoms: C_11  and  C_13
REMARK    8  A    between atoms: C_13  and  O_14
REMARK    9  A    between atoms: O_14  and  C_15
REMARK   10  A    between atoms: C_15  and  C_17
REMARK   11  A    between atoms: C_25  and  O_26
REMARK   12  A    between atoms: O_26  and  C_27
REMARK   13  A    between atoms: C_27  and  C_28
REMARK                            x       y       z     vdW  Elec       q    Type
REMARK                         _______ _______ _______ _____ _____    ______ ____
ROOT
ATOM      1  N   UNL     1       3.237   6.971  18.737  0.00  0.00    +0.000 N 
ATOM      2  C   UNL     1       3.580   5.654  18.504  0.00  0.00    +0.000 C 
ATOM      3  O   UNL     1       2.901   4.903  17.807  0.00  0.00    +0.000 OA
ATOM      4  H   UNL     1       3.794   7.546  19.358  0.00  0.00    +0.000 HD
ENDROOT
BRANCH   1   5
ATOM      5  C   UNL     1       2.034   7.523  18.143  0.00  0.00    +0.000 C 
BRANCH   5   6
ATOM      6  C   UNL     1       2.046   9.048  18.003  0.00  0.00    +0.000 C 
BRANCH   6  10
ATOM      7  C   UNL     1      -1.558  11.209  19.072  0.00  0.00    +0.000 A 
ATOM      8  C   UNL     1      -0.417  11.271  19.885  0.00  0.00    +0.000 A 
ATOM      9  C   UNL     1       0.741  10.561  19.558  0.00  0.00    +0.000 A 
ATOM     10  C   UNL     1       0.775   9.744  18.427  0.00  0.00    +0.000 A 
ATOM     11  C   UNL     1      -0.388   9.634  17.651  0.00  0.00    +0.000 A 
ATOM     12  C   UNL     1      -1.563  10.328  17.980  0.00  0.00    +0.000 A 
BRANCH   7  13
ATOM     13  O   UNL     1      -2.655  12.001  19.292  0.00  0.00    +0.000 OA
BRANCH  13  15
ATOM     14  C   UNL     1      -3.974  12.762  21.147  0.00  0.00    +0.000 C 
ATOM     15  C   UNL     1      -2.618  12.816  20.467  0.00  0.00    +0.000 C 
ENDBRANCH  13  15
ENDBRANCH   7  13
BRANCH  12  16
ATOM     16  O   UNL     1      -2.592  10.074  17.110  0.00  0.00    +0.000 OA
BRANCH  16  17
ATOM     17  C   UNL     1      -2.526  10.676  15.818  0.00  0.00    +0.000 C 
ATOM     18  C   UNL     1      -3.906  10.589  15.182  0.00  0.00    +0.000 C 
ENDBRANCH  16  17
ENDBRANCH  12  16
ENDBRANCH   6  10
ENDBRANCH   5   6
ENDBRANCH   1   5
BRANCH   2  19
ATOM     19  C   UNL     1       4.880   5.200  19.171  0.00  0.00    +0.000 C 
BRANCH  19  20
ATOM     20  O   UNL     1       5.750   4.518  18.268  0.00  0.00    +0.000 OA
BRANCH  20  21
ATOM     21  C   UNL     1       6.693   5.301  17.710  0.00  0.00    +0.000 C 
ATOM     22  O   UNL     1       7.371   6.148  18.267  0.00  0.00    +0.000 OA
BRANCH  21  23
ATOM     23  C   UNL     1       6.833   5.009  16.218  0.00  0.00    +0.000 C 
ATOM     24  N   UNL     1       7.593   5.764  15.483  0.00  0.00    +0.000 NA
ATOM     25  N   UNL     1       7.712   5.444  14.162  0.00  0.00    +0.000 N 
ATOM     26  C   UNL     1       6.934   4.554  13.467  0.00  0.00    +0.000 C 
ATOM     27  O   UNL     1       7.091   4.362  12.261  0.00  0.00    +0.000 OA
ATOM     28  C   UNL     1       5.829   3.893  14.243  0.00  0.00    +0.000 C 
ATOM     29  C   UNL     1       6.157   3.766  15.714  0.00  0.00    +0.000 C 
ATOM     30  H   UNL     1       8.396   5.972  13.628  0.00  0.00    +0.000 HD
ENDBRANCH  21  23
ENDBRANCH  20  21
ENDBRANCH  19  20
ENDBRANCH   2  19
TORSDOF 11
ENDMDL
MODEL 7
REMARK VINA RESULT:      -6.9      5.291      7.103
REMARK  Name = 
REMARK  13 active torsions:
REMARK  status: ('A' for Active; 'I' for Inactive)
REMARK    1  A    between atoms: C_1  and  C_2
REMARK    2  A    between atoms: C_2  and  O_3
REMARK    3  A    between atoms: O_3  and  C_4
REMARK    4  A    between atoms: C_7  and  C_8
REMARK    5  A    between atoms: C_8  and  C_9
REMARK    6  A    between atoms: C_9  and  N_10
REMARK    7  A    between atoms: C_11  and  C_13
REMARK    8  A    between atoms: C_13  and  O_14
REMARK    9  A    between atoms: O_14  and  C_15
REMARK   10  A    between atoms: C_15  and  C_17
REMARK   11  A    between atoms: C_25  and  O_26
REMARK   12  A    between atoms: O_26  and  C_27
REMARK   13  A    between atoms: C_27  and  C_28
REMARK                            x       y       z     vdW  Elec       q    Type
REMARK                         _______ _______ _______ _____ _____    ______ ____
ROOT
ATOM      1  N   UNL     1       2.746   7.550  18.752  0.00  0.00    +0.000 N 
ATOM      2  C   UNL     1       2.607   6.178  18.688  0.00  0.00    +0.000 C 
ATOM      3  O   UNL     1       2.047   5.610  17.753  0.00  0.00    +0.000 OA
ATOM      4  H   UNL     1       3.169   7.988  19.562  0.00  0.00    +0.000 HD
ENDROOT
BRANCH   1   5
ATOM      5  C   UNL     1       2.224   8.383  17.685  0.00  0.00    +0.000 C 
BRANCH   5   6
ATOM      6  C   UNL     1       1.055   9.279  18.103  0.00  0.00    +0.000 C 
BRANCH   6  10
ATOM      7  C   UNL     1       1.974  13.234  19.626  0.00  0.00    +0.000 A 
ATOM      8  C   UNL     1       2.519  12.788  18.414  0.00  0.00    +0.000 A 
ATOM      9  C   UNL     1       2.244  11.507  17.927  0.00  0.00    +0.000 A 
ATOM     10  C   UNL     1       1.444  10.629  18.658  0.00  0.00    +0.000 A 
ATOM     11  C   UNL     1       0.951  11.055  19.900  0.00  0.00    +0.000 A 
ATOM     12  C   UNL     1       1.236  12.332  20.408  0.00  0.00    +0.000 A 
BRANCH   7  13
ATOM     13  O   UNL     1       2.112  14.528  20.057  0.00  0.00    +0.000 OA
BRANCH  13  15
ATOM     14  C   UNL     1       2.925  16.417  18.819  0.00  0.00    +0.000 C 
ATOM     15  C   UNL     1       1.722  15.546  19.130  0.00  0.00    +0.000 C 
ENDBRANCH  13  15
ENDBRANCH   7  13
BRANCH  12  16
ATOM     16  O   UNL     1       0.680  12.550  21.642  0.00  0.00    +0.000 OA
BRANCH  16  17
ATOM     17  C   UNL     1      -0.679  12.987  21.685  0.00  0.00    +0.000 C 
ATOM     18  C   UNL     1      -1.300  12.479  22.978  0.00  0.00    +0.000 C 
ENDBRANCH  16  17
ENDBRANCH  12  16
ENDBRANCH   6  10
ENDBRANCH   5   6
ENDBRANCH   1   5
BRANCH   2  19
ATOM     19  C   UNL     1       3.216   5.414  19.865  0.00  0.00    +0.000 C 
BRANCH  19  20
ATOM     20  O   UNL     1       4.631   5.265  19.749  0.00  0.00    +0.000 OA
BRANCH  20  21
ATOM     21  C   UNL     1       5.020   4.110  19.174  0.00  0.00    +0.000 C 
ATOM     22  O   UNL     1       4.838   2.980  19.594  0.00  0.00    +0.000 OA
BRANCH  21  23
ATOM     23  C   UNL     1       5.763   4.375  17.867  0.00  0.00    +0.000 C 
ATOM     24  N   UNL     1       7.053   4.533  17.881  0.00  0.00    +0.000 NA
ATOM     25  N   UNL     1       7.677   4.733  16.684  0.00  0.00    +0.000 N 
ATOM     26  C   UNL     1       7.071   5.024  15.489  0.00  0.00    +0.000 C 
ATOM     27  O   UNL     1       7.723   5.232  14.466  0.00  0.00    +0.000 OA
ATOM     28  C   UNL     1       5.573   5.156  15.520  0.00  0.00    +0.000 C 
ATOM     29  C   UNL     1       4.945   4.315  16.609  0.00  0.00    +0.000 C 
ATOM     30  H   UNL     1       8.693   4.742  16.698  0.00  0.00    +0.000 HD
ENDBRANCH  21  23
ENDBRANCH  20  21
ENDBRANCH  19  20
ENDBRANCH   2  19
TORSDOF 11
ENDMDL
MODEL 8
REMARK VINA RESULT:      -6.9      5.719      7.825
REMARK  Name = 
REMARK  13 active torsions:
REMARK  status: ('A' for Active; 'I' for Inactive)
REMARK    1  A    between atoms: C_1  and  C_2
REMARK    2  A    between atoms: C_2  and  O_3
REMARK    3  A    between atoms: O_3  and  C_4
REMARK    4  A    between atoms: C_7  and  C_8
REMARK    5  A    between atoms: C_8  and  C_9
REMARK    6  A    between atoms: C_9  and  N_10
REMARK    7  A    between atoms: C_11  and  C_13
REMARK    8  A    between atoms: C_13  and  O_14
REMARK    9  A    between atoms: O_14  and  C_15
REMARK   10  A    between atoms: C_15  and  C_17
REMARK   11  A    between atoms: C_25  and  O_26
REMARK   12  A    between atoms: O_26  and  C_27
REMARK   13  A    between atoms: C_27  and  C_28
REMARK                            x       y       z     vdW  Elec       q    Type
REMARK                         _______ _______ _______ _____ _____    ______ ____
ROOT
ATOM      1  N   UNL     1       2.496   4.942  20.984  0.00  0.00    +0.000 N 
ATOM      2  C   UNL     1       1.934   3.712  20.707  0.00  0.00    +0.000 C 
ATOM      3  O   UNL     1       0.823   3.588  20.197  0.00  0.00    +0.000 OA
ATOM      4  H   UNL     1       3.393   5.006  21.451  0.00  0.00    +0.000 HD
ENDROOT
BRANCH   1   5
ATOM      5  C   UNL     1       1.771   6.159  20.667  0.00  0.00    +0.000 C 
BRANCH   5   6
ATOM      6  C   UNL     1       2.232   6.846  19.379  0.00  0.00    +0.000 C 
BRANCH   6  10
ATOM      7  C   UNL     1       0.883  10.947  18.963  0.00  0.00    +0.000 A 
ATOM      8  C   UNL     1       1.527  10.293  17.903  0.00  0.00    +0.000 A 
ATOM      9  C   UNL     1       1.983   8.979  18.036  0.00  0.00    +0.000 A 
ATOM     10  C   UNL     1       1.836   8.298  19.246  0.00  0.00    +0.000 A 
ATOM     11  C   UNL     1       1.249   8.975  20.324  0.00  0.00    +0.000 A 
ATOM     12  C   UNL     1       0.804  10.302  20.207  0.00  0.00    +0.000 A 
BRANCH   7  13
ATOM     13  O   UNL     1       0.303  12.180  18.817  0.00  0.00    +0.000 OA
BRANCH  13  15
ATOM     14  C   UNL     1      -1.770  11.690  17.712  0.00  0.00    +0.000 C 
ATOM     15  C   UNL     1      -1.118  12.231  18.971  0.00  0.00    +0.000 C 
ENDBRANCH  13  15
ENDBRANCH   7  13
BRANCH  12  16
ATOM     16  O   UNL     1       0.278  10.791  21.376  0.00  0.00    +0.000 OA
BRANCH  16  17
ATOM     17  C   UNL     1      -0.675   9.978  22.060  0.00  0.00    +0.000 C 
ATOM     18  C   UNL     1      -0.068   9.553  23.390  0.00  0.00    +0.000 C 
ENDBRANCH  16  17
ENDBRANCH  12  16
ENDBRANCH   6  10
ENDBRANCH   5   6
ENDBRANCH   1   5
BRANCH   2  19
ATOM     19  C   UNL     1       2.807   2.510  21.071  0.00  0.00    +0.000 C 
BRANCH  19  20
ATOM     20  O   UNL     1       4.045   2.495  20.360  0.00  0.00    +0.000 OA
BRANCH  20  21
ATOM     21  C   UNL     1       3.914   2.371  19.025  0.00  0.00    +0.000 C 
ATOM     22  O   UNL     1       3.357   1.471  18.420  0.00  0.00    +0.000 OA
BRANCH  21  23
ATOM     23  C   UNL     1       4.581   3.538  18.301  0.00  0.00    +0.000 C 
ATOM     24  N   UNL     1       4.352   3.725  17.035  0.00  0.00    +0.000 NA
ATOM     25  N   UNL     1       4.944   4.800  16.440  0.00  0.00    +0.000 N 
ATOM     26  C   UNL     1       5.945   5.575  16.968  0.00  0.00    +0.000 C 
ATOM     27  O   UNL     1       6.448   6.503  16.335  0.00  0.00    +0.000 OA
ATOM     28  C   UNL     1       6.446   5.173  18.328  0.00  0.00    +0.000 C 
ATOM     29  C   UNL     1       5.382   4.482  19.151  0.00  0.00    +0.000 C 
ATOM     30  H   UNL     1       4.667   4.997  15.482  0.00  0.00    +0.000 HD
ENDBRANCH  21  23
ENDBRANCH  20  21
ENDBRANCH  19  20
ENDBRANCH   2  19
TORSDOF 11
ENDMDL
MODEL 9
REMARK VINA RESULT:      -6.8      6.059      8.269
REMARK  Name = 
REMARK  13 active torsions:
REMARK  status: ('A' for Active; 'I' for Inactive)
REMARK    1  A    between atoms: C_1  and  C_2
REMARK    2  A    between atoms: C_2  and  O_3
REMARK    3  A    between atoms: O_3  and  C_4
REMARK    4  A    between atoms: C_7  and  C_8
REMARK    5  A    between atoms: C_8  and  C_9
REMARK    6  A    between atoms: C_9  and  N_10
REMARK    7  A    between atoms: C_11  and  C_13
REMARK    8  A    between atoms: C_13  and  O_14
REMARK    9  A    between atoms: O_14  and  C_15
REMARK   10  A    between atoms: C_15  and  C_17
REMARK   11  A    between atoms: C_25  and  O_26
REMARK   12  A    between atoms: O_26  and  C_27
REMARK   13  A    between atoms: C_27  and  C_28
REMARK                            x       y       z     vdW  Elec       q    Type
REMARK                         _______ _______ _______ _____ _____    ______ ____
ROOT
ATOM      1  N   UNL     1       2.083   6.698  20.601  0.00  0.00    +0.000 N 
ATOM      2  C   UNL     1       2.354   5.815  19.575  0.00  0.00    +0.000 C 
ATOM      3  O   UNL     1       2.341   6.146  18.391  0.00  0.00    +0.000 OA
ATOM      4  H   UNL     1       2.053   6.378  21.562  0.00  0.00    +0.000 HD
ENDROOT
BRANCH   1   5
ATOM      5  C   UNL     1       1.772   8.083  20.303  0.00  0.00    +0.000 C 
BRANCH   5   6
ATOM      6  C   UNL     1       0.608   8.654  21.117  0.00  0.00    +0.000 C 
BRANCH   6  10
ATOM      7  C   UNL     1      -0.725  12.499  19.619  0.00  0.00    +0.000 A 
ATOM      8  C   UNL     1      -0.106  12.393  20.874  0.00  0.00    +0.000 A 
ATOM      9  C   UNL     1       0.307  11.155  21.372  0.00  0.00    +0.000 A 
ATOM     10  C   UNL     1       0.081   9.987  20.642  0.00  0.00    +0.000 A 
ATOM     11  C   UNL     1      -0.594  10.088  19.417  0.00  0.00    +0.000 A 
ATOM     12  C   UNL     1      -1.031  11.325  18.915  0.00  0.00    +0.000 A 
BRANCH   7  13
ATOM     13  O   UNL     1      -1.013  13.711  19.047  0.00  0.00    +0.000 OA
BRANCH  13  15
ATOM     14  C   UNL     1      -0.337  16.014  19.087  0.00  0.00    +0.000 C 
ATOM     15  C   UNL     1       0.100  14.584  18.828  0.00  0.00    +0.000 C 
ENDBRANCH  13  15
ENDBRANCH   7  13
BRANCH  12  16
ATOM     16  O   UNL     1      -1.686  11.211  17.716  0.00  0.00    +0.000 OA
BRANCH  16  17
ATOM     17  C   UNL     1      -1.808   9.904  17.154  0.00  0.00    +0.000 C 
ATOM     18  C   UNL     1      -2.743   9.988  15.956  0.00  0.00    +0.000 C 
ENDBRANCH  16  17
ENDBRANCH  12  16
ENDBRANCH   6  10
ENDBRANCH   5   6
ENDBRANCH   1   5
BRANCH   2  19
ATOM     19  C   UNL     1       2.685   4.390  20.023  0.00  0.00    +0.000 C 
BRANCH  19  20
ATOM     20  O   UNL     1       3.998   3.985  19.635  0.00  0.00    +0.000 OA
BRANCH  20  21
ATOM     21  C   UNL     1       4.046   3.299  18.476  0.00  0.00    +0.000 C 
ATOM     22  O   UNL     1       3.427   2.287  18.193  0.00  0.00    +0.000 OA
BRANCH  21  23
ATOM     23  C   UNL     1       5.018   3.951  17.496  0.00  0.00    +0.000 C 
ATOM     24  N   UNL     1       4.712   4.016  16.234  0.00  0.00    +0.000 NA
ATOM     25  N   UNL     1       5.597   4.636  15.402  0.00  0.00    +0.000 N 
ATOM     26  C   UNL     1       6.886   4.994  15.705  0.00  0.00    +0.000 C 
ATOM     27  O   UNL     1       7.627   5.514  14.871  0.00  0.00    +0.000 OA
ATOM     28  C   UNL     1       7.366   4.637  17.085  0.00  0.00    +0.000 C 
ATOM     29  C   UNL     1       6.238   4.593  18.092  0.00  0.00    +0.000 C 
ATOM     30  H   UNL     1       5.294   4.779  14.443  0.00  0.00    +0.000 HD
ENDBRANCH  21  23
ENDBRANCH  20  21
ENDBRANCH  19  20
ENDBRANCH   2  19
TORSDOF 11
ENDMDL
