MODEL 1
REMARK VINA RESULT:      -7.5      0.000      0.000
REMARK  Name = 
REMARK  5 active torsions:
REMARK  status: ('A' for Active; 'I' for Inactive)
REMARK    1  A    between atoms: C_1  and  C_2
REMARK    2  A    between atoms: C_2  and  C_3
REMARK    3  A    between atoms: P_6  and  N_8
REMARK    4  A    between atoms: N_11  and  C_12
REMARK    5  A    between atoms: C_17  and  N_18
REMARK                            x       y       z     vdW  Elec       q    Type
REMARK                         _______ _______ _______ _____ _____    ______ ____
ROOT
ATOM      1  N   UNL     1       4.630   5.119  17.000  0.00  0.00    +0.000 N 
ATOM      2  C   UNL     1       5.137   4.324  16.007  0.00  0.00    +0.000 C 
ATOM      3  O   UNL     1       5.640   3.228  16.229  0.00  0.00    +0.000 OA
ATOM      4  N   UNL     1       5.064   4.902  14.757  0.00  0.00    +0.000 N 
ATOM      5  H   UNL     1       3.776   5.599  16.774  0.00  0.00    +0.000 HD
ATOM      6  H   UNL     1       5.172   5.915  14.779  0.00  0.00    +0.000 HD
ENDROOT
BRANCH   1  12
ATOM      7  C   UNL     1       1.596   2.577  21.303  0.00  0.00    +0.000 C 
ATOM      8  C   UNL     1       2.198   3.330  20.102  0.00  0.00    +0.000 C 
ATOM      9  C   UNL     1       1.039   3.809  19.203  0.00  0.00    +0.000 C 
ATOM     10  C   UNL     1       3.015   4.550  20.588  0.00  0.00    +0.000 C 
ATOM     11  N   UNL     1       3.566   5.287  19.445  0.00  0.00    +0.000 NA
ATOM     12  P   UNL     1       4.634   4.429  18.542  0.00  0.00    +0.000 P 
ATOM     13  O   UNL     1       5.983   4.383  19.181  0.00  0.00    +0.000 OA
ATOM     14  N   UNL     1       3.882   3.006  18.300  0.00  0.00    +0.000 NA
ATOM     15  C   UNL     1       3.138   2.358  19.356  0.00  0.00    +0.000 C 
ATOM     16  H   UNL     1       4.042   6.108  19.813  0.00  0.00    +0.000 HD
ATOM     17  H   UNL     1       4.565   2.357  17.912  0.00  0.00    +0.000 HD
ENDBRANCH   1  12
BRANCH   4  18
ATOM     18  C   UNL     1       5.613   4.235  13.621  0.00  0.00    +0.000 A 
ATOM     19  C   UNL     1       4.818   3.309  12.921  0.00  0.00    +0.000 A 
ATOM     20  C   UNL     1       5.332   2.591  11.840  0.00  0.00    +0.000 A 
ATOM     21  C   UNL     1       6.643   2.793  11.413  0.00  0.00    +0.000 A 
ATOM     22  C   UNL     1       7.441   3.721  12.078  0.00  0.00    +0.000 A 
ATOM     23  C   UNL     1       6.929   4.451  13.172  0.00  0.00    +0.000 A 
BRANCH  23  24
ATOM     24  N   UNL     1       7.840   5.374  13.867  0.00  0.00    +0.000 N 
ATOM     25  O   UNL     1       8.673   5.998  13.189  0.00  0.00    +0.000 OA
ATOM     26  O   UNL     1       7.739   5.472  15.098  0.00  0.00    +0.000 OA
ENDBRANCH  23  24
ENDBRANCH   4  18
TORSDOF 3
ENDMDL
MODEL 2
REMARK VINA RESULT:      -7.2      4.244      7.849
REMARK  Name = 
REMARK  5 active torsions:
REMARK  status: ('A' for Active; 'I' for Inactive)
REMARK    1  A    between atoms: C_1  and  C_2
REMARK    2  A    between atoms: C_2  and  C_3
REMARK    3  A    between atoms: P_6  and  N_8
REMARK    4  A    between atoms: N_11  and  C_12
REMARK    5  A    between atoms: C_17  and  N_18
REMARK                            x       y       z     vdW  Elec       q    Type
REMARK                         _______ _______ _______ _____ _____    ______ ____
ROOT
ATOM      1  N   UNL     1       3.492   5.236  20.062  0.00  0.00    +0.000 N 
ATOM      2  C   UNL     1       3.073   6.378  19.434  0.00  0.00    +0.000 C 
ATOM      3  O   UNL     1       3.509   6.730  18.343  0.00  0.00    +0.000 OA
ATOM      4  N   UNL     1       2.157   7.100  20.170  0.00  0.00    +0.000 N 
ATOM      5  H   UNL     1       2.772   4.710  20.526  0.00  0.00    +0.000 HD
ATOM      6  H   UNL     1       2.312   7.034  21.175  0.00  0.00    +0.000 HD
ENDROOT
BRANCH   1  12
ATOM      7  C   UNL     1       6.914   4.695  15.353  0.00  0.00    +0.000 C 
ATOM      8  C   UNL     1       5.903   4.995  16.476  0.00  0.00    +0.000 C 
ATOM      9  C   UNL     1       5.142   6.285  16.107  0.00  0.00    +0.000 C 
ATOM     10  C   UNL     1       4.902   3.826  16.623  0.00  0.00    +0.000 C 
ATOM     11  N   UNL     1       3.920   4.120  17.672  0.00  0.00    +0.000 NA
ATOM     12  P   UNL     1       4.565   4.281  19.173  0.00  0.00    +0.000 P 
ATOM     13  O   UNL     1       4.851   2.953  19.794  0.00  0.00    +0.000 OA
ATOM     14  N   UNL     1       5.830   5.279  18.946  0.00  0.00    +0.000 NA
ATOM     15  C   UNL     1       6.693   5.152  17.794  0.00  0.00    +0.000 C 
ATOM     16  H   UNL     1       3.252   3.352  17.689  0.00  0.00    +0.000 HD
ATOM     17  H   UNL     1       6.389   5.268  19.798  0.00  0.00    +0.000 HD
ENDBRANCH   1  12
BRANCH   4  18
ATOM     18  C   UNL     1       1.672   8.352  19.688  0.00  0.00    +0.000 A 
ATOM     19  C   UNL     1       1.890   8.699  18.343  0.00  0.00    +0.000 A 
ATOM     20  C   UNL     1       1.485   9.937  17.842  0.00  0.00    +0.000 A 
ATOM     21  C   UNL     1       0.830  10.853  18.663  0.00  0.00    +0.000 A 
ATOM     22  C   UNL     1       0.583  10.522  19.993  0.00  0.00    +0.000 A 
ATOM     23  C   UNL     1       0.990   9.272  20.506  0.00  0.00    +0.000 A 
BRANCH  23  24
ATOM     24  N   UNL     1       0.751   9.006  21.933  0.00  0.00    +0.000 N 
ATOM     25  O   UNL     1      -0.364   8.575  22.272  0.00  0.00    +0.000 OA
ATOM     26  O   UNL     1       1.672   9.240  22.730  0.00  0.00    +0.000 OA
ENDBRANCH  23  24
ENDBRANCH   4  18
TORSDOF 3
ENDMDL
MODEL 3
REMARK VINA RESULT:      -7.1      2.140      2.669
REMARK  Name = 
REMARK  5 active torsions:
REMARK  status: ('A' for Active; 'I' for Inactive)
REMARK    1  A    between atoms: C_1  and  C_2
REMARK    2  A    between atoms: C_2  and  C_3
REMARK    3  A    between atoms: P_6  and  N_8
REMARK    4  A    between atoms: N_11  and  C_12
REMARK    5  A    between atoms: C_17  and  N_18
REMARK                            x       y       z     vdW  Elec       q    Type
REMARK                         _______ _______ _______ _____ _____    ______ ____
ROOT
ATOM      1  N   UNL     1       4.368   2.830  17.446  0.00  0.00    +0.000 N 
ATOM      2  C   UNL     1       4.888   3.662  16.491  0.00  0.00    +0.000 C 
ATOM      3  O   UNL     1       4.590   4.849  16.414  0.00  0.00    +0.000 OA
ATOM      4  N   UNL     1       5.735   3.020  15.612  0.00  0.00    +0.000 N 
ATOM      5  H   UNL     1       5.015   2.172  17.843  0.00  0.00    +0.000 HD
ATOM      6  H   UNL     1       5.464   2.054  15.432  0.00  0.00    +0.000 HD
ENDROOT
BRANCH   1  12
ATOM      7  C   UNL     1       1.891   7.759  19.382  0.00  0.00    +0.000 C 
ATOM      8  C   UNL     1       2.693   6.595  18.771  0.00  0.00    +0.000 C 
ATOM      9  C   UNL     1       3.670   7.178  17.728  0.00  0.00    +0.000 C 
ATOM     10  C   UNL     1       3.489   5.856  19.871  0.00  0.00    +0.000 C 
ATOM     11  N   UNL     1       4.277   4.763  19.289  0.00  0.00    +0.000 NA
ATOM     12  P   UNL     1       3.377   3.583  18.589  0.00  0.00    +0.000 P 
ATOM     13  O   UNL     1       2.808   2.648  19.606  0.00  0.00    +0.000 OA
ATOM     14  N   UNL     1       2.318   4.401  17.662  0.00  0.00    +0.000 NA
ATOM     15  C   UNL     1       1.688   5.614  18.129  0.00  0.00    +0.000 C 
ATOM     16  H   UNL     1       4.825   4.348  20.039  0.00  0.00    +0.000 HD
ATOM     17  H   UNL     1       1.607   3.741  17.350  0.00  0.00    +0.000 HD
ENDBRANCH   1  12
BRANCH   4  18
ATOM     18  C   UNL     1       6.308   3.729  14.514  0.00  0.00    +0.000 A 
ATOM     19  C   UNL     1       5.984   3.337  13.203  0.00  0.00    +0.000 A 
ATOM     20  C   UNL     1       6.564   3.964  12.099  0.00  0.00    +0.000 A 
ATOM     21  C   UNL     1       7.464   5.013  12.272  0.00  0.00    +0.000 A 
ATOM     22  C   UNL     1       7.783   5.433  13.561  0.00  0.00    +0.000 A 
ATOM     23  C   UNL     1       7.200   4.804  14.683  0.00  0.00    +0.000 A 
BRANCH  23  24
ATOM     24  N   UNL     1       7.621   5.256  16.018  0.00  0.00    +0.000 N 
ATOM     25  O   UNL     1       7.531   6.466  16.283  0.00  0.00    +0.000 OA
ATOM     26  O   UNL     1       8.058   4.406  16.807  0.00  0.00    +0.000 OA
ENDBRANCH  23  24
ENDBRANCH   4  18
TORSDOF 3
ENDMDL
MODEL 4
REMARK VINA RESULT:      -7.1      5.965      7.649
REMARK  Name = 
REMARK  5 active torsions:
REMARK  status: ('A' for Active; 'I' for Inactive)
REMARK    1  A    between atoms: C_1  and  C_2
REMARK    2  A    between atoms: C_2  and  C_3
REMARK    3  A    between atoms: P_6  and  N_8
REMARK    4  A    between atoms: N_11  and  C_12
REMARK    5  A    between atoms: C_17  and  N_18
REMARK                            x       y       z     vdW  Elec       q    Type
REMARK                         _______ _______ _______ _____ _____    ______ ____
ROOT
ATOM      1  N   UNL     1       1.448   8.967  19.331  0.00  0.00    +0.000 N 
ATOM      2  C   UNL     1       2.172   8.294  18.384  0.00  0.00    +0.000 C 
ATOM      3  O   UNL     1       2.166   8.608  17.199  0.00  0.00    +0.000 OA
ATOM      4  N   UNL     1       2.863   7.213  18.893  0.00  0.00    +0.000 N 
ATOM      5  H   UNL     1       1.911   9.102  20.212  0.00  0.00    +0.000 HD
ATOM      6  H   UNL     1       2.375   6.755  19.661  0.00  0.00    +0.000 HD
ENDROOT
BRANCH   1  12
ATOM      7  C   UNL     1       1.039  14.798  19.260  0.00  0.00    +0.000 C 
ATOM      8  C   UNL     1       1.259  13.289  19.471  0.00  0.00    +0.000 C 
ATOM      9  C   UNL     1       2.294  13.106  20.601  0.00  0.00    +0.000 C 
ATOM     10  C   UNL     1      -0.068  12.603  19.868  0.00  0.00    +0.000 C 
ATOM     11  N   UNL     1       0.144  11.169  20.098  0.00  0.00    +0.000 NA
ATOM     12  P   UNL     1       0.638  10.340  18.771  0.00  0.00    +0.000 P 
ATOM     13  O   UNL     1      -0.502  10.038  17.854  0.00  0.00    +0.000 OA
ATOM     14  N   UNL     1       1.847  11.251  18.172  0.00  0.00    +0.000 NA
ATOM     15  C   UNL     1       1.758  12.692  18.137  0.00  0.00    +0.000 C 
ATOM     16  H   UNL     1      -0.742  10.777  20.412  0.00  0.00    +0.000 HD
ATOM     17  H   UNL     1       2.071  10.896  17.244  0.00  0.00    +0.000 HD
ENDBRANCH   1  12
BRANCH   4  18
ATOM     18  C   UNL     1       3.612   6.363  18.026  0.00  0.00    +0.000 A 
ATOM     19  C   UNL     1       4.808   6.844  17.463  0.00  0.00    +0.000 A 
ATOM     20  C   UNL     1       5.544   6.069  16.564  0.00  0.00    +0.000 A 
ATOM     21  C   UNL     1       5.120   4.787  16.221  0.00  0.00    +0.000 A 
ATOM     22  C   UNL     1       3.950   4.282  16.784  0.00  0.00    +0.000 A 
ATOM     23  C   UNL     1       3.201   5.059  17.693  0.00  0.00    +0.000 A 
BRANCH  23  24
ATOM     24  N   UNL     1       1.945   4.491  18.208  0.00  0.00    +0.000 N 
ATOM     25  O   UNL     1       1.111   4.072  17.389  0.00  0.00    +0.000 OA
ATOM     26  O   UNL     1       1.777   4.473  19.436  0.00  0.00    +0.000 OA
ENDBRANCH  23  24
ENDBRANCH   4  18
TORSDOF 3
ENDMDL
MODEL 5
REMARK VINA RESULT:      -7.1      1.991      6.929
REMARK  Name = 
REMARK  5 active torsions:
REMARK  status: ('A' for Active; 'I' for Inactive)
REMARK    1  A    between atoms: C_1  and  C_2
REMARK    2  A    between atoms: C_2  and  C_3
REMARK    3  A    between atoms: P_6  and  N_8
REMARK    4  A    between atoms: N_11  and  C_12
REMARK    5  A    between atoms: C_17  and  N_18
REMARK                            x       y       z     vdW  Elec       q    Type
REMARK                         _______ _______ _______ _____ _____    ______ ____
ROOT
ATOM      1  N   UNL     1       6.101   5.940  18.492  0.00  0.00    +0.000 N 
ATOM      2  C   UNL     1       4.927   5.237  18.503  0.00  0.00    +0.000 C 
ATOM      3  O   UNL     1       4.367   4.869  17.477  0.00  0.00    +0.000 OA
ATOM      4  N   UNL     1       4.428   5.030  19.773  0.00  0.00    +0.000 N 
ATOM      5  H   UNL     1       6.765   5.682  19.201  0.00  0.00    +0.000 HD
ATOM      6  H   UNL     1       4.631   5.798  20.410  0.00  0.00    +0.000 HD
ENDROOT
BRANCH   1  12
ATOM      7  C   UNL     1       6.385   4.279  12.894  0.00  0.00    +0.000 C 
ATOM      8  C   UNL     1       6.228   4.511  14.409  0.00  0.00    +0.000 C 
ATOM      9  C   UNL     1       5.384   3.357  14.988  0.00  0.00    +0.000 C 
ATOM     10  C   UNL     1       7.614   4.535  15.094  0.00  0.00    +0.000 C 
ATOM     11  N   UNL     1       7.467   4.728  16.542  0.00  0.00    +0.000 NA
ATOM     12  P   UNL     1       6.790   6.161  16.965  0.00  0.00    +0.000 P 
ATOM     13  O   UNL     1       7.780   7.277  16.904  0.00  0.00    +0.000 OA
ATOM     14  N   UNL     1       5.486   6.275  15.998  0.00  0.00    +0.000 NA
ATOM     15  C   UNL     1       5.542   5.880  14.609  0.00  0.00    +0.000 C 
ATOM     16  H   UNL     1       8.397   4.677  16.952  0.00  0.00    +0.000 HD
ATOM     17  H   UNL     1       5.129   7.226  16.071  0.00  0.00    +0.000 HD
ENDBRANCH   1  12
BRANCH   4  18
ATOM     18  C   UNL     1       3.174   4.374  19.956  0.00  0.00    +0.000 A 
ATOM     19  C   UNL     1       2.032   5.146  20.233  0.00  0.00    +0.000 A 
ATOM     20  C   UNL     1       0.796   4.544  20.477  0.00  0.00    +0.000 A 
ATOM     21  C   UNL     1       0.662   3.158  20.428  0.00  0.00    +0.000 A 
ATOM     22  C   UNL     1       1.775   2.375  20.133  0.00  0.00    +0.000 A 
ATOM     23  C   UNL     1       3.028   2.976  19.885  0.00  0.00    +0.000 A 
BRANCH  23  24
ATOM     24  N   UNL     1       4.176   2.091  19.636  0.00  0.00    +0.000 N 
ATOM     25  O   UNL     1       5.153   2.168  20.399  0.00  0.00    +0.000 OA
ATOM     26  O   UNL     1       4.115   1.321  18.667  0.00  0.00    +0.000 OA
ENDBRANCH  23  24
ENDBRANCH   4  18
TORSDOF 3
ENDMDL
MODEL 6
REMARK VINA RESULT:      -6.9      5.297      8.879
REMARK  Name = 
REMARK  5 active torsions:
REMARK  status: ('A' for Active; 'I' for Inactive)
REMARK    1  A    between atoms: C_1  and  C_2
REMARK    2  A    between atoms: C_2  and  C_3
REMARK    3  A    between atoms: P_6  and  N_8
REMARK    4  A    between atoms: N_11  and  C_12
REMARK    5  A    between atoms: C_17  and  N_18
REMARK                            x       y       z     vdW  Elec       q    Type
REMARK                         _______ _______ _______ _____ _____    ______ ____
ROOT
ATOM      1  N   UNL     1       2.869   6.693  19.725  0.00  0.00    +0.000 N 
ATOM      2  C   UNL     1       2.077   7.749  19.363  0.00  0.00    +0.000 C 
ATOM      3  O   UNL     1       1.802   7.999  18.195  0.00  0.00    +0.000 OA
ATOM      4  N   UNL     1       1.667   8.515  20.434  0.00  0.00    +0.000 N 
ATOM      5  H   UNL     1       2.576   6.196  20.548  0.00  0.00    +0.000 HD
ATOM      6  H   UNL     1       2.359   8.559  21.180  0.00  0.00    +0.000 HD
ENDROOT
BRANCH   1  12
ATOM      7  C   UNL     1       7.209   4.589  16.420  0.00  0.00    +0.000 C 
ATOM      8  C   UNL     1       6.204   5.315  17.334  0.00  0.00    +0.000 C 
ATOM      9  C   UNL     1       6.953   6.444  18.073  0.00  0.00    +0.000 C 
ATOM     10  C   UNL     1       5.054   5.918  16.495  0.00  0.00    +0.000 C 
ATOM     11  N   UNL     1       4.109   6.635  17.359  0.00  0.00    +0.000 NA
ATOM     12  P   UNL     1       3.344   5.684  18.455  0.00  0.00    +0.000 P 
ATOM     13  O   UNL     1       2.219   4.924  17.834  0.00  0.00    +0.000 OA
ATOM     14  N   UNL     1       4.547   4.813  19.120  0.00  0.00    +0.000 NA
ATOM     15  C   UNL     1       5.621   4.276  18.317  0.00  0.00    +0.000 C 
ATOM     16  H   UNL     1       3.408   7.062  16.756  0.00  0.00    +0.000 HD
ATOM     17  H   UNL     1       4.122   4.068  19.670  0.00  0.00    +0.000 HD
ENDBRANCH   1  12
BRANCH   4  18
ATOM     18  C   UNL     1       0.892   9.694  20.223  0.00  0.00    +0.000 A 
ATOM     19  C   UNL     1       1.092  10.442  19.048  0.00  0.00    +0.000 A 
ATOM     20  C   UNL     1       0.398  11.633  18.826  0.00  0.00    +0.000 A 
ATOM     21  C   UNL     1      -0.530  12.097  19.756  0.00  0.00    +0.000 A 
ATOM     22  C   UNL     1      -0.760  11.361  20.915  0.00  0.00    +0.000 A 
ATOM     23  C   UNL     1      -0.063  10.156  21.148  0.00  0.00    +0.000 A 
BRANCH  23  24
ATOM     24  N   UNL     1      -0.309   9.455  22.417  0.00  0.00    +0.000 N 
ATOM     25  O   UNL     1       0.000  10.029  23.474  0.00  0.00    +0.000 OA
ATOM     26  O   UNL     1      -0.802   8.318  22.367  0.00  0.00    +0.000 OA
ENDBRANCH  23  24
ENDBRANCH   4  18
TORSDOF 3
ENDMDL
MODEL 7
REMARK VINA RESULT:      -6.8      2.417      7.133
REMARK  Name = 
REMARK  5 active torsions:
REMARK  status: ('A' for Active; 'I' for Inactive)
REMARK    1  A    between atoms: C_1  and  C_2
REMARK    2  A    between atoms: C_2  and  C_3
REMARK    3  A    between atoms: P_6  and  N_8
REMARK    4  A    between atoms: N_11  and  C_12
REMARK    5  A    between atoms: C_17  and  N_18
REMARK                            x       y       z     vdW  Elec       q    Type
REMARK                         _______ _______ _______ _____ _____    ______ ____
ROOT
ATOM      1  N   UNL     1       6.074   6.267  18.412  0.00  0.00    +0.000 N 
ATOM      2  C   UNL     1       4.980   5.455  18.537  0.00  0.00    +0.000 C 
ATOM      3  O   UNL     1       4.494   4.848  17.588  0.00  0.00    +0.000 OA
ATOM      4  N   UNL     1       4.464   5.428  19.816  0.00  0.00    +0.000 N 
ATOM      5  H   UNL     1       6.738   6.216  19.165  0.00  0.00    +0.000 HD
ATOM      6  H   UNL     1       4.565   6.317  20.304  0.00  0.00    +0.000 HD
ENDROOT
BRANCH   1  12
ATOM      7  C   UNL     1       6.277   4.017  13.020  0.00  0.00    +0.000 C 
ATOM      8  C   UNL     1       6.128   4.416  14.500  0.00  0.00    +0.000 C 
ATOM      9  C   UNL     1       5.203   3.387  15.186  0.00  0.00    +0.000 C 
ATOM     10  C   UNL     1       7.507   4.418  15.198  0.00  0.00    +0.000 C 
ATOM     11  N   UNL     1       7.366   4.770  16.615  0.00  0.00    +0.000 NA
ATOM     12  P   UNL     1       6.785   6.282  16.879  0.00  0.00    +0.000 P 
ATOM     13  O   UNL     1       7.849   7.317  16.715  0.00  0.00    +0.000 OA
ATOM     14  N   UNL     1       5.497   6.381  15.888  0.00  0.00    +0.000 NA
ATOM     15  C   UNL     1       5.534   5.841  14.549  0.00  0.00    +0.000 C 
ATOM     16  H   UNL     1       8.288   4.700  17.041  0.00  0.00    +0.000 HD
ATOM     17  H   UNL     1       5.205   7.357  15.859  0.00  0.00    +0.000 HD
ENDBRANCH   1  12
BRANCH   4  18
ATOM     18  C   UNL     1       3.280   4.684  20.101  0.00  0.00    +0.000 A 
ATOM     19  C   UNL     1       3.359   3.283  20.193  0.00  0.00    +0.000 A 
ATOM     20  C   UNL     1       2.218   2.509  20.413  0.00  0.00    +0.000 A 
ATOM     21  C   UNL     1       0.972   3.113  20.570  0.00  0.00    +0.000 A 
ATOM     22  C   UNL     1       0.874   4.501  20.505  0.00  0.00    +0.000 A 
ATOM     23  C   UNL     1       2.023   5.290  20.283  0.00  0.00    +0.000 A 
BRANCH  23  24
ATOM     24  N   UNL     1       1.844   6.745  20.168  0.00  0.00    +0.000 N 
ATOM     25  O   UNL     1       1.289   7.344  21.104  0.00  0.00    +0.000 OA
ATOM     26  O   UNL     1       2.244   7.299  19.134  0.00  0.00    +0.000 OA
ENDBRANCH  23  24
ENDBRANCH   4  18
TORSDOF 3
ENDMDL
MODEL 8
REMARK VINA RESULT:      -6.8      4.683      8.271
REMARK  Name = 
REMARK  5 active torsions:
REMARK  status: ('A' for Active; 'I' for Inactive)
REMARK    1  A    between atoms: C_1  and  C_2
REMARK    2  A    between atoms: C_2  and  C_3
REMARK    3  A    between atoms: P_6  and  N_8
REMARK    4  A    between atoms: N_11  and  C_12
REMARK    5  A    between atoms: C_17  and  N_18
REMARK                            x       y       z     vdW  Elec       q    Type
REMARK                         _______ _______ _______ _____ _____    ______ ____
ROOT
ATOM      1  N   UNL     1       2.539   5.537  20.595  0.00  0.00    +0.000 N 
ATOM      2  C   UNL     1       2.303   6.750  20.006  0.00  0.00    +0.000 C 
ATOM      3  O   UNL     1       2.789   7.067  18.926  0.00  0.00    +0.000 OA
ATOM      4  N   UNL     1       1.510   7.580  20.770  0.00  0.00    +0.000 N 
ATOM      5  H   UNL     1       1.747   5.114  21.045  0.00  0.00    +0.000 HD
ATOM      6  H   UNL     1       1.653   7.458  21.771  0.00  0.00    +0.000 HD
ENDROOT
BRANCH   1  12
ATOM      7  C   UNL     1       5.969   4.664  15.941  0.00  0.00    +0.000 C 
ATOM      8  C   UNL     1       4.991   5.076  17.057  0.00  0.00    +0.000 C 
ATOM      9  C   UNL     1       4.490   6.504  16.757  0.00  0.00    +0.000 C 
ATOM     10  C   UNL     1       3.789   4.104  17.103  0.00  0.00    +0.000 C 
ATOM     11  N   UNL     1       2.841   4.509  18.147  0.00  0.00    +0.000 NA
ATOM     12  P   UNL     1       3.451   4.457  19.669  0.00  0.00    +0.000 P 
ATOM     13  O   UNL     1       3.469   3.064  20.207  0.00  0.00    +0.000 OA
ATOM     14  N   UNL     1       4.884   5.218  19.538  0.00  0.00    +0.000 NA
ATOM     15  C   UNL     1       5.749   5.005  18.401  0.00  0.00    +0.000 C 
ATOM     16  H   UNL     1       2.044   3.877  18.097  0.00  0.00    +0.000 HD
ATOM     17  H   UNL     1       5.401   5.053  20.400  0.00  0.00    +0.000 HD
ENDBRANCH   1  12
BRANCH   4  18
ATOM     18  C   UNL     1       1.225   8.908  20.332  0.00  0.00    +0.000 A 
ATOM     19  C   UNL     1       1.204   9.184  18.953  0.00  0.00    +0.000 A 
ATOM     20  C   UNL     1       0.987  10.480  18.480  0.00  0.00    +0.000 A 
ATOM     21  C   UNL     1       0.761  11.529  19.368  0.00  0.00    +0.000 A 
ATOM     22  C   UNL     1       0.756  11.275  20.737  0.00  0.00    +0.000 A 
ATOM     23  C   UNL     1       0.974   9.968  21.223  0.00  0.00    +0.000 A 
BRANCH  23  24
ATOM     24  N   UNL     1       1.012   9.776  22.681  0.00  0.00    +0.000 N 
ATOM     25  O   UNL     1       2.056   9.334  23.188  0.00  0.00    +0.000 OA
ATOM     26  O   UNL     1      -0.008  10.052  23.330  0.00  0.00    +0.000 OA
ENDBRANCH  23  24
ENDBRANCH   4  18
TORSDOF 3
ENDMDL
MODEL 9
REMARK VINA RESULT:      -6.8      5.682      8.193
REMARK  Name = 
REMARK  5 active torsions:
REMARK  status: ('A' for Active; 'I' for Inactive)
REMARK    1  A    between atoms: C_1  and  C_2
REMARK    2  A    between atoms: C_2  and  C_3
REMARK    3  A    between atoms: P_6  and  N_8
REMARK    4  A    between atoms: N_11  and  C_12
REMARK    5  A    between atoms: C_17  and  N_18
REMARK                            x       y       z     vdW  Elec       q    Type
REMARK                         _______ _______ _______ _____ _____    ______ ____
ROOT
ATOM      1  N   UNL     1       2.342   7.577  19.640  0.00  0.00    +0.000 N 
ATOM      2  C   UNL     1       1.570   8.452  18.924  0.00  0.00    +0.000 C 
ATOM      3  O   UNL     1       1.555   8.471  17.698  0.00  0.00    +0.000 OA
ATOM      4  N   UNL     1       0.858   9.326  19.719  0.00  0.00    +0.000 N 
ATOM      5  H   UNL     1       1.908   7.190  20.459  0.00  0.00    +0.000 HD
ATOM      6  H   UNL     1       1.351   9.579  20.574  0.00  0.00    +0.000 HD
ENDROOT
BRANCH   1  12
ATOM      7  C   UNL     1       3.208   1.959  18.276  0.00  0.00    +0.000 C 
ATOM      8  C   UNL     1       2.895   3.362  18.829  0.00  0.00    +0.000 C 
ATOM      9  C   UNL     1       2.003   3.200  20.077  0.00  0.00    +0.000 C 
ATOM     10  C   UNL     1       4.203   4.089  19.217  0.00  0.00    +0.000 C 
ATOM     11  N   UNL     1       3.907   5.416  19.771  0.00  0.00    +0.000 NA
ATOM     12  P   UNL     1       3.182   6.440  18.714  0.00  0.00    +0.000 P 
ATOM     13  O   UNL     1       4.167   7.041  17.766  0.00  0.00    +0.000 OA
ATOM     14  N   UNL     1       1.983   5.547  18.069  0.00  0.00    +0.000 NA
ATOM     15  C   UNL     1       2.184   4.161  17.715  0.00  0.00    +0.000 C 
ATOM     16  H   UNL     1       4.791   5.828  20.064  0.00  0.00    +0.000 HD
ATOM     17  H   UNL     1       1.615   6.058  17.268  0.00  0.00    +0.000 HD
ENDBRANCH   1  12
BRANCH   4  18
ATOM     18  C   UNL     1       0.058  10.350  19.128  0.00  0.00    +0.000 A 
ATOM     19  C   UNL     1      -1.062   9.984  18.360  0.00  0.00    +0.000 A 
ATOM     20  C   UNL     1      -1.840  10.948  17.716  0.00  0.00    +0.000 A 
ATOM     21  C   UNL     1      -1.537  12.302  17.840  0.00  0.00    +0.000 A 
ATOM     22  C   UNL     1      -0.445  12.688  18.614  0.00  0.00    +0.000 A 
ATOM     23  C   UNL     1       0.346  11.720  19.268  0.00  0.00    +0.000 A 
BRANCH  23  24
ATOM     24  N   UNL     1       1.518  12.189  20.024  0.00  0.00    +0.000 N 
ATOM     25  O   UNL     1       1.580  11.923  21.236  0.00  0.00    +0.000 OA
ATOM     26  O   UNL     1       2.379  12.839  19.414  0.00  0.00    +0.000 OA
ENDBRANCH  23  24
ENDBRANCH   4  18
TORSDOF 3
ENDMDL
