MODEL 1
REMARK VINA RESULT:      -7.6      0.000      0.000
REMARK  Name = 
REMARK  5 active torsions:
REMARK  status: ('A' for Active; 'I' for Inactive)
REMARK    1  A    between atoms: C_2  and  C_3
REMARK    2  A    between atoms: N_5  and  C_6
REMARK    3  A    between atoms: C_11  and  C_12
REMARK    4  A    between atoms: C_17  and  C_18
REMARK    5  A    between atoms: C_21  and  C_22
REMARK                            x       y       z     vdW  Elec       q    Type
REMARK                         _______ _______ _______ _____ _____    ______ ____
ROOT
ATOM      1  C   UNL     1       1.016  10.030  20.298  0.00  0.00    +0.000 C 
ATOM      2  C   UNL     1       0.391  10.141  21.705  0.00  0.00    +0.000 C 
ATOM      3  C   UNL     1      -0.525   8.957  22.005  0.00  0.00    +0.000 C 
ATOM      4  N   UNL     1       0.205   7.712  21.823  0.00  0.00    +0.000 N 
ATOM      5  C   UNL     1       1.071   7.567  20.788  0.00  0.00    +0.000 A 
ATOM      6  C   UNL     1       1.760   6.486  20.267  0.00  0.00    +0.000 A 
ATOM      7  C   UNL     1       2.472   7.021  19.134  0.00  0.00    +0.000 A 
ATOM      8  N   UNL     1       2.326   8.360  19.065  0.00  0.00    +0.000 NA
ATOM      9  N   UNL     1       1.460   8.652  20.048  0.00  0.00    +0.000 N 
ATOM     10  H   UNL     1      -0.090   6.924  22.395  0.00  0.00    +0.000 HD
ENDROOT
BRANCH   7  11
ATOM     11  C   UNL     1       3.212   6.319  18.072  0.00  0.00    +0.000 A 
ATOM     12  C   UNL     1       4.203   6.973  17.322  0.00  0.00    +0.000 A 
ATOM     13  C   UNL     1       4.979   6.279  16.389  0.00  0.00    +0.000 A 
ATOM     14  C   UNL     1       4.785   4.913  16.206  0.00  0.00    +0.000 A 
ATOM     15 CL   UNL     1       5.779   4.051  15.098  0.00  0.00    +0.000 Cl
ATOM     16  C   UNL     1       3.806   4.242  16.934  0.00  0.00    +0.000 A 
ATOM     17  C   UNL     1       3.024   4.942  17.861  0.00  0.00    +0.000 A 
ENDBRANCH   7  11
BRANCH   1  23
ATOM     18  C   UNL     1      -0.013  11.944  18.927  0.00  0.00    +0.000 A 
ATOM     19  C   UNL     1      -0.990  12.411  18.033  0.00  0.00    +0.000 A 
ATOM     20  C   UNL     1      -1.871  11.535  17.406  0.00  0.00    +0.000 A 
ATOM     21  C   UNL     1      -1.797  10.178  17.682  0.00  0.00    +0.000 A 
ATOM     22  C   UNL     1      -0.841   9.699  18.581  0.00  0.00    +0.000 A 
ATOM     23  C   UNL     1       0.078  10.564  19.214  0.00  0.00    +0.000 A 
BRANCH  18  26
ATOM     24  C   UNL     1       2.149  13.099  18.970  0.00  0.00    +0.000 C 
ATOM     25  O   UNL     1       2.566  12.684  17.897  0.00  0.00    +0.000 OA
ATOM     26  N   UNL     1       0.890  12.876  19.487  0.00  0.00    +0.000 N 
ATOM     27  H   UNL     1       0.567  13.437  20.263  0.00  0.00    +0.000 HD
BRANCH  24  29
ATOM     28  C   UNL     1       2.684  14.118  21.131  0.00  0.00    +0.000 C 
ATOM     29  C   UNL     1       2.979  13.992  19.829  0.00  0.00    +0.000 C 
ENDBRANCH  24  29
ENDBRANCH  18  26
ENDBRANCH   1  23
BRANCH   6  30
ATOM     30  C   UNL     1       1.744   5.127  20.773  0.00  0.00    +0.000 C 
ATOM     31  N   UNL     1       0.668   4.368  20.403  0.00  0.00    +0.000 N 
ATOM     32  O   UNL     1       2.632   4.639  21.465  0.00  0.00    +0.000 OA
ATOM     33  H   UNL     1       0.082   4.661  19.635  0.00  0.00    +0.000 HD
ATOM     34  H   UNL     1       0.687   3.393  20.666  0.00  0.00    +0.000 HD
ENDBRANCH   6  30
TORSDOF 5
ENDMDL
MODEL 2
REMARK VINA RESULT:      -7.3      4.703      7.422
REMARK  Name = 
REMARK  5 active torsions:
REMARK  status: ('A' for Active; 'I' for Inactive)
REMARK    1  A    between atoms: C_2  and  C_3
REMARK    2  A    between atoms: N_5  and  C_6
REMARK    3  A    between atoms: C_11  and  C_12
REMARK    4  A    between atoms: C_17  and  C_18
REMARK    5  A    between atoms: C_21  and  C_22
REMARK                            x       y       z     vdW  Elec       q    Type
REMARK                         _______ _______ _______ _____ _____    ______ ____
ROOT
ATOM      1  C   UNL     1      -4.937  13.514  20.107  0.00  0.00    +0.000 C 
ATOM      2  C   UNL     1      -5.419  14.827  20.759  0.00  0.00    +0.000 C 
ATOM      3  C   UNL     1      -5.009  14.905  22.228  0.00  0.00    +0.000 C 
ATOM      4  N   UNL     1      -3.569  14.726  22.346  0.00  0.00    +0.000 N 
ATOM      5  C   UNL     1      -2.924  13.810  21.580  0.00  0.00    +0.000 A 
ATOM      6  C   UNL     1      -1.637  13.303  21.583  0.00  0.00    +0.000 A 
ATOM      7  C   UNL     1      -1.630  12.324  20.527  0.00  0.00    +0.000 A 
ATOM      8  N   UNL     1      -2.796  12.342  19.848  0.00  0.00    +0.000 NA
ATOM      9  N   UNL     1      -3.559  13.218  20.520  0.00  0.00    +0.000 N 
ATOM     10  H   UNL     1      -3.117  15.188  23.132  0.00  0.00    +0.000 HD
ENDROOT
BRANCH   7  11
ATOM     11  C   UNL     1      -0.609  11.320  20.182  0.00  0.00    +0.000 A 
ATOM     12  C   UNL     1      -0.310  10.259  21.052  0.00  0.00    +0.000 A 
ATOM     13  C   UNL     1       0.580   9.247  20.679  0.00  0.00    +0.000 A 
ATOM     14  C   UNL     1       1.172   9.276  19.420  0.00  0.00    +0.000 A 
ATOM     15 CL   UNL     1       2.223   8.001  18.943  0.00  0.00    +0.000 Cl
ATOM     16  C   UNL     1       0.896  10.319  18.541  0.00  0.00    +0.000 A 
ATOM     17  C   UNL     1       0.011  11.336  18.921  0.00  0.00    +0.000 A 
ENDBRANCH   7  11
BRANCH   1  23
ATOM     18  C   UNL     1      -5.985  11.247  19.503  0.00  0.00    +0.000 A 
ATOM     19  C   UNL     1      -6.986  10.280  19.693  0.00  0.00    +0.000 A 
ATOM     20  C   UNL     1      -7.899  10.385  20.738  0.00  0.00    +0.000 A 
ATOM     21  C   UNL     1      -7.835  11.473  21.595  0.00  0.00    +0.000 A 
ATOM     22  C   UNL     1      -6.857  12.452  21.409  0.00  0.00    +0.000 A 
ATOM     23  C   UNL     1      -5.904  12.358  20.371  0.00  0.00    +0.000 A 
BRANCH  18  26
ATOM     24  C   UNL     1      -5.201  11.614  17.209  0.00  0.00    +0.000 C 
ATOM     25  O   UNL     1      -6.021  12.470  16.903  0.00  0.00    +0.000 OA
ATOM     26  N   UNL     1      -5.051  11.054  18.460  0.00  0.00    +0.000 N 
ATOM     27  H   UNL     1      -4.213  10.528  18.669  0.00  0.00    +0.000 HD
BRANCH  24  29
ATOM     28  C   UNL     1      -2.910  10.990  16.613  0.00  0.00    +0.000 C 
ATOM     29  C   UNL     1      -4.188  11.128  16.229  0.00  0.00    +0.000 C 
ENDBRANCH  24  29
ENDBRANCH  18  26
ENDBRANCH   1  23
BRANCH   6  30
ATOM     30  C   UNL     1      -0.558  13.694  22.470  0.00  0.00    +0.000 C 
ATOM     31  N   UNL     1       0.631  13.992  21.863  0.00  0.00    +0.000 N 
ATOM     32  O   UNL     1      -0.669  13.796  23.688  0.00  0.00    +0.000 OA
ATOM     33  H   UNL     1       0.661  14.170  20.870  0.00  0.00    +0.000 HD
ATOM     34  H   UNL     1       1.364  14.358  22.454  0.00  0.00    +0.000 HD
ENDBRANCH   6  30
TORSDOF 5
ENDMDL
MODEL 3
REMARK VINA RESULT:      -6.9      0.991      1.351
REMARK  Name = 
REMARK  5 active torsions:
REMARK  status: ('A' for Active; 'I' for Inactive)
REMARK    1  A    between atoms: C_2  and  C_3
REMARK    2  A    between atoms: N_5  and  C_6
REMARK    3  A    between atoms: C_11  and  C_12
REMARK    4  A    between atoms: C_17  and  C_18
REMARK    5  A    between atoms: C_21  and  C_22
REMARK                            x       y       z     vdW  Elec       q    Type
REMARK                         _______ _______ _______ _____ _____    ______ ____
ROOT
ATOM      1  C   UNL     1       1.033   9.936  20.414  0.00  0.00    +0.000 C 
ATOM      2  C   UNL     1       0.325  10.002  21.784  0.00  0.00    +0.000 C 
ATOM      3  C   UNL     1      -0.612   8.813  21.986  0.00  0.00    +0.000 C 
ATOM      4  N   UNL     1       0.125   7.571  21.806  0.00  0.00    +0.000 N 
ATOM      5  C   UNL     1       1.051   7.457  20.821  0.00  0.00    +0.000 A 
ATOM      6  C   UNL     1       1.767   6.391  20.306  0.00  0.00    +0.000 A 
ATOM      7  C   UNL     1       2.547   6.961  19.237  0.00  0.00    +0.000 A 
ATOM      8  N   UNL     1       2.411   8.302  19.206  0.00  0.00    +0.000 NA
ATOM      9  N   UNL     1       1.487   8.565  20.144  0.00  0.00    +0.000 N 
ATOM     10  H   UNL     1      -0.208   6.766  22.332  0.00  0.00    +0.000 HD
ENDROOT
BRANCH   7  11
ATOM     11  C   UNL     1       3.349   6.291  18.198  0.00  0.00    +0.000 A 
ATOM     12  C   UNL     1       3.159   4.933  17.897  0.00  0.00    +0.000 A 
ATOM     13  C   UNL     1       3.842   4.325  16.838  0.00  0.00    +0.000 A 
ATOM     14  C   UNL     1       4.715   5.075  16.056  0.00  0.00    +0.000 A 
ATOM     15 CL   UNL     1       5.511   4.339  14.722  0.00  0.00    +0.000 Cl
ATOM     16  C   UNL     1       4.924   6.423  16.337  0.00  0.00    +0.000 A 
ATOM     17  C   UNL     1       4.245   7.026  17.404  0.00  0.00    +0.000 A 
ENDBRANCH   7  11
BRANCH   1  23
ATOM     18  C   UNL     1       0.121  11.897  19.027  0.00  0.00    +0.000 A 
ATOM     19  C   UNL     1      -0.798  12.404  18.094  0.00  0.00    +0.000 A 
ATOM     20  C   UNL     1      -1.667  11.561  17.408  0.00  0.00    +0.000 A 
ATOM     21  C   UNL     1      -1.641  10.198  17.664  0.00  0.00    +0.000 A 
ATOM     22  C   UNL     1      -0.744   9.680  18.601  0.00  0.00    +0.000 A 
ATOM     23  C   UNL     1       0.164  10.511  19.293  0.00  0.00    +0.000 A 
BRANCH  18  26
ATOM     24  C   UNL     1       0.673  13.557  20.746  0.00  0.00    +0.000 C 
ATOM     25  O   UNL     1      -0.340  13.421  21.419  0.00  0.00    +0.000 OA
ATOM     26  N   UNL     1       1.018  12.797  19.647  0.00  0.00    +0.000 N 
ATOM     27  H   UNL     1       1.966  12.835  19.297  0.00  0.00    +0.000 HD
BRANCH  24  29
ATOM     28  C   UNL     1       3.013  14.219  21.024  0.00  0.00    +0.000 C 
ATOM     29  C   UNL     1       1.718  14.555  21.112  0.00  0.00    +0.000 C 
ENDBRANCH  24  29
ENDBRANCH  18  26
ENDBRANCH   1  23
BRANCH   6  30
ATOM     30  C   UNL     1       1.716   5.016  20.764  0.00  0.00    +0.000 C 
ATOM     31  N   UNL     1       0.636   4.290  20.344  0.00  0.00    +0.000 N 
ATOM     32  O   UNL     1       2.580   4.487  21.456  0.00  0.00    +0.000 OA
ATOM     33  H   UNL     1       0.072   4.620  19.574  0.00  0.00    +0.000 HD
ATOM     34  H   UNL     1       0.632   3.306  20.573  0.00  0.00    +0.000 HD
ENDBRANCH   6  30
TORSDOF 5
ENDMDL
MODEL 4
REMARK VINA RESULT:      -6.8      4.587      7.296
REMARK  Name = 
REMARK  5 active torsions:
REMARK  status: ('A' for Active; 'I' for Inactive)
REMARK    1  A    between atoms: C_2  and  C_3
REMARK    2  A    between atoms: N_5  and  C_6
REMARK    3  A    between atoms: C_11  and  C_12
REMARK    4  A    between atoms: C_17  and  C_18
REMARK    5  A    between atoms: C_21  and  C_22
REMARK                            x       y       z     vdW  Elec       q    Type
REMARK                         _______ _______ _______ _____ _____    ______ ____
ROOT
ATOM      1  C   UNL     1      -3.398  13.677  20.914  0.00  0.00    +0.000 C 
ATOM      2  C   UNL     1      -3.410  15.220  20.884  0.00  0.00    +0.000 C 
ATOM      3  C   UNL     1      -2.257  15.804  21.698  0.00  0.00    +0.000 C 
ATOM      4  N   UNL     1      -0.995  15.254  21.227  0.00  0.00    +0.000 N 
ATOM      5  C   UNL     1      -0.900  13.943  20.888  0.00  0.00    +0.000 A 
ATOM      6  C   UNL     1       0.165  13.113  20.582  0.00  0.00    +0.000 A 
ATOM      7  C   UNL     1      -0.434  11.822  20.360  0.00  0.00    +0.000 A 
ATOM      8  N   UNL     1      -1.780  11.905  20.396  0.00  0.00    +0.000 NA
ATOM      9  N   UNL     1      -2.026  13.178  20.744  0.00  0.00    +0.000 N 
ATOM     10  H   UNL     1      -0.174  15.846  21.330  0.00  0.00    +0.000 HD
ENDROOT
BRANCH   7  11
ATOM     11  C   UNL     1       0.205  10.505  20.197  0.00  0.00    +0.000 A 
ATOM     12  C   UNL     1       0.849  10.153  19.000  0.00  0.00    +0.000 A 
ATOM     13  C   UNL     1       1.548   8.947  18.883  0.00  0.00    +0.000 A 
ATOM     14  C   UNL     1       1.625   8.083  19.970  0.00  0.00    +0.000 A 
ATOM     15 CL   UNL     1       2.531   6.627  19.841  0.00  0.00    +0.000 Cl
ATOM     16  C   UNL     1       0.991   8.407  21.167  0.00  0.00    +0.000 A 
ATOM     17  C   UNL     1       0.284   9.611  21.278  0.00  0.00    +0.000 A 
ENDBRANCH   7  11
BRANCH   1  23
ATOM     18  C   UNL     1      -5.489  12.988  22.238  0.00  0.00    +0.000 A 
ATOM     19  C   UNL     1      -6.096  12.622  23.450  0.00  0.00    +0.000 A 
ATOM     20  C   UNL     1      -5.336  12.374  24.589  0.00  0.00    +0.000 A 
ATOM     21  C   UNL     1      -3.957  12.511  24.534  0.00  0.00    +0.000 A 
ATOM     22  C   UNL     1      -3.340  12.890  23.340  0.00  0.00    +0.000 A 
ATOM     23  C   UNL     1      -4.086  13.125  22.164  0.00  0.00    +0.000 A 
BRANCH  18  26
ATOM     24  C   UNL     1      -6.778  12.115  20.343  0.00  0.00    +0.000 C 
ATOM     25  O   UNL     1      -6.712  10.931  20.646  0.00  0.00    +0.000 OA
ATOM     26  N   UNL     1      -6.310  13.169  21.101  0.00  0.00    +0.000 N 
ATOM     27  H   UNL     1      -6.605  14.109  20.877  0.00  0.00    +0.000 HD
BRANCH  24  29
ATOM     28  C   UNL     1      -7.040  12.120  17.909  0.00  0.00    +0.000 C 
ATOM     29  C   UNL     1      -7.472  12.558  19.100  0.00  0.00    +0.000 C 
ENDBRANCH  24  29
ENDBRANCH  18  26
ENDBRANCH   1  23
BRANCH   6  30
ATOM     30  C   UNL     1       1.562  13.494  20.511  0.00  0.00    +0.000 C 
ATOM     31  N   UNL     1       2.026  13.822  19.268  0.00  0.00    +0.000 N 
ATOM     32  O   UNL     1       2.308  13.562  21.483  0.00  0.00    +0.000 OA
ATOM     33  H   UNL     1       1.376  14.027  18.523  0.00  0.00    +0.000 HD
ATOM     34  H   UNL     1       2.969  14.181  19.213  0.00  0.00    +0.000 HD
ENDBRANCH   6  30
TORSDOF 5
ENDMDL
MODEL 5
REMARK VINA RESULT:      -6.8      5.425      7.908
REMARK  Name = 
REMARK  5 active torsions:
REMARK  status: ('A' for Active; 'I' for Inactive)
REMARK    1  A    between atoms: C_2  and  C_3
REMARK    2  A    between atoms: N_5  and  C_6
REMARK    3  A    between atoms: C_11  and  C_12
REMARK    4  A    between atoms: C_17  and  C_18
REMARK    5  A    between atoms: C_21  and  C_22
REMARK                            x       y       z     vdW  Elec       q    Type
REMARK                         _______ _______ _______ _____ _____    ______ ____
ROOT
ATOM      1  C   UNL     1      -5.591  12.327  20.140  0.00  0.00    +0.000 C 
ATOM      2  C   UNL     1      -6.776  11.498  19.601  0.00  0.00    +0.000 C 
ATOM      3  C   UNL     1      -6.848  11.552  18.077  0.00  0.00    +0.000 C 
ATOM      4  N   UNL     1      -5.577  11.130  17.509  0.00  0.00    +0.000 N 
ATOM      5  C   UNL     1      -4.407  11.516  18.078  0.00  0.00    +0.000 A 
ATOM      6  C   UNL     1      -3.082  11.425  17.689  0.00  0.00    +0.000 A 
ATOM      7  C   UNL     1      -2.348  12.076  18.744  0.00  0.00    +0.000 A 
ATOM      8  N   UNL     1      -3.167  12.413  19.761  0.00  0.00    +0.000 NA
ATOM      9  N   UNL     1      -4.394  12.093  19.321  0.00  0.00    +0.000 N 
ATOM     10  H   UNL     1      -5.612  10.689  16.593  0.00  0.00    +0.000 HD
ENDROOT
BRANCH   7  11
ATOM     11  C   UNL     1      -0.929  12.467  18.798  0.00  0.00    +0.000 A 
ATOM     12  C   UNL     1       0.086  11.504  18.915  0.00  0.00    +0.000 A 
ATOM     13  C   UNL     1       1.436  11.865  18.858  0.00  0.00    +0.000 A 
ATOM     14  C   UNL     1       1.788  13.198  18.668  0.00  0.00    +0.000 A 
ATOM     15 CL   UNL     1       3.447  13.632  18.543  0.00  0.00    +0.000 Cl
ATOM     16  C   UNL     1       0.801  14.173  18.554  0.00  0.00    +0.000 A 
ATOM     17  C   UNL     1      -0.550  13.808  18.620  0.00  0.00    +0.000 A 
ENDBRANCH   7  11
BRANCH   1  23
ATOM     18  C   UNL     1      -5.930  14.465  21.525  0.00  0.00    +0.000 A 
ATOM     19  C   UNL     1      -6.405  15.782  21.632  0.00  0.00    +0.000 A 
ATOM     20  C   UNL     1      -6.883  16.469  20.520  0.00  0.00    +0.000 A 
ATOM     21  C   UNL     1      -6.910  15.836  19.286  0.00  0.00    +0.000 A 
ATOM     22  C   UNL     1      -6.456  14.521  19.166  0.00  0.00    +0.000 A 
ATOM     23  C   UNL     1      -5.946  13.810  20.274  0.00  0.00    +0.000 A 
BRANCH  18  26
ATOM     24  C   UNL     1      -4.065  13.888  23.008  0.00  0.00    +0.000 C 
ATOM     25  O   UNL     1      -3.222  14.601  22.478  0.00  0.00    +0.000 OA
ATOM     26  N   UNL     1      -5.403  13.842  22.679  0.00  0.00    +0.000 N 
ATOM     27  H   UNL     1      -6.053  13.395  23.312  0.00  0.00    +0.000 HD
BRANCH  24  29
ATOM     28  C   UNL     1      -4.683  12.290  24.757  0.00  0.00    +0.000 C 
ATOM     29  C   UNL     1      -3.721  13.015  24.167  0.00  0.00    +0.000 C 
ENDBRANCH  24  29
ENDBRANCH  18  26
ENDBRANCH   1  23
BRANCH   6  30
ATOM     30  C   UNL     1      -2.580  10.804  16.478  0.00  0.00    +0.000 C 
ATOM     31  N   UNL     1      -1.677   9.794  16.660  0.00  0.00    +0.000 N 
ATOM     32  O   UNL     1      -2.939  11.112  15.346  0.00  0.00    +0.000 OA
ATOM     33  H   UNL     1      -1.579   9.359  17.566  0.00  0.00    +0.000 HD
ATOM     34  H   UNL     1      -1.389   9.286  15.835  0.00  0.00    +0.000 HD
ENDBRANCH   6  30
TORSDOF 5
ENDMDL
MODEL 6
REMARK VINA RESULT:      -6.7      5.948      8.124
REMARK  Name = 
REMARK  5 active torsions:
REMARK  status: ('A' for Active; 'I' for Inactive)
REMARK    1  A    between atoms: C_2  and  C_3
REMARK    2  A    between atoms: N_5  and  C_6
REMARK    3  A    between atoms: C_11  and  C_12
REMARK    4  A    between atoms: C_17  and  C_18
REMARK    5  A    between atoms: C_21  and  C_22
REMARK                            x       y       z     vdW  Elec       q    Type
REMARK                         _______ _______ _______ _____ _____    ______ ____
ROOT
ATOM      1  C   UNL     1      -6.018  12.365  20.284  0.00  0.00    +0.000 C 
ATOM      2  C   UNL     1      -7.163  11.570  19.622  0.00  0.00    +0.000 C 
ATOM      3  C   UNL     1      -7.075  11.629  18.098  0.00  0.00    +0.000 C 
ATOM      4  N   UNL     1      -5.764  11.171  17.664  0.00  0.00    +0.000 N 
ATOM      5  C   UNL     1      -4.649  11.523  18.353  0.00  0.00    +0.000 A 
ATOM      6  C   UNL     1      -3.294  11.395  18.103  0.00  0.00    +0.000 A 
ATOM      7  C   UNL     1      -2.656  12.024  19.231  0.00  0.00    +0.000 A 
ATOM      8  N   UNL     1      -3.566  12.383  20.159  0.00  0.00    +0.000 NA
ATOM      9  N   UNL     1      -4.749  12.098  19.593  0.00  0.00    +0.000 N 
ATOM     10  H   UNL     1      -5.717  10.733  16.747  0.00  0.00    +0.000 HD
ENDROOT
BRANCH   7  11
ATOM     11  C   UNL     1      -1.240  12.374  19.434  0.00  0.00    +0.000 A 
ATOM     12  C   UNL     1      -0.596  13.309  18.608  0.00  0.00    +0.000 A 
ATOM     13  C   UNL     1       0.715  13.721  18.867  0.00  0.00    +0.000 A 
ATOM     14  C   UNL     1       1.395  13.213  19.969  0.00  0.00    +0.000 A 
ATOM     15 CL   UNL     1       2.987  13.763  20.317  0.00  0.00    +0.000 Cl
ATOM     16  C   UNL     1       0.781  12.281  20.802  0.00  0.00    +0.000 A 
ATOM     17  C   UNL     1      -0.529  11.864  20.534  0.00  0.00    +0.000 A 
ENDBRANCH   7  11
BRANCH   1  23
ATOM     18  C   UNL     1      -5.749  14.678  21.370  0.00  0.00    +0.000 A 
ATOM     19  C   UNL     1      -6.182  16.004  21.531  0.00  0.00    +0.000 A 
ATOM     20  C   UNL     1      -7.184  16.538  20.725  0.00  0.00    +0.000 A 
ATOM     21  C   UNL     1      -7.780  15.741  19.759  0.00  0.00    +0.000 A 
ATOM     22  C   UNL     1      -7.372  14.415  19.597  0.00  0.00    +0.000 A 
ATOM     23  C   UNL     1      -6.343  13.857  20.387  0.00  0.00    +0.000 A 
BRANCH  18  26
ATOM     24  C   UNL     1      -4.887  13.661  23.428  0.00  0.00    +0.000 C 
ATOM     25  O   UNL     1      -5.968  13.337  23.902  0.00  0.00    +0.000 OA
ATOM     26  N   UNL     1      -4.688  14.213  22.179  0.00  0.00    +0.000 N 
ATOM     27  H   UNL     1      -3.754  14.239  21.794  0.00  0.00    +0.000 HD
BRANCH  24  29
ATOM     28  C   UNL     1      -2.444  13.533  23.517  0.00  0.00    +0.000 C 
ATOM     29  C   UNL     1      -3.613  13.409  24.161  0.00  0.00    +0.000 C 
ENDBRANCH  24  29
ENDBRANCH  18  26
ENDBRANCH   1  23
BRANCH   6  30
ATOM     30  C   UNL     1      -2.687  10.762  16.948  0.00  0.00    +0.000 C 
ATOM     31  N   UNL     1      -2.400  11.590  15.899  0.00  0.00    +0.000 N 
ATOM     32  O   UNL     1      -2.401   9.570  16.886  0.00  0.00    +0.000 OA
ATOM     33  H   UNL     1      -2.381  12.591  16.035  0.00  0.00    +0.000 HD
ATOM     34  H   UNL     1      -1.890  11.187  15.126  0.00  0.00    +0.000 HD
ENDBRANCH   6  30
TORSDOF 5
ENDMDL
MODEL 7
REMARK VINA RESULT:      -6.7      5.552      8.060
REMARK  Name = 
REMARK  5 active torsions:
REMARK  status: ('A' for Active; 'I' for Inactive)
REMARK    1  A    between atoms: C_2  and  C_3
REMARK    2  A    between atoms: N_5  and  C_6
REMARK    3  A    between atoms: C_11  and  C_12
REMARK    4  A    between atoms: C_17  and  C_18
REMARK    5  A    between atoms: C_21  and  C_22
REMARK                            x       y       z     vdW  Elec       q    Type
REMARK                         _______ _______ _______ _____ _____    ______ ____
ROOT
ATOM      1  C   UNL     1      -5.735  12.289  20.243  0.00  0.00    +0.000 C 
ATOM      2  C   UNL     1      -6.902  11.430  19.712  0.00  0.00    +0.000 C 
ATOM      3  C   UNL     1      -6.960  11.449  18.186  0.00  0.00    +0.000 C 
ATOM      4  N   UNL     1      -5.677  11.033  17.640  0.00  0.00    +0.000 N 
ATOM      5  C   UNL     1      -4.519  11.448  18.212  0.00  0.00    +0.000 A 
ATOM      6  C   UNL     1      -3.189  11.368  17.837  0.00  0.00    +0.000 A 
ATOM      7  C   UNL     1      -2.475  12.054  18.884  0.00  0.00    +0.000 A 
ATOM      8  N   UNL     1      -3.309  12.402  19.886  0.00  0.00    +0.000 NA
ATOM      9  N   UNL     1      -4.527  12.054  19.441  0.00  0.00    +0.000 N 
ATOM     10  H   UNL     1      -5.697  10.571  16.734  0.00  0.00    +0.000 HD
ENDROOT
BRANCH   7  11
ATOM     11  C   UNL     1      -1.062  12.466  18.944  0.00  0.00    +0.000 A 
ATOM     12  C   UNL     1      -0.031  11.517  19.032  0.00  0.00    +0.000 A 
ATOM     13  C   UNL     1       1.312  11.903  18.979  0.00  0.00    +0.000 A 
ATOM     14  C   UNL     1       1.642  13.245  18.822  0.00  0.00    +0.000 A 
ATOM     15 CL   UNL     1       3.293  13.710  18.702  0.00  0.00    +0.000 Cl
ATOM     16  C   UNL     1       0.638  14.207  18.737  0.00  0.00    +0.000 A 
ATOM     17  C   UNL     1      -0.706  13.818  18.799  0.00  0.00    +0.000 A 
ENDBRANCH   7  11
BRANCH   1  23
ATOM     18  C   UNL     1      -5.707  14.566  21.432  0.00  0.00    +0.000 A 
ATOM     19  C   UNL     1      -6.196  15.876  21.563  0.00  0.00    +0.000 A 
ATOM     20  C   UNL     1      -7.069  16.417  20.623  0.00  0.00    +0.000 A 
ATOM     21  C   UNL     1      -7.481  15.642  19.549  0.00  0.00    +0.000 A 
ATOM     22  C   UNL     1      -7.016  14.333  19.413  0.00  0.00    +0.000 A 
ATOM     23  C   UNL     1      -6.112  13.768  20.340  0.00  0.00    +0.000 A 
BRANCH  18  26
ATOM     24  C   UNL     1      -5.157  13.441  23.540  0.00  0.00    +0.000 C 
ATOM     25  O   UNL     1      -6.281  13.028  23.790  0.00  0.00    +0.000 OA
ATOM     26  N   UNL     1      -4.777  14.096  22.386  0.00  0.00    +0.000 N 
ATOM     27  H   UNL     1      -3.793  14.198  22.177  0.00  0.00    +0.000 HD
BRANCH  24  29
ATOM     28  C   UNL     1      -3.142  14.184  24.716  0.00  0.00    +0.000 C 
ATOM     29  C   UNL     1      -4.018  13.199  24.472  0.00  0.00    +0.000 C 
ENDBRANCH  24  29
ENDBRANCH  18  26
ENDBRANCH   1  23
BRANCH   6  30
ATOM     30  C   UNL     1      -2.666  10.727  16.646  0.00  0.00    +0.000 C 
ATOM     31  N   UNL     1      -2.989  11.326  15.460  0.00  0.00    +0.000 N 
ATOM     32  O   UNL     1      -1.949   9.732  16.657  0.00  0.00    +0.000 OA
ATOM     33  H   UNL     1      -3.342  12.272  15.450  0.00  0.00    +0.000 HD
ATOM     34  H   UNL     1      -2.556  10.951  14.628  0.00  0.00    +0.000 HD
ENDBRANCH   6  30
TORSDOF 5
ENDMDL
MODEL 8
REMARK VINA RESULT:      -6.6      3.565      7.807
REMARK  Name = 
REMARK  5 active torsions:
REMARK  status: ('A' for Active; 'I' for Inactive)
REMARK    1  A    between atoms: C_2  and  C_3
REMARK    2  A    between atoms: N_5  and  C_6
REMARK    3  A    between atoms: C_11  and  C_12
REMARK    4  A    between atoms: C_17  and  C_18
REMARK    5  A    between atoms: C_21  and  C_22
REMARK                            x       y       z     vdW  Elec       q    Type
REMARK                         _______ _______ _______ _____ _____    ______ ____
ROOT
ATOM      1  C   UNL     1       3.595   6.068  17.489  0.00  0.00    +0.000 C 
ATOM      2  C   UNL     1       3.555   4.685  18.173  0.00  0.00    +0.000 C 
ATOM      3  C   UNL     1       3.751   4.802  19.683  0.00  0.00    +0.000 C 
ATOM      4  N   UNL     1       2.767   5.720  20.237  0.00  0.00    +0.000 N 
ATOM      5  C   UNL     1       2.438   6.858  19.575  0.00  0.00    +0.000 A 
ATOM      6  C   UNL     1       1.694   7.974  19.912  0.00  0.00    +0.000 A 
ATOM      7  C   UNL     1       1.782   8.831  18.757  0.00  0.00    +0.000 A 
ATOM      8  N   UNL     1       2.423   8.210  17.745  0.00  0.00    +0.000 NA
ATOM      9  N   UNL     1       2.828   7.045  18.275  0.00  0.00    +0.000 N 
ATOM     10  H   UNL     1       2.480   5.552  21.198  0.00  0.00    +0.000 HD
ENDROOT
BRANCH   7  11
ATOM     11  C   UNL     1       1.364  10.234  18.593  0.00  0.00    +0.000 A 
ATOM     12  C   UNL     1       0.028  10.622  18.789  0.00  0.00    +0.000 A 
ATOM     13  C   UNL     1      -0.348  11.968  18.740  0.00  0.00    +0.000 A 
ATOM     14  C   UNL     1       0.613  12.947  18.509  0.00  0.00    +0.000 A 
ATOM     15 CL   UNL     1       0.156  14.605  18.504  0.00  0.00    +0.000 Cl
ATOM     16  C   UNL     1       1.943  12.589  18.307  0.00  0.00    +0.000 A 
ATOM     17  C   UNL     1       2.315  11.239  18.348  0.00  0.00    +0.000 A 
ENDBRANCH   7  11
BRANCH   1  23
ATOM     18  C   UNL     1       5.832   5.871  16.241  0.00  0.00    +0.000 A 
ATOM     19  C   UNL     1       7.187   6.215  16.111  0.00  0.00    +0.000 A 
ATOM     20  C   UNL     1       7.758   7.204  16.907  0.00  0.00    +0.000 A 
ATOM     21  C   UNL     1       6.982   7.847  17.860  0.00  0.00    +0.000 A 
ATOM     22  C   UNL     1       5.638   7.505  18.012  0.00  0.00    +0.000 A 
ATOM     23  C   UNL     1       5.028   6.521  17.202  0.00  0.00    +0.000 A 
BRANCH  18  26
ATOM     24  C   UNL     1       5.924   4.523  14.195  0.00  0.00    +0.000 C 
ATOM     25  O   UNL     1       7.066   4.817  13.869  0.00  0.00    +0.000 OA
ATOM     26  N   UNL     1       5.296   4.901  15.364  0.00  0.00    +0.000 N 
ATOM     27  H   UNL     1       4.445   4.431  15.643  0.00  0.00    +0.000 HD
BRANCH  24  29
ATOM     28  C   UNL     1       5.561   3.188  12.175  0.00  0.00    +0.000 C 
ATOM     29  C   UNL     1       5.087   3.621  13.352  0.00  0.00    +0.000 C 
ENDBRANCH  24  29
ENDBRANCH  18  26
ENDBRANCH   1  23
BRANCH   6  30
ATOM     30  C   UNL     1       0.993   8.199  21.161  0.00  0.00    +0.000 C 
ATOM     31  N   UNL     1       1.733   8.764  22.163  0.00  0.00    +0.000 N 
ATOM     32  O   UNL     1      -0.193   7.945  21.342  0.00  0.00    +0.000 OA
ATOM     33  H   UNL     1       2.610   9.216  21.950  0.00  0.00    +0.000 HD
ATOM     34  H   UNL     1       1.239   9.017  23.007  0.00  0.00    +0.000 HD
ENDBRANCH   6  30
TORSDOF 5
ENDMDL
MODEL 9
REMARK VINA RESULT:      -6.6      5.189      7.806
REMARK  Name = 
REMARK  5 active torsions:
REMARK  status: ('A' for Active; 'I' for Inactive)
REMARK    1  A    between atoms: C_2  and  C_3
REMARK    2  A    between atoms: N_5  and  C_6
REMARK    3  A    between atoms: C_11  and  C_12
REMARK    4  A    between atoms: C_17  and  C_18
REMARK    5  A    between atoms: C_21  and  C_22
REMARK                            x       y       z     vdW  Elec       q    Type
REMARK                         _______ _______ _______ _____ _____    ______ ____
ROOT
ATOM      1  C   UNL     1      -3.142  14.029  21.983  0.00  0.00    +0.000 C 
ATOM      2  C   UNL     1      -2.049  14.519  22.956  0.00  0.00    +0.000 C 
ATOM      3  C   UNL     1      -1.088  13.392  23.331  0.00  0.00    +0.000 C 
ATOM      4  N   UNL     1      -0.528  12.802  22.124  0.00  0.00    +0.000 N 
ATOM      5  C   UNL     1      -1.306  12.602  21.031  0.00  0.00    +0.000 A 
ATOM      6  C   UNL     1      -1.116  11.929  19.837  0.00  0.00    +0.000 A 
ATOM      7  C   UNL     1      -2.368  12.072  19.137  0.00  0.00    +0.000 A 
ATOM      8  N   UNL     1      -3.202  12.892  19.808  0.00  0.00    +0.000 NA
ATOM      9  N   UNL     1      -2.551  13.167  20.949  0.00  0.00    +0.000 N 
ATOM     10  H   UNL     1       0.405  12.403  22.204  0.00  0.00    +0.000 HD
ENDROOT
BRANCH   7  11
ATOM     11  C   UNL     1      -2.839  11.408  17.909  0.00  0.00    +0.000 A 
ATOM     12  C   UNL     1      -4.099  11.701  17.362  0.00  0.00    +0.000 A 
ATOM     13  C   UNL     1      -4.501  11.153  16.140  0.00  0.00    +0.000 A 
ATOM     14  C   UNL     1      -3.640  10.314  15.440  0.00  0.00    +0.000 A 
ATOM     15 CL   UNL     1      -4.116   9.686  13.912  0.00  0.00    +0.000 Cl
ATOM     16  C   UNL     1      -2.387  10.005  15.963  0.00  0.00    +0.000 A 
ATOM     17  C   UNL     1      -1.990  10.548  17.192  0.00  0.00    +0.000 A 
ENDBRANCH   7  11
BRANCH   1  23
ATOM     18  C   UNL     1      -5.643  13.526  22.290  0.00  0.00    +0.000 A 
ATOM     19  C   UNL     1      -6.697  13.031  23.076  0.00  0.00    +0.000 A 
ATOM     20  C   UNL     1      -6.452  12.367  24.274  0.00  0.00    +0.000 A 
ATOM     21  C   UNL     1      -5.146  12.209  24.713  0.00  0.00    +0.000 A 
ATOM     22  C   UNL     1      -4.088  12.710  23.951  0.00  0.00    +0.000 A 
ATOM     23  C   UNL     1      -4.308  13.367  22.721  0.00  0.00    +0.000 A 
BRANCH  18  26
ATOM     24  C   UNL     1      -6.378  13.426  19.953  0.00  0.00    +0.000 C 
ATOM     25  O   UNL     1      -6.714  12.249  19.949  0.00  0.00    +0.000 OA
ATOM     26  N   UNL     1      -5.953  14.139  21.055  0.00  0.00    +0.000 N 
ATOM     27  H   UNL     1      -5.912  15.148  21.005  0.00  0.00    +0.000 HD
BRANCH  24  29
ATOM     28  C   UNL     1      -7.199  13.827  17.682  0.00  0.00    +0.000 C 
ATOM     29  C   UNL     1      -6.472  14.261  18.722  0.00  0.00    +0.000 C 
ENDBRANCH  24  29
ENDBRANCH  18  26
ENDBRANCH   1  23
BRANCH   6  30
ATOM     30  C   UNL     1       0.089  11.241  19.417  0.00  0.00    +0.000 C 
ATOM     31  N   UNL     1       0.905  11.937  18.569  0.00  0.00    +0.000 N 
ATOM     32  O   UNL     1       0.411  10.120  19.798  0.00  0.00    +0.000 OA
ATOM     33  H   UNL     1       0.792  12.935  18.464  0.00  0.00    +0.000 HD
ATOM     34  H   UNL     1       1.794  11.514  18.342  0.00  0.00    +0.000 HD
ENDBRANCH   6  30
TORSDOF 5
ENDMDL
