MODEL 1
REMARK VINA RESULT:      -7.0      0.000      0.000
REMARK  Name = 
REMARK  10 active torsions:
REMARK  status: ('A' for Active; 'I' for Inactive)
REMARK    1  A    between atoms: C_1  and  C_2
REMARK    2  A    between atoms: C_2  and  O_3
REMARK    3  A    between atoms: O_3  and  C_4
REMARK    4  A    between atoms: C_4  and  C_6
REMARK    5  A    between atoms: C_9  and  N_10
REMARK    6  A    between atoms: C_11  and  C_13
REMARK    7  A    between atoms: C_13  and  S_14
REMARK    8  A    between atoms: S_14  and  C_15
REMARK    9  A    between atoms: C_15  and  N_17
REMARK   10  A    between atoms: N_17  and  C_18
REMARK                            x       y       z     vdW  Elec       q    Type
REMARK                         _______ _______ _______ _____ _____    ______ ____
ROOT
ATOM      1  N   UNL     1       2.765   5.584  20.359  0.00  0.00    +0.000 N 
ATOM      2  C   UNL     1       2.075   4.372  20.383  0.00  0.00    +0.000 C 
ATOM      3  O   UNL     1       0.889   4.229  20.095  0.00  0.00    +0.000 OA
ATOM      4  H   UNL     1       3.716   5.589  20.706  0.00  0.00    +0.000 HD
ENDROOT
BRANCH   1   8
ATOM      5  C   UNL     1       1.282   9.377  19.144  0.00  0.00    +0.000 A 
ATOM      6  C   UNL     1       1.943   8.559  18.226  0.00  0.00    +0.000 A 
ATOM      7  C   UNL     1       2.428   7.303  18.607  0.00  0.00    +0.000 A 
ATOM      8  C   UNL     1       2.261   6.831  19.911  0.00  0.00    +0.000 A 
ATOM      9  C   UNL     1       1.582   7.645  20.830  0.00  0.00    +0.000 A 
ATOM     10  C   UNL     1       1.094   8.908  20.451  0.00  0.00    +0.000 A 
BRANCH   5  11
ATOM     11  C   UNL     1       0.892  10.734  18.692  0.00  0.00    +0.000 C 
ATOM     12  O   UNL     1       1.602  11.725  18.816  0.00  0.00    +0.000 OA
BRANCH  11  13
ATOM     13  O   UNL     1      -0.393  10.731  18.247  0.00  0.00    +0.000 OA
BRANCH  13  15
ATOM     14  C   UNL     1      -2.649  11.517  18.328  0.00  0.00    +0.000 C 
ATOM     15  C   UNL     1      -1.328  11.439  19.073  0.00  0.00    +0.000 C 
ENDBRANCH  13  15
ENDBRANCH  11  13
ENDBRANCH   5  11
ENDBRANCH   1   8
BRANCH   2  16
ATOM     16  C   UNL     1       2.909   3.190  20.877  0.00  0.00    +0.000 C 
BRANCH  16  17
ATOM     17  S   UNL     1       4.425   3.032  19.878  0.00  0.00    +0.000 S 
BRANCH  17  18
ATOM     18  C   UNL     1       3.868   3.151  18.221  0.00  0.00    +0.000 C 
ATOM     19  S   UNL     1       2.654   2.263  17.506  0.00  0.00    +0.000 S 
BRANCH  18  20
ATOM     20  N   UNL     1       4.628   4.107  17.596  0.00  0.00    +0.000 N 
ATOM     21  H   UNL     1       4.382   5.069  17.814  0.00  0.00    +0.000 HD
BRANCH  20  22
ATOM     22  C   UNL     1       5.668   3.904  16.586  0.00  0.00    +0.000 C 
ATOM     23  C   UNL     1       5.407   4.714  15.334  0.00  0.00    +0.000 C 
ATOM     24  C   UNL     1       6.792   4.946  14.792  0.00  0.00    +0.000 C 
ATOM     25  O   UNL     1       7.644   5.036  15.933  0.00  0.00    +0.000 OA
ATOM     26  C   UNL     1       7.021   4.460  17.007  0.00  0.00    +0.000 C 
ATOM     27  O   UNL     1       7.502   4.409  18.129  0.00  0.00    +0.000 OA
ENDBRANCH  20  22
ENDBRANCH  18  20
ENDBRANCH  17  18
ENDBRANCH  16  17
ENDBRANCH   2  16
TORSDOF 9
ENDMDL
MODEL 2
REMARK VINA RESULT:      -6.7      2.372      3.167
REMARK  Name = 
REMARK  10 active torsions:
REMARK  status: ('A' for Active; 'I' for Inactive)
REMARK    1  A    between atoms: C_1  and  C_2
REMARK    2  A    between atoms: C_2  and  O_3
REMARK    3  A    between atoms: O_3  and  C_4
REMARK    4  A    between atoms: C_4  and  C_6
REMARK    5  A    between atoms: C_9  and  N_10
REMARK    6  A    between atoms: C_11  and  C_13
REMARK    7  A    between atoms: C_13  and  S_14
REMARK    8  A    between atoms: S_14  and  C_15
REMARK    9  A    between atoms: C_15  and  N_17
REMARK   10  A    between atoms: N_17  and  C_18
REMARK                            x       y       z     vdW  Elec       q    Type
REMARK                         _______ _______ _______ _____ _____    ______ ____
ROOT
ATOM      1  N   UNL     1       2.996   6.290  17.993  0.00  0.00    +0.000 N 
ATOM      2  C   UNL     1       4.044   5.505  18.471  0.00  0.00    +0.000 C 
ATOM      3  O   UNL     1       4.651   5.700  19.521  0.00  0.00    +0.000 OA
ATOM      4  H   UNL     1       2.637   6.082  17.069  0.00  0.00    +0.000 HD
ENDROOT
BRANCH   1   8
ATOM      5  C   UNL     1       1.090   9.581  19.889  0.00  0.00    +0.000 A 
ATOM      6  C   UNL     1       1.387   8.430  20.621  0.00  0.00    +0.000 A 
ATOM      7  C   UNL     1       2.024   7.341  20.014  0.00  0.00    +0.000 A 
ATOM      8  C   UNL     1       2.383   7.378  18.666  0.00  0.00    +0.000 A 
ATOM      9  C   UNL     1       2.102   8.540  17.933  0.00  0.00    +0.000 A 
ATOM     10  C   UNL     1       1.461   9.636  18.539  0.00  0.00    +0.000 A 
BRANCH   5  11
ATOM     11  C   UNL     1       0.322  10.647  20.576  0.00  0.00    +0.000 C 
ATOM     12  O   UNL     1       0.747  11.287  21.531  0.00  0.00    +0.000 OA
BRANCH  11  13
ATOM     13  O   UNL     1      -0.941  10.714  20.077  0.00  0.00    +0.000 OA
BRANCH  13  15
ATOM     14  C   UNL     1      -2.763  12.041  19.283  0.00  0.00    +0.000 C 
ATOM     15  C   UNL     1      -1.252  11.918  19.361  0.00  0.00    +0.000 C 
ENDBRANCH  13  15
ENDBRANCH  11  13
ENDBRANCH   5  11
ENDBRANCH   1   8
BRANCH   2  16
ATOM     16  C   UNL     1       4.454   4.372  17.530  0.00  0.00    +0.000 C 
BRANCH  16  17
ATOM     17  S   UNL     1       6.270   4.286  17.404  0.00  0.00    +0.000 S 
BRANCH  17  18
ATOM     18  C   UNL     1       6.721   5.781  16.609  0.00  0.00    +0.000 C 
ATOM     19  S   UNL     1       7.365   7.141  17.323  0.00  0.00    +0.000 S 
BRANCH  18  20
ATOM     20  N   UNL     1       6.434   5.644  15.275  0.00  0.00    +0.000 N 
ATOM     21  H   UNL     1       5.783   6.328  14.897  0.00  0.00    +0.000 HD
BRANCH  20  22
ATOM     22  C   UNL     1       6.868   4.578  14.370  0.00  0.00    +0.000 C 
ATOM     23  C   UNL     1       5.705   3.963  13.621  0.00  0.00    +0.000 C 
ATOM     24  C   UNL     1       6.345   3.485  12.344  0.00  0.00    +0.000 C 
ATOM     25  O   UNL     1       7.391   4.415  12.066  0.00  0.00    +0.000 OA
ATOM     26  C   UNL     1       7.713   5.089  13.212  0.00  0.00    +0.000 C 
ATOM     27  O   UNL     1       8.560   5.966  13.273  0.00  0.00    +0.000 OA
ENDBRANCH  20  22
ENDBRANCH  18  20
ENDBRANCH  17  18
ENDBRANCH  16  17
ENDBRANCH   2  16
TORSDOF 9
ENDMDL
MODEL 3
REMARK VINA RESULT:      -6.6      1.402      1.997
REMARK  Name = 
REMARK  10 active torsions:
REMARK  status: ('A' for Active; 'I' for Inactive)
REMARK    1  A    between atoms: C_1  and  C_2
REMARK    2  A    between atoms: C_2  and  O_3
REMARK    3  A    between atoms: O_3  and  C_4
REMARK    4  A    between atoms: C_4  and  C_6
REMARK    5  A    between atoms: C_9  and  N_10
REMARK    6  A    between atoms: C_11  and  C_13
REMARK    7  A    between atoms: C_13  and  S_14
REMARK    8  A    between atoms: S_14  and  C_15
REMARK    9  A    between atoms: C_15  and  N_17
REMARK   10  A    between atoms: N_17  and  C_18
REMARK                            x       y       z     vdW  Elec       q    Type
REMARK                         _______ _______ _______ _____ _____    ______ ____
ROOT
ATOM      1  N   UNL     1       2.716   5.648  20.133  0.00  0.00    +0.000 N 
ATOM      2  C   UNL     1       1.991   4.466  20.282  0.00  0.00    +0.000 C 
ATOM      3  O   UNL     1       0.768   4.395  20.378  0.00  0.00    +0.000 OA
ATOM      4  H   UNL     1       3.726   5.585  20.157  0.00  0.00    +0.000 HD
ENDROOT
BRANCH   1   8
ATOM      5  C   UNL     1       1.076   9.517  19.502  0.00  0.00    +0.000 A 
ATOM      6  C   UNL     1       0.967   8.909  20.753  0.00  0.00    +0.000 A 
ATOM      7  C   UNL     1       1.511   7.640  20.981  0.00  0.00    +0.000 A 
ATOM      8  C   UNL     1       2.179   6.950  19.967  0.00  0.00    +0.000 A 
ATOM      9  C   UNL     1       2.305   7.568  18.714  0.00  0.00    +0.000 A 
ATOM     10  C   UNL     1       1.759   8.843  18.481  0.00  0.00    +0.000 A 
BRANCH   5  11
ATOM     11  C   UNL     1       0.384  10.816  19.311  0.00  0.00    +0.000 C 
ATOM     12  O   UNL     1       0.286  11.670  20.183  0.00  0.00    +0.000 OA
BRANCH  11  13
ATOM     13  O   UNL     1      -0.217  10.854  18.093  0.00  0.00    +0.000 OA
BRANCH  13  15
ATOM     14  C   UNL     1      -2.411   9.960  17.770  0.00  0.00    +0.000 C 
ATOM     15  C   UNL     1      -1.609  11.204  18.109  0.00  0.00    +0.000 C 
ENDBRANCH  13  15
ENDBRANCH  11  13
ENDBRANCH   5  11
ENDBRANCH   1   8
BRANCH   2  16
ATOM     16  C   UNL     1       2.858   3.213  20.391  0.00  0.00    +0.000 C 
BRANCH  16  17
ATOM     17  S   UNL     1       4.552   3.571  19.819  0.00  0.00    +0.000 S 
BRANCH  17  18
ATOM     18  C   UNL     1       4.405   3.695  18.078  0.00  0.00    +0.000 C 
ATOM     19  S   UNL     1       3.167   3.106  17.132  0.00  0.00    +0.000 S 
BRANCH  18  20
ATOM     20  N   UNL     1       5.513   4.360  17.615  0.00  0.00    +0.000 N 
ATOM     21  H   UNL     1       6.122   3.819  17.007  0.00  0.00    +0.000 HD
BRANCH  20  22
ATOM     22  C   UNL     1       5.967   5.704  17.977  0.00  0.00    +0.000 C 
ATOM     23  C   UNL     1       7.396   5.704  18.474  0.00  0.00    +0.000 C 
ATOM     24  C   UNL     1       7.876   7.084  18.112  0.00  0.00    +0.000 C 
ATOM     25  O   UNL     1       7.191   7.427  16.908  0.00  0.00    +0.000 OA
ATOM     26  C   UNL     1       6.083   6.634  16.778  0.00  0.00    +0.000 C 
ATOM     27  O   UNL     1       5.315   6.684  15.830  0.00  0.00    +0.000 OA
ENDBRANCH  20  22
ENDBRANCH  18  20
ENDBRANCH  17  18
ENDBRANCH  16  17
ENDBRANCH   2  16
TORSDOF 9
ENDMDL
MODEL 4
REMARK VINA RESULT:      -6.6      1.887      2.223
REMARK  Name = 
REMARK  10 active torsions:
REMARK  status: ('A' for Active; 'I' for Inactive)
REMARK    1  A    between atoms: C_1  and  C_2
REMARK    2  A    between atoms: C_2  and  O_3
REMARK    3  A    between atoms: O_3  and  C_4
REMARK    4  A    between atoms: C_4  and  C_6
REMARK    5  A    between atoms: C_9  and  N_10
REMARK    6  A    between atoms: C_11  and  C_13
REMARK    7  A    between atoms: C_13  and  S_14
REMARK    8  A    between atoms: S_14  and  C_15
REMARK    9  A    between atoms: C_15  and  N_17
REMARK   10  A    between atoms: N_17  and  C_18
REMARK                            x       y       z     vdW  Elec       q    Type
REMARK                         _______ _______ _______ _____ _____    ______ ____
ROOT
ATOM      1  N   UNL     1       3.251   6.092  18.803  0.00  0.00    +0.000 N 
ATOM      2  C   UNL     1       3.290   4.963  19.621  0.00  0.00    +0.000 C 
ATOM      3  O   UNL     1       2.691   4.842  20.686  0.00  0.00    +0.000 OA
ATOM      4  H   UNL     1       3.860   6.107  17.994  0.00  0.00    +0.000 HD
ENDROOT
BRANCH   1   8
ATOM      5  C   UNL     1       0.905   9.563  19.514  0.00  0.00    +0.000 A 
ATOM      6  C   UNL     1       1.374   9.289  18.228  0.00  0.00    +0.000 A 
ATOM      7  C   UNL     1       2.138   8.145  17.975  0.00  0.00    +0.000 A 
ATOM      8  C   UNL     1       2.449   7.246  18.997  0.00  0.00    +0.000 A 
ATOM      9  C   UNL     1       1.965   7.511  20.286  0.00  0.00    +0.000 A 
ATOM     10  C   UNL     1       1.197   8.660  20.545  0.00  0.00    +0.000 A 
BRANCH   5  11
ATOM     11  C   UNL     1       0.192  10.847  19.722  0.00  0.00    +0.000 C 
ATOM     12  O   UNL     1      -0.382  11.148  20.761  0.00  0.00    +0.000 OA
BRANCH  11  13
ATOM     13  O   UNL     1       0.167  11.564  18.567  0.00  0.00    +0.000 OA
BRANCH  13  15
ATOM     14  C   UNL     1      -2.017  11.667  17.602  0.00  0.00    +0.000 C 
ATOM     15  C   UNL     1      -0.971  12.422  18.404  0.00  0.00    +0.000 C 
ENDBRANCH  13  15
ENDBRANCH  11  13
ENDBRANCH   5  11
ENDBRANCH   1   8
BRANCH   2  16
ATOM     16  C   UNL     1       4.221   3.861  19.117  0.00  0.00    +0.000 C 
BRANCH  16  17
ATOM     17  S   UNL     1       3.959   3.585  17.334  0.00  0.00    +0.000 S 
BRANCH  17  18
ATOM     18  C   UNL     1       5.486   4.027  16.598  0.00  0.00    +0.000 C 
ATOM     19  S   UNL     1       5.905   3.877  14.992  0.00  0.00    +0.000 S 
BRANCH  18  20
ATOM     20  N   UNL     1       6.301   4.511  17.590  0.00  0.00    +0.000 N 
ATOM     21  H   UNL     1       6.091   4.177  18.527  0.00  0.00    +0.000 HD
BRANCH  20  22
ATOM     22  C   UNL     1       7.354   5.520  17.470  0.00  0.00    +0.000 C 
ATOM     23  C   UNL     1       6.811   6.854  17.006  0.00  0.00    +0.000 C 
ATOM     24  C   UNL     1       7.780   7.837  17.606  0.00  0.00    +0.000 C 
ATOM     25  O   UNL     1       8.205   7.256  18.838  0.00  0.00    +0.000 OA
ATOM     26  C   UNL     1       7.958   5.911  18.812  0.00  0.00    +0.000 C 
ATOM     27  O   UNL     1       8.196   5.154  19.740  0.00  0.00    +0.000 OA
ENDBRANCH  20  22
ENDBRANCH  18  20
ENDBRANCH  17  18
ENDBRANCH  16  17
ENDBRANCH   2  16
TORSDOF 9
ENDMDL
MODEL 5
REMARK VINA RESULT:      -6.6      1.292      1.697
REMARK  Name = 
REMARK  10 active torsions:
REMARK  status: ('A' for Active; 'I' for Inactive)
REMARK    1  A    between atoms: C_1  and  C_2
REMARK    2  A    between atoms: C_2  and  O_3
REMARK    3  A    between atoms: O_3  and  C_4
REMARK    4  A    between atoms: C_4  and  C_6
REMARK    5  A    between atoms: C_9  and  N_10
REMARK    6  A    between atoms: C_11  and  C_13
REMARK    7  A    between atoms: C_13  and  S_14
REMARK    8  A    between atoms: S_14  and  C_15
REMARK    9  A    between atoms: C_15  and  N_17
REMARK   10  A    between atoms: N_17  and  C_18
REMARK                            x       y       z     vdW  Elec       q    Type
REMARK                         _______ _______ _______ _____ _____    ______ ____
ROOT
ATOM      1  N   UNL     1       2.717   6.182  20.169  0.00  0.00    +0.000 N 
ATOM      2  C   UNL     1       2.108   4.944  20.376  0.00  0.00    +0.000 C 
ATOM      3  O   UNL     1       0.896   4.756  20.450  0.00  0.00    +0.000 OA
ATOM      4  H   UNL     1       3.727   6.222  20.219  0.00  0.00    +0.000 HD
ENDROOT
BRANCH   1   8
ATOM      5  C   UNL     1       0.777   9.907  19.523  0.00  0.00    +0.000 A 
ATOM      6  C   UNL     1       1.447   9.278  18.473  0.00  0.00    +0.000 A 
ATOM      7  C   UNL     1       2.082   8.046  18.666  0.00  0.00    +0.000 A 
ATOM      8  C   UNL     1       2.059   7.411  19.909  0.00  0.00    +0.000 A 
ATOM      9  C   UNL     1       1.371   8.033  20.961  0.00  0.00    +0.000 A 
ATOM     10  C   UNL     1       0.732   9.272  20.771  0.00  0.00    +0.000 A 
BRANCH   5  11
ATOM     11  C   UNL     1       0.220  11.257  19.266  0.00  0.00    +0.000 C 
ATOM     12  O   UNL     1      -0.456  11.540  18.284  0.00  0.00    +0.000 OA
BRANCH  11  13
ATOM     13  O   UNL     1       0.671  12.138  20.198  0.00  0.00    +0.000 OA
BRANCH  13  15
ATOM     14  C   UNL     1       1.631  14.093  19.215  0.00  0.00    +0.000 C 
ATOM     15  C   UNL     1       1.924  12.765  19.891  0.00  0.00    +0.000 C 
ENDBRANCH  13  15
ENDBRANCH  11  13
ENDBRANCH   5  11
ENDBRANCH   1   8
BRANCH   2  16
ATOM     16  C   UNL     1       3.092   3.793  20.583  0.00  0.00    +0.000 C 
BRANCH  16  17
ATOM     17  S   UNL     1       4.543   4.005  19.500  0.00  0.00    +0.000 S 
BRANCH  17  18
ATOM     18  C   UNL     1       4.093   3.203  18.010  0.00  0.00    +0.000 C 
ATOM     19  S   UNL     1       2.636   2.472  17.664  0.00  0.00    +0.000 S 
BRANCH  18  20
ATOM     20  N   UNL     1       5.172   3.264  17.164  0.00  0.00    +0.000 N 
ATOM     21  H   UNL     1       5.827   2.491  17.238  0.00  0.00    +0.000 HD
BRANCH  20  22
ATOM     22  C   UNL     1       5.536   4.353  16.255  0.00  0.00    +0.000 C 
ATOM     23  C   UNL     1       4.656   5.569  16.447  0.00  0.00    +0.000 C 
ATOM     24  C   UNL     1       5.554   6.701  16.027  0.00  0.00    +0.000 C 
ATOM     25  O   UNL     1       6.875   6.301  16.391  0.00  0.00    +0.000 OA
ATOM     26  C   UNL     1       6.906   4.943  16.555  0.00  0.00    +0.000 C 
ATOM     27  O   UNL     1       7.900   4.319  16.890  0.00  0.00    +0.000 OA
ENDBRANCH  20  22
ENDBRANCH  18  20
ENDBRANCH  17  18
ENDBRANCH  16  17
ENDBRANCH   2  16
TORSDOF 9
ENDMDL
MODEL 6
REMARK VINA RESULT:      -6.6      2.375      3.861
REMARK  Name = 
REMARK  10 active torsions:
REMARK  status: ('A' for Active; 'I' for Inactive)
REMARK    1  A    between atoms: C_1  and  C_2
REMARK    2  A    between atoms: C_2  and  O_3
REMARK    3  A    between atoms: O_3  and  C_4
REMARK    4  A    between atoms: C_4  and  C_6
REMARK    5  A    between atoms: C_9  and  N_10
REMARK    6  A    between atoms: C_11  and  C_13
REMARK    7  A    between atoms: C_13  and  S_14
REMARK    8  A    between atoms: S_14  and  C_15
REMARK    9  A    between atoms: C_15  and  N_17
REMARK   10  A    between atoms: N_17  and  C_18
REMARK                            x       y       z     vdW  Elec       q    Type
REMARK                         _______ _______ _______ _____ _____    ______ ____
ROOT
ATOM      1  N   UNL     1       3.424   6.621  17.198  0.00  0.00    +0.000 N 
ATOM      2  C   UNL     1       4.764   6.801  16.856  0.00  0.00    +0.000 C 
ATOM      3  O   UNL     1       5.479   7.715  17.259  0.00  0.00    +0.000 OA
ATOM      4  H   UNL     1       2.915   5.882  16.729  0.00  0.00    +0.000 HD
ENDROOT
BRANCH   1   8
ATOM      5  C   UNL     1       1.291   8.870  20.105  0.00  0.00    +0.000 A 
ATOM      6  C   UNL     1       1.420   9.356  18.803  0.00  0.00    +0.000 A 
ATOM      7  C   UNL     1       2.110   8.623  17.831  0.00  0.00    +0.000 A 
ATOM      8  C   UNL     1       2.683   7.387  18.133  0.00  0.00    +0.000 A 
ATOM      9  C   UNL     1       2.539   6.888  19.437  0.00  0.00    +0.000 A 
ATOM     10  C   UNL     1       1.847   7.622  20.417  0.00  0.00    +0.000 A 
BRANCH   5  11
ATOM     11  C   UNL     1       0.637   9.752  21.101  0.00  0.00    +0.000 C 
ATOM     12  O   UNL     1       1.069   9.941  22.232  0.00  0.00    +0.000 OA
BRANCH  11  13
ATOM     13  O   UNL     1      -0.552  10.205  20.621  0.00  0.00    +0.000 OA
BRANCH  13  15
ATOM     14  C   UNL     1      -1.703  12.139  19.816  0.00  0.00    +0.000 C 
ATOM     15  C   UNL     1      -0.862  11.568  20.944  0.00  0.00    +0.000 C 
ENDBRANCH  13  15
ENDBRANCH  11  13
ENDBRANCH   5  11
ENDBRANCH   1   8
BRANCH   2  16
ATOM     16  C   UNL     1       5.292   5.780  15.849  0.00  0.00    +0.000 C 
BRANCH  16  17
ATOM     17  S   UNL     1       6.873   5.084  16.432  0.00  0.00    +0.000 S 
BRANCH  17  18
ATOM     18  C   UNL     1       6.587   4.711  18.119  0.00  0.00    +0.000 C 
ATOM     19  S   UNL     1       7.210   5.509  19.442  0.00  0.00    +0.000 S 
BRANCH  18  20
ATOM     20  N   UNL     1       5.759   3.618  18.167  0.00  0.00    +0.000 N 
ATOM     21  H   UNL     1       6.118   2.780  17.718  0.00  0.00    +0.000 HD
BRANCH  20  22
ATOM     22  C   UNL     1       4.394   3.551  18.692  0.00  0.00    +0.000 C 
ATOM     23  C   UNL     1       3.390   3.196  17.616  0.00  0.00    +0.000 C 
ATOM     24  C   UNL     1       2.300   2.506  18.390  0.00  0.00    +0.000 C 
ATOM     25  O   UNL     1       2.955   1.837  19.467  0.00  0.00    +0.000 OA
ATOM     26  C   UNL     1       4.187   2.399  19.664  0.00  0.00    +0.000 C 
ATOM     27  O   UNL     1       4.985   2.016  20.505  0.00  0.00    +0.000 OA
ENDBRANCH  20  22
ENDBRANCH  18  20
ENDBRANCH  17  18
ENDBRANCH  16  17
ENDBRANCH   2  16
TORSDOF 9
ENDMDL
MODEL 7
REMARK VINA RESULT:      -6.5      1.281      1.622
REMARK  Name = 
REMARK  10 active torsions:
REMARK  status: ('A' for Active; 'I' for Inactive)
REMARK    1  A    between atoms: C_1  and  C_2
REMARK    2  A    between atoms: C_2  and  O_3
REMARK    3  A    between atoms: O_3  and  C_4
REMARK    4  A    between atoms: C_4  and  C_6
REMARK    5  A    between atoms: C_9  and  N_10
REMARK    6  A    between atoms: C_11  and  C_13
REMARK    7  A    between atoms: C_13  and  S_14
REMARK    8  A    between atoms: S_14  and  C_15
REMARK    9  A    between atoms: C_15  and  N_17
REMARK   10  A    between atoms: N_17  and  C_18
REMARK                            x       y       z     vdW  Elec       q    Type
REMARK                         _______ _______ _______ _____ _____    ______ ____
ROOT
ATOM      1  N   UNL     1       2.860   6.155  19.843  0.00  0.00    +0.000 N 
ATOM      2  C   UNL     1       2.285   4.903  20.061  0.00  0.00    +0.000 C 
ATOM      3  O   UNL     1       1.085   4.695  20.216  0.00  0.00    +0.000 OA
ATOM      4  H   UNL     1       3.871   6.209  19.822  0.00  0.00    +0.000 HD
ENDROOT
BRANCH   1   8
ATOM      5  C   UNL     1       0.831   9.866  19.435  0.00  0.00    +0.000 A 
ATOM      6  C   UNL     1       1.418   9.265  18.320  0.00  0.00    +0.000 A 
ATOM      7  C   UNL     1       2.081   8.038  18.435  0.00  0.00    +0.000 A 
ATOM      8  C   UNL     1       2.169   7.380  19.663  0.00  0.00    +0.000 A 
ATOM      9  C   UNL     1       1.565   7.974  20.782  0.00  0.00    +0.000 A 
ATOM     10  C   UNL     1       0.899   9.207  20.670  0.00  0.00    +0.000 A 
BRANCH   5  11
ATOM     11  C   UNL     1       0.239  11.213  19.252  0.00  0.00    +0.000 C 
ATOM     12  O   UNL     1       0.893  12.215  18.987  0.00  0.00    +0.000 OA
BRANCH  11  13
ATOM     13  O   UNL     1      -1.089  11.188  19.543  0.00  0.00    +0.000 OA
BRANCH  13  15
ATOM     14  C   UNL     1      -2.324  13.108  20.250  0.00  0.00    +0.000 C 
ATOM     15  C   UNL     1      -1.474  11.935  20.706  0.00  0.00    +0.000 C 
ENDBRANCH  13  15
ENDBRANCH  11  13
ENDBRANCH   5  11
ENDBRANCH   1   8
BRANCH   2  16
ATOM     16  C   UNL     1       3.297   3.762  20.166  0.00  0.00    +0.000 C 
BRANCH  16  17
ATOM     17  S   UNL     1       3.854   3.262  18.505  0.00  0.00    +0.000 S 
BRANCH  17  18
ATOM     18  C   UNL     1       5.151   4.377  18.128  0.00  0.00    +0.000 C 
ATOM     19  S   UNL     1       6.184   5.116  19.207  0.00  0.00    +0.000 S 
BRANCH  18  20
ATOM     20  N   UNL     1       5.163   4.555  16.767  0.00  0.00    +0.000 N 
ATOM     21  H   UNL     1       4.297   4.906  16.367  0.00  0.00    +0.000 HD
BRANCH  20  22
ATOM     22  C   UNL     1       6.229   4.203  15.827  0.00  0.00    +0.000 C 
ATOM     23  C   UNL     1       5.688   3.889  14.449  0.00  0.00    +0.000 C 
ATOM     24  C   UNL     1       6.835   4.257  13.547  0.00  0.00    +0.000 C 
ATOM     25  O   UNL     1       7.492   5.352  14.186  0.00  0.00    +0.000 OA
ATOM     26  C   UNL     1       7.151   5.371  15.511  0.00  0.00    +0.000 C 
ATOM     27  O   UNL     1       7.544   6.213  16.304  0.00  0.00    +0.000 OA
ENDBRANCH  20  22
ENDBRANCH  18  20
ENDBRANCH  17  18
ENDBRANCH  16  17
ENDBRANCH   2  16
TORSDOF 9
ENDMDL
MODEL 8
REMARK VINA RESULT:      -6.5      1.254      1.632
REMARK  Name = 
REMARK  10 active torsions:
REMARK  status: ('A' for Active; 'I' for Inactive)
REMARK    1  A    between atoms: C_1  and  C_2
REMARK    2  A    between atoms: C_2  and  O_3
REMARK    3  A    between atoms: O_3  and  C_4
REMARK    4  A    between atoms: C_4  and  C_6
REMARK    5  A    between atoms: C_9  and  N_10
REMARK    6  A    between atoms: C_11  and  C_13
REMARK    7  A    between atoms: C_13  and  S_14
REMARK    8  A    between atoms: S_14  and  C_15
REMARK    9  A    between atoms: C_15  and  N_17
REMARK   10  A    between atoms: N_17  and  C_18
REMARK                            x       y       z     vdW  Elec       q    Type
REMARK                         _______ _______ _______ _____ _____    ______ ____
ROOT
ATOM      1  N   UNL     1       3.022   5.787  20.160  0.00  0.00    +0.000 N 
ATOM      2  C   UNL     1       2.395   4.577  20.456  0.00  0.00    +0.000 C 
ATOM      3  O   UNL     1       1.181   4.416  20.550  0.00  0.00    +0.000 OA
ATOM      4  H   UNL     1       4.034   5.813  20.200  0.00  0.00    +0.000 HD
ENDROOT
BRANCH   1   8
ATOM      5  C   UNL     1       1.083   9.390  19.014  0.00  0.00    +0.000 A 
ATOM      6  C   UNL     1       0.977   8.928  20.327  0.00  0.00    +0.000 A 
ATOM      7  C   UNL     1       1.618   7.748  20.723  0.00  0.00    +0.000 A 
ATOM      8  C   UNL     1       2.383   7.007  19.821  0.00  0.00    +0.000 A 
ATOM      9  C   UNL     1       2.505   7.480  18.506  0.00  0.00    +0.000 A 
ATOM     10  C   UNL     1       1.861   8.663  18.104  0.00  0.00    +0.000 A 
BRANCH   5  11
ATOM     11  C   UNL     1       0.290  10.589  18.647  0.00  0.00    +0.000 C 
ATOM     12  O   UNL     1       0.777  11.698  18.465  0.00  0.00    +0.000 OA
BRANCH  11  13
ATOM     13  O   UNL     1      -1.038  10.300  18.670  0.00  0.00    +0.000 OA
BRANCH  13  15
ATOM     14  C   UNL     1      -3.106   9.770  17.596  0.00  0.00    +0.000 C 
ATOM     15  C   UNL     1      -1.617   9.989  17.394  0.00  0.00    +0.000 C 
ENDBRANCH  13  15
ENDBRANCH  11  13
ENDBRANCH   5  11
ENDBRANCH   1   8
BRANCH   2  16
ATOM     16  C   UNL     1       3.361   3.426  20.734  0.00  0.00    +0.000 C 
BRANCH  16  17
ATOM     17  S   UNL     1       3.266   2.190  19.398  0.00  0.00    +0.000 S 
BRANCH  17  18
ATOM     18  C   UNL     1       3.441   3.125  17.927  0.00  0.00    +0.000 C 
ATOM     19  S   UNL     1       2.233   3.904  17.084  0.00  0.00    +0.000 S 
BRANCH  18  20
ATOM     20  N   UNL     1       4.766   3.094  17.571  0.00  0.00    +0.000 N 
ATOM     21  H   UNL     1       5.219   2.189  17.661  0.00  0.00    +0.000 HD
BRANCH  20  22
ATOM     22  C   UNL     1       5.615   4.221  17.183  0.00  0.00    +0.000 C 
ATOM     23  C   UNL     1       4.914   5.154  16.219  0.00  0.00    +0.000 C 
ATOM     24  C   UNL     1       5.568   6.480  16.501  0.00  0.00    +0.000 C 
ATOM     25  O   UNL     1       5.887   6.465  17.892  0.00  0.00    +0.000 OA
ATOM     26  C   UNL     1       5.905   5.171  18.336  0.00  0.00    +0.000 C 
ATOM     27  O   UNL     1       6.127   4.850  19.494  0.00  0.00    +0.000 OA
ENDBRANCH  20  22
ENDBRANCH  18  20
ENDBRANCH  17  18
ENDBRANCH  16  17
ENDBRANCH   2  16
TORSDOF 9
ENDMDL
MODEL 9
REMARK VINA RESULT:      -6.4      1.057      1.660
REMARK  Name = 
REMARK  10 active torsions:
REMARK  status: ('A' for Active; 'I' for Inactive)
REMARK    1  A    between atoms: C_1  and  C_2
REMARK    2  A    between atoms: C_2  and  O_3
REMARK    3  A    between atoms: O_3  and  C_4
REMARK    4  A    between atoms: C_4  and  C_6
REMARK    5  A    between atoms: C_9  and  N_10
REMARK    6  A    between atoms: C_11  and  C_13
REMARK    7  A    between atoms: C_13  and  S_14
REMARK    8  A    between atoms: S_14  and  C_15
REMARK    9  A    between atoms: C_15  and  N_17
REMARK   10  A    between atoms: N_17  and  C_18
REMARK                            x       y       z     vdW  Elec       q    Type
REMARK                         _______ _______ _______ _____ _____    ______ ____
ROOT
ATOM      1  N   UNL     1       2.809   6.017  20.090  0.00  0.00    +0.000 N 
ATOM      2  C   UNL     1       2.303   4.756  19.777  0.00  0.00    +0.000 C 
ATOM      3  O   UNL     1       1.215   4.543  19.248  0.00  0.00    +0.000 OA
ATOM      4  H   UNL     1       3.678   6.059  20.607  0.00  0.00    +0.000 HD
ENDROOT
BRANCH   1   8
ATOM      5  C   UNL     1       1.007   9.710  19.006  0.00  0.00    +0.000 A 
ATOM      6  C   UNL     1       0.881   9.228  20.309  0.00  0.00    +0.000 A 
ATOM      7  C   UNL     1       1.477   8.019  20.686  0.00  0.00    +0.000 A 
ATOM      8  C   UNL     1       2.216   7.265  19.772  0.00  0.00    +0.000 A 
ATOM      9  C   UNL     1       2.359   7.757  18.466  0.00  0.00    +0.000 A 
ATOM     10  C   UNL     1       1.760   8.971  18.083  0.00  0.00    +0.000 A 
BRANCH   5  11
ATOM     11  C   UNL     1       0.260  10.943  18.658  0.00  0.00    +0.000 C 
ATOM     12  O   UNL     1       0.659  12.074  18.909  0.00  0.00    +0.000 OA
BRANCH  11  13
ATOM     13  O   UNL     1      -0.959  10.627  18.148  0.00  0.00    +0.000 OA
BRANCH  13  15
ATOM     14  C   UNL     1      -3.139  11.277  17.415  0.00  0.00    +0.000 C 
ATOM     15  C   UNL     1      -1.972  11.629  18.321  0.00  0.00    +0.000 C 
ENDBRANCH  13  15
ENDBRANCH  11  13
ENDBRANCH   5  11
ENDBRANCH   1   8
BRANCH   2  16
ATOM     16  C   UNL     1       3.201   3.599  20.212  0.00  0.00    +0.000 C 
BRANCH  16  17
ATOM     17  S   UNL     1       4.172   2.990  18.795  0.00  0.00    +0.000 S 
BRANCH  17  18
ATOM     18  C   UNL     1       5.175   4.351  18.339  0.00  0.00    +0.000 C 
ATOM     19  S   UNL     1       6.148   5.260  19.340  0.00  0.00    +0.000 S 
BRANCH  18  20
ATOM     20  N   UNL     1       5.007   4.557  16.993  0.00  0.00    +0.000 N 
ATOM     21  H   UNL     1       4.219   5.147  16.737  0.00  0.00    +0.000 HD
BRANCH  20  22
ATOM     22  C   UNL     1       5.759   3.949  15.893  0.00  0.00    +0.000 C 
ATOM     23  C   UNL     1       5.264   4.417  14.542  0.00  0.00    +0.000 C 
ATOM     24  C   UNL     1       6.492   4.303  13.678  0.00  0.00    +0.000 C 
ATOM     25  O   UNL     1       7.596   4.581  14.539  0.00  0.00    +0.000 OA
ATOM     26  C   UNL     1       7.208   4.408  15.840  0.00  0.00    +0.000 C 
ATOM     27  O   UNL     1       7.939   4.598  16.800  0.00  0.00    +0.000 OA
ENDBRANCH  20  22
ENDBRANCH  18  20
ENDBRANCH  17  18
ENDBRANCH  16  17
ENDBRANCH   2  16
TORSDOF 9
ENDMDL
