MODEL 1
REMARK VINA RESULT:      -8.2      0.000      0.000
REMARK  Name = 
REMARK  10 active torsions:
REMARK  status: ('A' for Active; 'I' for Inactive)
REMARK    1  A    between atoms: C_1  and  C_2
REMARK    2  A    between atoms: C_5  and  N_6
REMARK    3  A    between atoms: C_7  and  C_9
REMARK    4  A    between atoms: C_12  and  C_13
REMARK    5  A    between atoms: C_13  and  N_14
REMARK    6  A    between atoms: N_18  and  C_19
REMARK    7  A    between atoms: C_19  and  C_20
REMARK    8  A    between atoms: C_20  and  C_21
REMARK    9  A    between atoms: C_21  and  C_22
REMARK   10  A    between atoms: C_21  and  C_23
REMARK                            x       y       z     vdW  Elec       q    Type
REMARK                         _______ _______ _______ _____ _____    ______ ____
ROOT
ATOM      1  C   UNL     1       7.450   7.645  17.826  0.00  0.00    +0.000 A 
ATOM      2  C   UNL     1       7.951   6.556  18.547  0.00  0.00    +0.000 A 
ATOM      3  C   UNL     1       7.404   5.283  18.345  0.00  0.00    +0.000 A 
ATOM      4  C   UNL     1       6.343   5.077  17.449  0.00  0.00    +0.000 A 
ATOM      5  C   UNL     1       5.854   6.180  16.730  0.00  0.00    +0.000 A 
ATOM      6  C   UNL     1       6.395   7.454  16.926  0.00  0.00    +0.000 A 
ENDROOT
BRANCH   1   8
ATOM      7  N   UNL     1       8.925   9.180  19.014  0.00  0.00    +0.000 N 
ATOM      8  C   UNL     1       7.962   9.023  18.024  0.00  0.00    +0.000 C 
ATOM      9  O   UNL     1       7.520   9.897  17.289  0.00  0.00    +0.000 OA
ATOM     10  H   UNL     1       9.248   8.347  19.491  0.00  0.00    +0.000 HD
BRANCH   7  15
ATOM     11  C   UNL     1      11.534  14.129  20.278  0.00  0.00    +0.000 C 
ATOM     12  C   UNL     1      10.863  12.827  19.964  0.00  0.00    +0.000 A 
ATOM     13  C   UNL     1      10.067  12.196  20.917  0.00  0.00    +0.000 A 
ATOM     14  C   UNL     1       9.433  10.987  20.620  0.00  0.00    +0.000 A 
ATOM     15  C   UNL     1       9.570  10.388  19.368  0.00  0.00    +0.000 A 
ATOM     16  C   UNL     1      10.377  11.011  18.413  0.00  0.00    +0.000 A 
ATOM     17  C   UNL     1      11.016  12.217  18.717  0.00  0.00    +0.000 A 
ATOM     18  F   UNL     1      11.785  12.795  17.784  0.00  0.00    +0.000 F 
ENDBRANCH   7  15
ENDBRANCH   1   8
BRANCH   4  19
ATOM     19  C   UNL     1       5.731   3.692  17.268  0.00  0.00    +0.000 C 
BRANCH  19  20
ATOM     20  N   UNL     1       4.399   3.444  17.889  0.00  0.00    +0.000 NA
ATOM     21  C   UNL     1       3.432   4.462  17.467  0.00  0.00    +0.000 C 
ATOM     22  C   UNL     1       1.933   4.233  17.689  0.00  0.00    +0.000 C 
ATOM     23  C   UNL     1       1.396   3.740  19.031  0.00  0.00    +0.000 C 
ATOM     24  N   UNL     1       2.205   3.886  20.234  0.00  0.00    +0.000 NA
ATOM     25  C   UNL     1       3.314   2.923  20.203  0.00  0.00    +0.000 C 
ATOM     26  C   UNL     1       4.550   3.263  19.344  0.00  0.00    +0.000 C 
BRANCH  24  27
ATOM     27  C   UNL     1       2.632   5.249  20.568  0.00  0.00    +0.000 C 
BRANCH  27  28
ATOM     28  C   UNL     1       1.506   6.294  20.574  0.00  0.00    +0.000 C 
BRANCH  28  29
ATOM     29  C   UNL     1       2.007   7.698  20.168  0.00  0.00    +0.000 C 
ATOM     30  C   UNL     1       2.271   7.816  18.663  0.00  0.00    +0.000 C 
ATOM     31  C   UNL     1       0.997   8.765  20.596  0.00  0.00    +0.000 C 
ENDBRANCH  28  29
ENDBRANCH  27  28
ENDBRANCH  24  27
ENDBRANCH  19  20
ENDBRANCH   4  19
TORSDOF 7
ENDMDL
MODEL 2
REMARK VINA RESULT:      -7.8      4.933      9.006
REMARK  Name = 
REMARK  10 active torsions:
REMARK  status: ('A' for Active; 'I' for Inactive)
REMARK    1  A    between atoms: C_1  and  C_2
REMARK    2  A    between atoms: C_5  and  N_6
REMARK    3  A    between atoms: C_7  and  C_9
REMARK    4  A    between atoms: C_12  and  C_13
REMARK    5  A    between atoms: C_13  and  N_14
REMARK    6  A    between atoms: N_18  and  C_19
REMARK    7  A    between atoms: C_19  and  C_20
REMARK    8  A    between atoms: C_20  and  C_21
REMARK    9  A    between atoms: C_21  and  C_22
REMARK   10  A    between atoms: C_21  and  C_23
REMARK                            x       y       z     vdW  Elec       q    Type
REMARK                         _______ _______ _______ _____ _____    ______ ____
ROOT
ATOM      1  C   UNL     1       0.805   9.356  20.946  0.00  0.00    +0.000 A 
ATOM      2  C   UNL     1       0.970   9.823  19.637  0.00  0.00    +0.000 A 
ATOM      3  C   UNL     1       1.551   8.990  18.674  0.00  0.00    +0.000 A 
ATOM      4  C   UNL     1       1.997   7.698  18.998  0.00  0.00    +0.000 A 
ATOM      5  C   UNL     1       1.821   7.243  20.315  0.00  0.00    +0.000 A 
ATOM      6  C   UNL     1       1.242   8.069  21.281  0.00  0.00    +0.000 A 
ENDROOT
BRANCH   1   8
ATOM      7  N   UNL     1      -0.527  11.291  21.597  0.00  0.00    +0.000 N 
ATOM      8  C   UNL     1       0.232  10.205  22.018  0.00  0.00    +0.000 C 
ATOM      9  O   UNL     1       0.450   9.870  23.175  0.00  0.00    +0.000 OA
ATOM     10  H   UNL     1      -0.682  11.397  20.602  0.00  0.00    +0.000 HD
BRANCH   7  15
ATOM     11  C   UNL     1      -3.133  15.199  24.887  0.00  0.00    +0.000 C 
ATOM     12  C   UNL     1      -2.451  14.166  24.045  0.00  0.00    +0.000 A 
ATOM     13  C   UNL     1      -3.035  12.915  23.854  0.00  0.00    +0.000 A 
ATOM     14  C   UNL     1      -2.404  11.955  23.059  0.00  0.00    +0.000 A 
ATOM     15  C   UNL     1      -1.187  12.222  22.432  0.00  0.00    +0.000 A 
ATOM     16  C   UNL     1      -0.592  13.470  22.631  0.00  0.00    +0.000 A 
ATOM     17  C   UNL     1      -1.224  14.426  23.433  0.00  0.00    +0.000 A 
ATOM     18  F   UNL     1      -0.632  15.616  23.609  0.00  0.00    +0.000 F 
ENDBRANCH   7  15
ENDBRANCH   1   8
BRANCH   4  19
ATOM     19  C   UNL     1       2.663   6.816  17.947  0.00  0.00    +0.000 C 
BRANCH  19  20
ATOM     20  N   UNL     1       4.085   6.429  18.178  0.00  0.00    +0.000 NA
ATOM     21  C   UNL     1       4.964   7.084  17.205  0.00  0.00    +0.000 C 
ATOM     22  C   UNL     1       6.478   7.121  17.445  0.00  0.00    +0.000 C 
ATOM     23  C   UNL     1       7.245   5.867  17.861  0.00  0.00    +0.000 C 
ATOM     24  N   UNL     1       6.668   4.551  17.625  0.00  0.00    +0.000 NA
ATOM     25  C   UNL     1       5.566   4.319  18.569  0.00  0.00    +0.000 C 
ATOM     26  C   UNL     1       4.198   4.962  18.262  0.00  0.00    +0.000 C 
BRANCH  24  27
ATOM     27  C   UNL     1       6.316   4.236  16.236  0.00  0.00    +0.000 C 
BRANCH  27  28
ATOM     28  C   UNL     1       7.384   4.612  15.199  0.00  0.00    +0.000 C 
BRANCH  28  29
ATOM     29  C   UNL     1       6.776   4.895  13.806  0.00  0.00    +0.000 C 
ATOM     30  C   UNL     1       7.840   5.243  12.759  0.00  0.00    +0.000 C 
ATOM     31  C   UNL     1       5.963   3.689  13.329  0.00  0.00    +0.000 C 
ENDBRANCH  28  29
ENDBRANCH  27  28
ENDBRANCH  24  27
ENDBRANCH  19  20
ENDBRANCH   4  19
TORSDOF 7
ENDMDL
MODEL 3
REMARK VINA RESULT:      -7.8      0.927      1.426
REMARK  Name = 
REMARK  10 active torsions:
REMARK  status: ('A' for Active; 'I' for Inactive)
REMARK    1  A    between atoms: C_1  and  C_2
REMARK    2  A    between atoms: C_5  and  N_6
REMARK    3  A    between atoms: C_7  and  C_9
REMARK    4  A    between atoms: C_12  and  C_13
REMARK    5  A    between atoms: C_13  and  N_14
REMARK    6  A    between atoms: N_18  and  C_19
REMARK    7  A    between atoms: C_19  and  C_20
REMARK    8  A    between atoms: C_20  and  C_21
REMARK    9  A    between atoms: C_21  and  C_22
REMARK   10  A    between atoms: C_21  and  C_23
REMARK                            x       y       z     vdW  Elec       q    Type
REMARK                         _______ _______ _______ _____ _____    ______ ____
ROOT
ATOM      1  C   UNL     1       7.221   7.537  17.690  0.00  0.00    +0.000 A 
ATOM      2  C   UNL     1       7.754   6.445  18.382  0.00  0.00    +0.000 A 
ATOM      3  C   UNL     1       7.219   5.168  18.177  0.00  0.00    +0.000 A 
ATOM      4  C   UNL     1       6.138   4.960  17.304  0.00  0.00    +0.000 A 
ATOM      5  C   UNL     1       5.617   6.066  16.614  0.00  0.00    +0.000 A 
ATOM      6  C   UNL     1       6.146   7.344  16.814  0.00  0.00    +0.000 A 
ENDROOT
BRANCH   1   8
ATOM      7  N   UNL     1       8.806   9.055  18.750  0.00  0.00    +0.000 N 
ATOM      8  C   UNL     1       7.719   8.919  17.895  0.00  0.00    +0.000 C 
ATOM      9  O   UNL     1       7.156   9.815  17.280  0.00  0.00    +0.000 OA
ATOM     10  H   UNL     1       9.215   8.209  19.128  0.00  0.00    +0.000 HD
BRANCH   7  15
ATOM     11  C   UNL     1      11.493  13.895  20.251  0.00  0.00    +0.000 C 
ATOM     12  C   UNL     1      10.780  12.643  19.845  0.00  0.00    +0.000 A 
ATOM     13  C   UNL     1      10.856  12.182  18.533  0.00  0.00    +0.000 A 
ATOM     14  C   UNL     1      10.200  11.007  18.157  0.00  0.00    +0.000 A 
ATOM     15  C   UNL     1       9.463  10.264  19.080  0.00  0.00    +0.000 A 
ATOM     16  C   UNL     1       9.374  10.729  20.394  0.00  0.00    +0.000 A 
ATOM     17  C   UNL     1      10.027  11.908  20.764  0.00  0.00    +0.000 A 
ATOM     18  F   UNL     1       9.926  12.333  22.031  0.00  0.00    +0.000 F 
ENDBRANCH   7  15
ENDBRANCH   1   8
BRANCH   4  19
ATOM     19  C   UNL     1       5.541   3.569  17.119  0.00  0.00    +0.000 C 
BRANCH  19  20
ATOM     20  N   UNL     1       4.286   3.257  17.860  0.00  0.00    +0.000 NA
ATOM     21  C   UNL     1       3.204   4.157  17.450  0.00  0.00    +0.000 C 
ATOM     22  C   UNL     1       1.751   3.821  17.806  0.00  0.00    +0.000 C 
ATOM     23  C   UNL     1       1.362   3.385  19.217  0.00  0.00    +0.000 C 
ATOM     24  N   UNL     1       2.242   3.687  20.339  0.00  0.00    +0.000 NA
ATOM     25  C   UNL     1       3.427   2.821  20.284  0.00  0.00    +0.000 C 
ATOM     26  C   UNL     1       4.560   3.199  19.307  0.00  0.00    +0.000 C 
BRANCH  24  27
ATOM     27  C   UNL     1       2.568   5.102  20.544  0.00  0.00    +0.000 C 
BRANCH  27  28
ATOM     28  C   UNL     1       1.376   5.991  20.929  0.00  0.00    +0.000 C 
BRANCH  28  29
ATOM     29  C   UNL     1       1.390   7.346  20.186  0.00  0.00    +0.000 C 
ATOM     30  C   UNL     1       1.514   8.539  21.141  0.00  0.00    +0.000 C 
ATOM     31  C   UNL     1       2.535   7.381  19.171  0.00  0.00    +0.000 C 
ENDBRANCH  28  29
ENDBRANCH  27  28
ENDBRANCH  24  27
ENDBRANCH  19  20
ENDBRANCH   4  19
TORSDOF 7
ENDMDL
MODEL 4
REMARK VINA RESULT:      -7.6      5.017      8.824
REMARK  Name = 
REMARK  10 active torsions:
REMARK  status: ('A' for Active; 'I' for Inactive)
REMARK    1  A    between atoms: C_1  and  C_2
REMARK    2  A    between atoms: C_5  and  N_6
REMARK    3  A    between atoms: C_7  and  C_9
REMARK    4  A    between atoms: C_12  and  C_13
REMARK    5  A    between atoms: C_13  and  N_14
REMARK    6  A    between atoms: N_18  and  C_19
REMARK    7  A    between atoms: C_19  and  C_20
REMARK    8  A    between atoms: C_20  and  C_21
REMARK    9  A    between atoms: C_21  and  C_22
REMARK   10  A    between atoms: C_21  and  C_23
REMARK                            x       y       z     vdW  Elec       q    Type
REMARK                         _______ _______ _______ _____ _____    ______ ____
ROOT
ATOM      1  C   UNL     1       1.167   9.345  19.745  0.00  0.00    +0.000 A 
ATOM      2  C   UNL     1       1.430   8.307  20.647  0.00  0.00    +0.000 A 
ATOM      3  C   UNL     1       2.076   7.149  20.198  0.00  0.00    +0.000 A 
ATOM      4  C   UNL     1       2.448   6.994  18.853  0.00  0.00    +0.000 A 
ATOM      5  C   UNL     1       2.180   8.046  17.962  0.00  0.00    +0.000 A 
ATOM      6  C   UNL     1       1.536   9.205  18.402  0.00  0.00    +0.000 A 
ENDROOT
BRANCH   1   8
ATOM      7  N   UNL     1       0.134  10.683  21.501  0.00  0.00    +0.000 N 
ATOM      8  C   UNL     1       0.452  10.578  20.152  0.00  0.00    +0.000 C 
ATOM      9  O   UNL     1       0.225  11.408  19.281  0.00  0.00    +0.000 OA
ATOM     10  H   UNL     1       0.456   9.947  22.118  0.00  0.00    +0.000 HD
BRANCH   7  15
ATOM     11  C   UNL     1      -2.597  14.981  24.140  0.00  0.00    +0.000 C 
ATOM     12  C   UNL     1      -1.886  13.869  23.433  0.00  0.00    +0.000 A 
ATOM     13  C   UNL     1      -0.695  14.114  22.754  0.00  0.00    +0.000 A 
ATOM     14  C   UNL     1      -0.026  13.074  22.103  0.00  0.00    +0.000 A 
ATOM     15  C   UNL     1      -0.524  11.771  22.122  0.00  0.00    +0.000 A 
ATOM     16  C   UNL     1      -1.724  11.524  22.792  0.00  0.00    +0.000 A 
ATOM     17  C   UNL     1      -2.394  12.568  23.436  0.00  0.00    +0.000 A 
ATOM     18  F   UNL     1      -3.544  12.305  24.071  0.00  0.00    +0.000 F 
ENDBRANCH   7  15
ENDBRANCH   1   8
BRANCH   4  19
ATOM     19  C   UNL     1       3.117   5.711  18.371  0.00  0.00    +0.000 C 
BRANCH  19  20
ATOM     20  N   UNL     1       4.585   5.757  18.116  0.00  0.00    +0.000 NA
ATOM     21  C   UNL     1       4.938   6.944  17.331  0.00  0.00    +0.000 C 
ATOM     22  C   UNL     1       6.401   7.393  17.236  0.00  0.00    +0.000 C 
ATOM     23  C   UNL     1       7.518   6.396  16.933  0.00  0.00    +0.000 C 
ATOM     24  N   UNL     1       7.200   5.118  16.310  0.00  0.00    +0.000 NA
ATOM     25  C   UNL     1       6.541   4.243  17.289  0.00  0.00    +0.000 C 
ATOM     26  C   UNL     1       5.041   4.466  17.570  0.00  0.00    +0.000 C 
BRANCH  24  27
ATOM     27  C   UNL     1       6.499   5.179  15.024  0.00  0.00    +0.000 C 
BRANCH  27  28
ATOM     28  C   UNL     1       6.058   3.819  14.464  0.00  0.00    +0.000 C 
BRANCH  28  29
ATOM     29  C   UNL     1       6.502   3.616  12.998  0.00  0.00    +0.000 C 
ATOM     30  C   UNL     1       5.319   3.385  12.051  0.00  0.00    +0.000 C 
ATOM     31  C   UNL     1       7.313   4.822  12.518  0.00  0.00    +0.000 C 
ENDBRANCH  28  29
ENDBRANCH  27  28
ENDBRANCH  24  27
ENDBRANCH  19  20
ENDBRANCH   4  19
TORSDOF 7
ENDMDL
MODEL 5
REMARK VINA RESULT:      -7.6      5.196      9.267
REMARK  Name = 
REMARK  10 active torsions:
REMARK  status: ('A' for Active; 'I' for Inactive)
REMARK    1  A    between atoms: C_1  and  C_2
REMARK    2  A    between atoms: C_5  and  N_6
REMARK    3  A    between atoms: C_7  and  C_9
REMARK    4  A    between atoms: C_12  and  C_13
REMARK    5  A    between atoms: C_13  and  N_14
REMARK    6  A    between atoms: N_18  and  C_19
REMARK    7  A    between atoms: C_19  and  C_20
REMARK    8  A    between atoms: C_20  and  C_21
REMARK    9  A    between atoms: C_21  and  C_22
REMARK   10  A    between atoms: C_21  and  C_23
REMARK                            x       y       z     vdW  Elec       q    Type
REMARK                         _______ _______ _______ _____ _____    ______ ____
ROOT
ATOM      1  C   UNL     1       1.021   9.940  20.297  0.00  0.00    +0.000 A 
ATOM      2  C   UNL     1       1.336   8.769  20.996  0.00  0.00    +0.000 A 
ATOM      3  C   UNL     1       1.841   7.664  20.300  0.00  0.00    +0.000 A 
ATOM      4  C   UNL     1       2.016   7.695  18.907  0.00  0.00    +0.000 A 
ATOM      5  C   UNL     1       1.698   8.879  18.221  0.00  0.00    +0.000 A 
ATOM      6  C   UNL     1       1.194   9.986  18.909  0.00  0.00    +0.000 A 
ENDROOT
BRANCH   1   8
ATOM      7  N   UNL     1      -0.934  11.135  21.129  0.00  0.00    +0.000 N 
ATOM      8  C   UNL     1       0.447  11.129  20.973  0.00  0.00    +0.000 C 
ATOM      9  O   UNL     1       1.230  11.988  21.358  0.00  0.00    +0.000 OA
ATOM     10  H   UNL     1      -1.445  10.315  20.825  0.00  0.00    +0.000 HD
BRANCH   7  15
ATOM     11  C   UNL     1      -4.003  15.156  23.833  0.00  0.00    +0.000 C 
ATOM     12  C   UNL     1      -3.215  14.109  23.110  0.00  0.00    +0.000 A 
ATOM     13  C   UNL     1      -2.547  14.420  21.927  0.00  0.00    +0.000 A 
ATOM     14  C   UNL     1      -1.802  13.445  21.259  0.00  0.00    +0.000 A 
ATOM     15  C   UNL     1      -1.699  12.146  21.757  0.00  0.00    +0.000 A 
ATOM     16  C   UNL     1      -2.377  11.827  22.936  0.00  0.00    +0.000 A 
ATOM     17  C   UNL     1      -3.126  12.804  23.599  0.00  0.00    +0.000 A 
ATOM     18  F   UNL     1      -3.767  12.472  24.728  0.00  0.00    +0.000 F 
ENDBRANCH   7  15
ENDBRANCH   1   8
BRANCH   4  19
ATOM     19  C   UNL     1       2.530   6.470  18.158  0.00  0.00    +0.000 C 
BRANCH  19  20
ATOM     20  N   UNL     1       3.996   6.201  18.209  0.00  0.00    +0.000 NA
ATOM     21  C   UNL     1       4.697   6.940  17.155  0.00  0.00    +0.000 C 
ATOM     22  C   UNL     1       6.221   7.100  17.215  0.00  0.00    +0.000 C 
ATOM     23  C   UNL     1       7.131   5.909  17.508  0.00  0.00    +0.000 C 
ATOM     24  N   UNL     1       6.638   4.552  17.311  0.00  0.00    +0.000 NA
ATOM     25  C   UNL     1       5.681   4.216  18.373  0.00  0.00    +0.000 C 
ATOM     26  C   UNL     1       4.238   4.748  18.246  0.00  0.00    +0.000 C 
BRANCH  24  27
ATOM     27  C   UNL     1       6.149   4.229  15.966  0.00  0.00    +0.000 C 
BRANCH  27  28
ATOM     28  C   UNL     1       6.981   4.818  14.818  0.00  0.00    +0.000 C 
BRANCH  28  29
ATOM     29  C   UNL     1       6.772   4.054  13.491  0.00  0.00    +0.000 C 
ATOM     30  C   UNL     1       5.291   3.807  13.181  0.00  0.00    +0.000 C 
ATOM     31  C   UNL     1       7.416   4.819  12.332  0.00  0.00    +0.000 C 
ENDBRANCH  28  29
ENDBRANCH  27  28
ENDBRANCH  24  27
ENDBRANCH  19  20
ENDBRANCH   4  19
TORSDOF 7
ENDMDL
MODEL 6
REMARK VINA RESULT:      -7.6      5.149      9.248
REMARK  Name = 
REMARK  10 active torsions:
REMARK  status: ('A' for Active; 'I' for Inactive)
REMARK    1  A    between atoms: C_1  and  C_2
REMARK    2  A    between atoms: C_5  and  N_6
REMARK    3  A    between atoms: C_7  and  C_9
REMARK    4  A    between atoms: C_12  and  C_13
REMARK    5  A    between atoms: C_13  and  N_14
REMARK    6  A    between atoms: N_18  and  C_19
REMARK    7  A    between atoms: C_19  and  C_20
REMARK    8  A    between atoms: C_20  and  C_21
REMARK    9  A    between atoms: C_21  and  C_22
REMARK   10  A    between atoms: C_21  and  C_23
REMARK                            x       y       z     vdW  Elec       q    Type
REMARK                         _______ _______ _______ _____ _____    ______ ____
ROOT
ATOM      1  C   UNL     1       0.950   9.912  20.081  0.00  0.00    +0.000 A 
ATOM      2  C   UNL     1       1.219   9.986  18.710  0.00  0.00    +0.000 A 
ATOM      3  C   UNL     1       1.745   8.870  18.048  0.00  0.00    +0.000 A 
ATOM      4  C   UNL     1       2.034   7.681  18.737  0.00  0.00    +0.000 A 
ATOM      5  C   UNL     1       1.755   7.622  20.112  0.00  0.00    +0.000 A 
ATOM      6  C   UNL     1       1.230   8.731  20.779  0.00  0.00    +0.000 A 
ENDROOT
BRANCH   1   8
ATOM      7  N   UNL     1      -0.955  11.172  20.934  0.00  0.00    +0.000 N 
ATOM      8  C   UNL     1       0.429  11.072  20.844  0.00  0.00    +0.000 C 
ATOM      9  O   UNL     1       1.250  11.825  21.351  0.00  0.00    +0.000 OA
ATOM     10  H   UNL     1      -1.506  10.428  20.525  0.00  0.00    +0.000 HD
BRANCH   7  15
ATOM     11  C   UNL     1      -3.847  15.152  23.881  0.00  0.00    +0.000 C 
ATOM     12  C   UNL     1      -3.105  14.117  23.095  0.00  0.00    +0.000 A 
ATOM     13  C   UNL     1      -2.463  14.459  21.907  0.00  0.00    +0.000 A 
ATOM     14  C   UNL     1      -1.761  13.494  21.180  0.00  0.00    +0.000 A 
ATOM     15  C   UNL     1      -1.677  12.174  21.623  0.00  0.00    +0.000 A 
ATOM     16  C   UNL     1      -2.329  11.824  22.807  0.00  0.00    +0.000 A 
ATOM     17  C   UNL     1      -3.036  12.791  23.529  0.00  0.00    +0.000 A 
ATOM     18  F   UNL     1      -3.654  12.429  24.662  0.00  0.00    +0.000 F 
ENDBRANCH   7  15
ENDBRANCH   1   8
BRANCH   4  19
ATOM     19  C   UNL     1       2.643   6.486  18.010  0.00  0.00    +0.000 C 
BRANCH  19  20
ATOM     20  N   UNL     1       4.106   6.253  18.181  0.00  0.00    +0.000 NA
ATOM     21  C   UNL     1       4.870   6.980  17.164  0.00  0.00    +0.000 C 
ATOM     22  C   UNL     1       6.381   7.177  17.336  0.00  0.00    +0.000 C 
ATOM     23  C   UNL     1       7.292   6.017  17.730  0.00  0.00    +0.000 C 
ATOM     24  N   UNL     1       6.845   4.644  17.533  0.00  0.00    +0.000 NA
ATOM     25  C   UNL     1       5.815   4.313  18.527  0.00  0.00    +0.000 C 
ATOM     26  C   UNL     1       4.375   4.807  18.276  0.00  0.00    +0.000 C 
BRANCH  24  27
ATOM     27  C   UNL     1       6.468   4.274  16.165  0.00  0.00    +0.000 C 
BRANCH  27  28
ATOM     28  C   UNL     1       7.450   4.736  15.078  0.00  0.00    +0.000 C 
BRANCH  28  29
ATOM     29  C   UNL     1       6.768   4.893  13.700  0.00  0.00    +0.000 C 
ATOM     30  C   UNL     1       7.769   5.207  12.581  0.00  0.00    +0.000 C 
ATOM     31  C   UNL     1       5.987   3.626  13.348  0.00  0.00    +0.000 C 
ENDBRANCH  28  29
ENDBRANCH  27  28
ENDBRANCH  24  27
ENDBRANCH  19  20
ENDBRANCH   4  19
TORSDOF 7
ENDMDL
MODEL 7
REMARK VINA RESULT:      -7.6      5.367      9.270
REMARK  Name = 
REMARK  10 active torsions:
REMARK  status: ('A' for Active; 'I' for Inactive)
REMARK    1  A    between atoms: C_1  and  C_2
REMARK    2  A    between atoms: C_5  and  N_6
REMARK    3  A    between atoms: C_7  and  C_9
REMARK    4  A    between atoms: C_12  and  C_13
REMARK    5  A    between atoms: C_13  and  N_14
REMARK    6  A    between atoms: N_18  and  C_19
REMARK    7  A    between atoms: C_19  and  C_20
REMARK    8  A    between atoms: C_20  and  C_21
REMARK    9  A    between atoms: C_21  and  C_22
REMARK   10  A    between atoms: C_21  and  C_23
REMARK                            x       y       z     vdW  Elec       q    Type
REMARK                         _______ _______ _______ _____ _____    ______ ____
ROOT
ATOM      1  C   UNL     1       0.691   9.641  20.991  0.00  0.00    +0.000 A 
ATOM      2  C   UNL     1       0.752  10.084  19.664  0.00  0.00    +0.000 A 
ATOM      3  C   UNL     1       1.351   9.274  18.692  0.00  0.00    +0.000 A 
ATOM      4  C   UNL     1       1.916   8.031  19.023  0.00  0.00    +0.000 A 
ATOM      5  C   UNL     1       1.843   7.600  20.357  0.00  0.00    +0.000 A 
ATOM      6  C   UNL     1       1.247   8.403  21.333  0.00  0.00    +0.000 A 
ENDROOT
BRANCH   1   8
ATOM      7  N   UNL     1      -0.596  11.599  21.663  0.00  0.00    +0.000 N 
ATOM      8  C   UNL     1       0.105  10.470  22.071  0.00  0.00    +0.000 C 
ATOM      9  O   UNL     1       0.261  10.084  23.222  0.00  0.00    +0.000 OA
ATOM     10  H   UNL     1      -0.706  11.748  20.667  0.00  0.00    +0.000 HD
BRANCH   7  15
ATOM     11  C   UNL     1      -3.348  15.211  25.167  0.00  0.00    +0.000 C 
ATOM     12  C   UNL     1      -2.630  14.283  24.237  0.00  0.00    +0.000 A 
ATOM     13  C   UNL     1      -1.386  14.631  23.715  0.00  0.00    +0.000 A 
ATOM     14  C   UNL     1      -0.712  13.759  22.856  0.00  0.00    +0.000 A 
ATOM     15  C   UNL     1      -1.256  12.523  22.506  0.00  0.00    +0.000 A 
ATOM     16  C   UNL     1      -2.508  12.176  23.018  0.00  0.00    +0.000 A 
ATOM     17  C   UNL     1      -3.183  13.053  23.872  0.00  0.00    +0.000 A 
ATOM     18  F   UNL     1      -4.384  12.696  24.349  0.00  0.00    +0.000 F 
ENDBRANCH   7  15
ENDBRANCH   1   8
BRANCH   4  19
ATOM     19  C   UNL     1       2.598   7.177  17.960  0.00  0.00    +0.000 C 
BRANCH  19  20
ATOM     20  N   UNL     1       3.996   6.733  18.230  0.00  0.00    +0.000 NA
ATOM     21  C   UNL     1       4.896   7.168  17.158  0.00  0.00    +0.000 C 
ATOM     22  C   UNL     1       6.414   7.136  17.372  0.00  0.00    +0.000 C 
ATOM     23  C   UNL     1       7.104   5.911  17.968  0.00  0.00    +0.000 C 
ATOM     24  N   UNL     1       6.435   4.617  17.944  0.00  0.00    +0.000 NA
ATOM     25  C   UNL     1       5.341   4.609  18.925  0.00  0.00    +0.000 C 
ATOM     26  C   UNL     1       4.013   5.292  18.539  0.00  0.00    +0.000 C 
BRANCH  24  27
ATOM     27  C   UNL     1       6.032   4.119  16.624  0.00  0.00    +0.000 C 
BRANCH  27  28
ATOM     28  C   UNL     1       7.145   4.122  15.566  0.00  0.00    +0.000 C 
BRANCH  28  29
ATOM     29  C   UNL     1       6.586   4.089  14.126  0.00  0.00    +0.000 C 
ATOM     30  C   UNL     1       5.086   4.399  14.070  0.00  0.00    +0.000 C 
ATOM     31  C   UNL     1       7.347   5.076  13.239  0.00  0.00    +0.000 C 
ENDBRANCH  28  29
ENDBRANCH  27  28
ENDBRANCH  24  27
ENDBRANCH  19  20
ENDBRANCH   4  19
TORSDOF 7
ENDMDL
MODEL 8
REMARK VINA RESULT:      -7.6      4.954      9.102
REMARK  Name = 
REMARK  10 active torsions:
REMARK  status: ('A' for Active; 'I' for Inactive)
REMARK    1  A    between atoms: C_1  and  C_2
REMARK    2  A    between atoms: C_5  and  N_6
REMARK    3  A    between atoms: C_7  and  C_9
REMARK    4  A    between atoms: C_12  and  C_13
REMARK    5  A    between atoms: C_13  and  N_14
REMARK    6  A    between atoms: N_18  and  C_19
REMARK    7  A    between atoms: C_19  and  C_20
REMARK    8  A    between atoms: C_20  and  C_21
REMARK    9  A    between atoms: C_21  and  C_22
REMARK   10  A    between atoms: C_21  and  C_23
REMARK                            x       y       z     vdW  Elec       q    Type
REMARK                         _______ _______ _______ _____ _____    ______ ____
ROOT
ATOM      1  C   UNL     1       1.170   9.694  20.067  0.00  0.00    +0.000 A 
ATOM      2  C   UNL     1       1.539   8.522  20.736  0.00  0.00    +0.000 A 
ATOM      3  C   UNL     1       2.047   7.440  20.006  0.00  0.00    +0.000 A 
ATOM      4  C   UNL     1       2.174   7.496  18.609  0.00  0.00    +0.000 A 
ATOM      5  C   UNL     1       1.803   8.681  17.953  0.00  0.00    +0.000 A 
ATOM      6  C   UNL     1       1.295   9.765  18.674  0.00  0.00    +0.000 A 
ENDROOT
BRANCH   1   8
ATOM      7  N   UNL     1      -0.797  10.890  20.868  0.00  0.00    +0.000 N 
ATOM      8  C   UNL     1       0.590  10.858  20.779  0.00  0.00    +0.000 C 
ATOM      9  O   UNL     1       1.372  11.674  21.250  0.00  0.00    +0.000 OA
ATOM     10  H   UNL     1      -1.309  10.100  20.494  0.00  0.00    +0.000 HD
BRANCH   7  15
ATOM     11  C   UNL     1      -4.014  14.945  23.338  0.00  0.00    +0.000 C 
ATOM     12  C   UNL     1      -3.158  13.891  22.707  0.00  0.00    +0.000 A 
ATOM     13  C   UNL     1      -2.700  12.811  23.459  0.00  0.00    +0.000 A 
ATOM     14  C   UNL     1      -1.911  11.822  22.866  0.00  0.00    +0.000 A 
ATOM     15  C   UNL     1      -1.570  11.883  21.515  0.00  0.00    +0.000 A 
ATOM     16  C   UNL     1      -2.016  12.970  20.761  0.00  0.00    +0.000 A 
ATOM     17  C   UNL     1      -2.800  13.961  21.359  0.00  0.00    +0.000 A 
ATOM     18  F   UNL     1      -3.216  14.995  20.613  0.00  0.00    +0.000 F 
ENDBRANCH   7  15
ENDBRANCH   1   8
BRANCH   4  19
ATOM     19  C   UNL     1       2.694   6.296  17.823  0.00  0.00    +0.000 C 
BRANCH  19  20
ATOM     20  N   UNL     1       4.164   6.051  17.840  0.00  0.00    +0.000 NA
ATOM     21  C   UNL     1       4.878   7.125  17.144  0.00  0.00    +0.000 C 
ATOM     22  C   UNL     1       6.393   7.279  17.322  0.00  0.00    +0.000 C 
ATOM     23  C   UNL     1       7.329   6.077  17.218  0.00  0.00    +0.000 C 
ATOM     24  N   UNL     1       6.886   4.868  16.535  0.00  0.00    +0.000 NA
ATOM     25  C   UNL     1       5.902   4.164  17.369  0.00  0.00    +0.000 C 
ATOM     26  C   UNL     1       4.449   4.682  17.375  0.00  0.00    +0.000 C 
BRANCH  24  27
ATOM     27  C   UNL     1       6.454   5.030  15.143  0.00  0.00    +0.000 C 
BRANCH  27  28
ATOM     28  C   UNL     1       5.953   3.745  14.469  0.00  0.00    +0.000 C 
BRANCH  28  29
ATOM     29  C   UNL     1       6.456   3.611  13.014  0.00  0.00    +0.000 C 
ATOM     30  C   UNL     1       5.317   3.353  12.020  0.00  0.00    +0.000 C 
ATOM     31  C   UNL     1       7.222   4.869  12.600  0.00  0.00    +0.000 C 
ENDBRANCH  28  29
ENDBRANCH  27  28
ENDBRANCH  24  27
ENDBRANCH  19  20
ENDBRANCH   4  19
TORSDOF 7
ENDMDL
MODEL 9
REMARK VINA RESULT:      -7.6      5.152      9.255
REMARK  Name = 
REMARK  10 active torsions:
REMARK  status: ('A' for Active; 'I' for Inactive)
REMARK    1  A    between atoms: C_1  and  C_2
REMARK    2  A    between atoms: C_5  and  N_6
REMARK    3  A    between atoms: C_7  and  C_9
REMARK    4  A    between atoms: C_12  and  C_13
REMARK    5  A    between atoms: C_13  and  N_14
REMARK    6  A    between atoms: N_18  and  C_19
REMARK    7  A    between atoms: C_19  and  C_20
REMARK    8  A    between atoms: C_20  and  C_21
REMARK    9  A    between atoms: C_21  and  C_22
REMARK   10  A    between atoms: C_21  and  C_23
REMARK                            x       y       z     vdW  Elec       q    Type
REMARK                         _______ _______ _______ _____ _____    ______ ____
ROOT
ATOM      1  C   UNL     1       0.897   9.227  20.058  0.00  0.00    +0.000 A 
ATOM      2  C   UNL     1       1.559   8.019  20.304  0.00  0.00    +0.000 A 
ATOM      3  C   UNL     1       2.408   7.485  19.328  0.00  0.00    +0.000 A 
ATOM      4  C   UNL     1       2.594   8.125  18.092  0.00  0.00    +0.000 A 
ATOM      5  C   UNL     1       1.926   9.338  17.862  0.00  0.00    +0.000 A 
ATOM      6  C   UNL     1       1.076   9.877  18.831  0.00  0.00    +0.000 A 
ENDROOT
BRANCH   1   8
ATOM      7  N   UNL     1      -0.495  11.105  20.749  0.00  0.00    +0.000 N 
ATOM      8  C   UNL     1      -0.045   9.822  21.037  0.00  0.00    +0.000 C 
ATOM      9  O   UNL     1      -0.369   9.132  21.995  0.00  0.00    +0.000 OA
ATOM     10  H   UNL     1      -0.198  11.521  19.875  0.00  0.00    +0.000 HD
BRANCH   7  15
ATOM     11  C   UNL     1      -4.328  14.118  23.769  0.00  0.00    +0.000 C 
ATOM     12  C   UNL     1      -3.313  13.346  22.985  0.00  0.00    +0.000 A 
ATOM     13  C   UNL     1      -2.163  12.861  23.605  0.00  0.00    +0.000 A 
ATOM     14  C   UNL     1      -1.222  12.131  22.875  0.00  0.00    +0.000 A 
ATOM     15  C   UNL     1      -1.408  11.862  21.519  0.00  0.00    +0.000 A 
ATOM     16  C   UNL     1      -2.553  12.357  20.891  0.00  0.00    +0.000 A 
ATOM     17  C   UNL     1      -3.490  13.092  21.624  0.00  0.00    +0.000 A 
ATOM     18  F   UNL     1      -4.581  13.556  20.997  0.00  0.00    +0.000 F 
ENDBRANCH   7  15
ENDBRANCH   1   8
BRANCH   4  19
ATOM     19  C   UNL     1       3.493   7.511  17.023  0.00  0.00    +0.000 C 
BRANCH  19  20
ATOM     20  N   UNL     1       4.610   6.637  17.486  0.00  0.00    +0.000 NA
ATOM     21  C   UNL     1       5.907   7.238  17.161  0.00  0.00    +0.000 C 
ATOM     22  C   UNL     1       7.183   6.711  17.828  0.00  0.00    +0.000 C 
ATOM     23  C   UNL     1       7.473   5.214  17.912  0.00  0.00    +0.000 C 
ATOM     24  N   UNL     1       6.795   4.291  17.011  0.00  0.00    +0.000 NA
ATOM     25  C   UNL     1       5.390   4.150  17.415  0.00  0.00    +0.000 C 
ATOM     26  C   UNL     1       4.400   5.260  17.005  0.00  0.00    +0.000 C 
BRANCH  24  27
ATOM     27  C   UNL     1       6.963   4.546  15.576  0.00  0.00    +0.000 C 
BRANCH  27  28
ATOM     28  C   UNL     1       6.044   3.721  14.663  0.00  0.00    +0.000 C 
BRANCH  28  29
ATOM     29  C   UNL     1       6.538   3.698  13.199  0.00  0.00    +0.000 C 
ATOM     30  C   UNL     1       5.396   3.511  12.195  0.00  0.00    +0.000 C 
ATOM     31  C   UNL     1       7.298   4.987  12.876  0.00  0.00    +0.000 C 
ENDBRANCH  28  29
ENDBRANCH  27  28
ENDBRANCH  24  27
ENDBRANCH  19  20
ENDBRANCH   4  19
TORSDOF 7
ENDMDL
