MODEL 1
REMARK VINA RESULT:      -8.0      0.000      0.000
REMARK  Name = 
REMARK  6 active torsions:
REMARK  status: ('A' for Active; 'I' for Inactive)
REMARK    1  A    between atoms: C_1  and  C_2
REMARK    2  A    between atoms: C_4  and  C_5
REMARK    3  A    between atoms: C_12  and  C_13
REMARK    4  A    between atoms: N_15  and  C_16
REMARK    5  A    between atoms: C_16  and  C_17
REMARK    6  A    between atoms: C_17  and  N_18
REMARK                            x       y       z     vdW  Elec       q    Type
REMARK                         _______ _______ _______ _____ _____    ______ ____
ROOT
ATOM      1  C   UNL     1       7.001   6.266  16.893  0.00  0.00    +0.000 C 
ATOM      2  O   UNL     1       7.656   6.074  15.872  0.00  0.00    +0.000 OA
ATOM      3  N   UNL     1       7.267   7.330  17.733  0.00  0.00    +0.000 N 
ATOM      4  H   UNL     1       6.792   7.338  18.627  0.00  0.00    +0.000 HD
ENDROOT
BRANCH   1  10
ATOM      5  C   UNL     1       5.291   4.216  15.100  0.00  0.00    +0.000 C 
ATOM      6  C   UNL     1       5.143   4.528  16.547  0.00  0.00    +0.000 A 
ATOM      7  N   UNL     1       4.128   3.883  17.240  0.00  0.00    +0.000 NA
ATOM      8  C   UNL     1       4.079   4.280  18.496  0.00  0.00    +0.000 A 
ATOM      9  S   UNL     1       5.302   5.409  18.918  0.00  0.00    +0.000 S 
ATOM     10  C   UNL     1       5.893   5.414  17.304  0.00  0.00    +0.000 A 
BRANCH   8  11
ATOM     11  C   UNL     1       3.060   3.823  19.463  0.00  0.00    +0.000 A 
ATOM     12  C   UNL     1       3.457   2.979  20.515  0.00  0.00    +0.000 A 
ATOM     13  C   UNL     1       2.531   2.476  21.433  0.00  0.00    +0.000 A 
ATOM     14  C   UNL     1       1.186   2.811  21.315  0.00  0.00    +0.000 A 
ATOM     15  C   UNL     1       0.769   3.654  20.289  0.00  0.00    +0.000 A 
ATOM     16  C   UNL     1       1.698   4.158  19.372  0.00  0.00    +0.000 A 
ENDBRANCH   8  11
ENDBRANCH   1  10
BRANCH   3  17
ATOM     17  C   UNL     1       8.367   8.260  17.530  0.00  0.00    +0.000 C 
BRANCH  17  18
ATOM     18  C   UNL     1       8.028   9.648  18.093  0.00  0.00    +0.000 C 
BRANCH  18  19
ATOM     19  N   UNL     1       9.019  10.087  19.063  0.00  0.00    +0.000 N 
ATOM     20  C   UNL     1       9.766  11.179  18.626  0.00  0.00    +0.000 A 
ATOM     21  N   UNL     1       9.207  12.107  17.837  0.00  0.00    +0.000 NA
ATOM     22  C   UNL     1       9.990  13.129  17.439  0.00  0.00    +0.000 A 
ATOM     23  C   UNL     1      11.307  13.253  17.794  0.00  0.00    +0.000 A 
ATOM     24  C   UNL     1      11.787  12.254  18.604  0.00  0.00    +0.000 A 
ATOM     25  N   UNL     1      11.044  11.210  19.025  0.00  0.00    +0.000 NA
ATOM     26  H   UNL     1       9.704   9.391  19.344  0.00  0.00    +0.000 HD
ENDBRANCH  18  19
ENDBRANCH  17  18
ENDBRANCH   3  17
TORSDOF 5
ENDMDL
MODEL 2
REMARK VINA RESULT:      -7.9      4.301      8.138
REMARK  Name = 
REMARK  6 active torsions:
REMARK  status: ('A' for Active; 'I' for Inactive)
REMARK    1  A    between atoms: C_1  and  C_2
REMARK    2  A    between atoms: C_4  and  C_5
REMARK    3  A    between atoms: C_12  and  C_13
REMARK    4  A    between atoms: N_15  and  C_16
REMARK    5  A    between atoms: C_16  and  C_17
REMARK    6  A    between atoms: C_17  and  N_18
REMARK                            x       y       z     vdW  Elec       q    Type
REMARK                         _______ _______ _______ _____ _____    ______ ____
ROOT
ATOM      1  C   UNL     1       5.169   4.287  19.213  0.00  0.00    +0.000 C 
ATOM      2  O   UNL     1       5.112   5.114  20.118  0.00  0.00    +0.000 OA
ATOM      3  N   UNL     1       4.498   3.082  19.292  0.00  0.00    +0.000 N 
ATOM      4  H   UNL     1       4.712   2.391  18.583  0.00  0.00    +0.000 HD
ENDROOT
BRANCH   1  10
ATOM      5  C   UNL     1       7.977   5.808  18.833  0.00  0.00    +0.000 C 
ATOM      6  C   UNL     1       7.131   5.150  17.800  0.00  0.00    +0.000 A 
ATOM      7  N   UNL     1       7.572   5.201  16.485  0.00  0.00    +0.000 NA
ATOM      8  C   UNL     1       6.712   4.622  15.670  0.00  0.00    +0.000 A 
ATOM      9  S   UNL     1       5.356   3.930  16.464  0.00  0.00    +0.000 S 
ATOM     10  C   UNL     1       5.922   4.496  17.984  0.00  0.00    +0.000 A 
BRANCH   8  11
ATOM     11  C   UNL     1       6.874   4.579  14.202  0.00  0.00    +0.000 A 
ATOM     12  C   UNL     1       6.122   3.646  13.466  0.00  0.00    +0.000 A 
ATOM     13  C   UNL     1       6.266   3.526  12.081  0.00  0.00    +0.000 A 
ATOM     14  C   UNL     1       7.167   4.342  11.404  0.00  0.00    +0.000 A 
ATOM     15  C   UNL     1       7.914   5.282  12.108  0.00  0.00    +0.000 A 
ATOM     16  C   UNL     1       7.768   5.402  13.494  0.00  0.00    +0.000 A 
ENDBRANCH   8  11
ENDBRANCH   1  10
BRANCH   3  17
ATOM     17  C   UNL     1       3.738   2.658  20.458  0.00  0.00    +0.000 C 
BRANCH  17  18
ATOM     18  C   UNL     1       2.236   2.593  20.146  0.00  0.00    +0.000 C 
BRANCH  18  19
ATOM     19  N   UNL     1       1.531   3.749  20.675  0.00  0.00    +0.000 N 
ATOM     20  C   UNL     1       1.785   4.919  19.961  0.00  0.00    +0.000 A 
ATOM     21  N   UNL     1       2.006   4.868  18.640  0.00  0.00    +0.000 NA
ATOM     22  C   UNL     1       2.261   6.034  18.014  0.00  0.00    +0.000 A 
ATOM     23  C   UNL     1       2.309   7.242  18.659  0.00  0.00    +0.000 A 
ATOM     24  C   UNL     1       2.069   7.190  20.009  0.00  0.00    +0.000 A 
ATOM     25  N   UNL     1       1.814   6.048  20.680  0.00  0.00    +0.000 NA
ATOM     26  H   UNL     1       1.724   3.982  21.645  0.00  0.00    +0.000 HD
ENDBRANCH  18  19
ENDBRANCH  17  18
ENDBRANCH   3  17
TORSDOF 5
ENDMDL
MODEL 3
REMARK VINA RESULT:      -7.9      4.569      7.961
REMARK  Name = 
REMARK  6 active torsions:
REMARK  status: ('A' for Active; 'I' for Inactive)
REMARK    1  A    between atoms: C_1  and  C_2
REMARK    2  A    between atoms: C_4  and  C_5
REMARK    3  A    between atoms: C_12  and  C_13
REMARK    4  A    between atoms: N_15  and  C_16
REMARK    5  A    between atoms: C_16  and  C_17
REMARK    6  A    between atoms: C_17  and  N_18
REMARK                            x       y       z     vdW  Elec       q    Type
REMARK                         _______ _______ _______ _____ _____    ______ ____
ROOT
ATOM      1  C   UNL     1       4.837   4.040  19.277  0.00  0.00    +0.000 C 
ATOM      2  O   UNL     1       5.041   3.099  20.038  0.00  0.00    +0.000 OA
ATOM      3  N   UNL     1       3.819   4.946  19.505  0.00  0.00    +0.000 N 
ATOM      4  H   UNL     1       3.613   5.601  18.761  0.00  0.00    +0.000 HD
ENDROOT
BRANCH   1  10
ATOM      5  C   UNL     1       7.634   5.613  19.064  0.00  0.00    +0.000 C 
ATOM      6  C   UNL     1       6.844   4.974  17.977  0.00  0.00    +0.000 A 
ATOM      7  N   UNL     1       7.341   5.071  16.684  0.00  0.00    +0.000 NA
ATOM      8  C   UNL     1       6.527   4.504  15.816  0.00  0.00    +0.000 A 
ATOM      9  S   UNL     1       5.149   3.769  16.530  0.00  0.00    +0.000 S 
ATOM     10  C   UNL     1       5.639   4.297  18.089  0.00  0.00    +0.000 A 
BRANCH   8  11
ATOM     11  C   UNL     1       6.753   4.507  14.356  0.00  0.00    +0.000 A 
ATOM     12  C   UNL     1       6.064   3.572  13.563  0.00  0.00    +0.000 A 
ATOM     13  C   UNL     1       6.271   3.495  12.183  0.00  0.00    +0.000 A 
ATOM     14  C   UNL     1       7.173   4.357  11.568  0.00  0.00    +0.000 A 
ATOM     15  C   UNL     1       7.859   5.300  12.329  0.00  0.00    +0.000 A 
ATOM     16  C   UNL     1       7.649   5.377  13.710  0.00  0.00    +0.000 A 
ENDBRANCH   8  11
ENDBRANCH   1  10
BRANCH   3  17
ATOM     17  C   UNL     1       2.871   4.832  20.602  0.00  0.00    +0.000 C 
BRANCH  17  18
ATOM     18  C   UNL     1       1.738   5.860  20.464  0.00  0.00    +0.000 C 
BRANCH  18  19
ATOM     19  N   UNL     1       2.248   7.167  20.082  0.00  0.00    +0.000 N 
ATOM     20  C   UNL     1       1.390   8.211  20.424  0.00  0.00    +0.000 A 
ATOM     21  N   UNL     1       0.635   8.129  21.528  0.00  0.00    +0.000 NA
ATOM     22  C   UNL     1      -0.184   9.167  21.791  0.00  0.00    +0.000 A 
ATOM     23  C   UNL     1      -0.281  10.274  20.990  0.00  0.00    +0.000 A 
ATOM     24  C   UNL     1       0.532  10.264  19.884  0.00  0.00    +0.000 A 
ATOM     25  N   UNL     1       1.364   9.248  19.577  0.00  0.00    +0.000 NA
ATOM     26  H   UNL     1       2.444   7.296  19.093  0.00  0.00    +0.000 HD
ENDBRANCH  18  19
ENDBRANCH  17  18
ENDBRANCH   3  17
TORSDOF 5
ENDMDL
MODEL 4
REMARK VINA RESULT:      -7.8      1.075      1.248
REMARK  Name = 
REMARK  6 active torsions:
REMARK  status: ('A' for Active; 'I' for Inactive)
REMARK    1  A    between atoms: C_1  and  C_2
REMARK    2  A    between atoms: C_4  and  C_5
REMARK    3  A    between atoms: C_12  and  C_13
REMARK    4  A    between atoms: N_15  and  C_16
REMARK    5  A    between atoms: C_16  and  C_17
REMARK    6  A    between atoms: C_17  and  N_18
REMARK                            x       y       z     vdW  Elec       q    Type
REMARK                         _______ _______ _______ _____ _____    ______ ____
ROOT
ATOM      1  C   UNL     1       7.127   6.393  17.130  0.00  0.00    +0.000 C 
ATOM      2  O   UNL     1       7.858   6.424  16.144  0.00  0.00    +0.000 OA
ATOM      3  N   UNL     1       7.398   7.149  18.254  0.00  0.00    +0.000 N 
ATOM      4  H   UNL     1       6.842   6.959  19.079  0.00  0.00    +0.000 HD
ENDROOT
BRANCH   1  10
ATOM      5  C   UNL     1       5.648   4.796  14.762  0.00  0.00    +0.000 C 
ATOM      6  C   UNL     1       5.267   4.890  16.197  0.00  0.00    +0.000 A 
ATOM      7  N   UNL     1       4.112   4.230  16.596  0.00  0.00    +0.000 NA
ATOM      8  C   UNL     1       3.865   4.430  17.876  0.00  0.00    +0.000 A 
ATOM      9  S   UNL     1       5.056   5.374  18.676  0.00  0.00    +0.000 S 
ATOM     10  C   UNL     1       5.920   5.582  17.205  0.00  0.00    +0.000 A 
BRANCH   8  11
ATOM     11  C   UNL     1       2.669   3.912  18.572  0.00  0.00    +0.000 A 
ATOM     12  C   UNL     1       2.212   4.584  19.720  0.00  0.00    +0.000 A 
ATOM     13  C   UNL     1       1.115   4.115  20.448  0.00  0.00    +0.000 A 
ATOM     14  C   UNL     1       0.451   2.963  20.037  0.00  0.00    +0.000 A 
ATOM     15  C   UNL     1       0.877   2.288  18.898  0.00  0.00    +0.000 A 
ATOM     16  C   UNL     1       1.975   2.759  18.169  0.00  0.00    +0.000 A 
ENDBRANCH   8  11
ENDBRANCH   1  10
BRANCH   3  17
ATOM     17  C   UNL     1       8.584   7.978  18.400  0.00  0.00    +0.000 C 
BRANCH  17  18
ATOM     18  C   UNL     1       8.303   9.426  17.972  0.00  0.00    +0.000 C 
BRANCH  18  19
ATOM     19  N   UNL     1       8.528  10.359  19.065  0.00  0.00    +0.000 N 
ATOM     20  C   UNL     1       9.751  11.021  18.976  0.00  0.00    +0.000 A 
ATOM     21  N   UNL     1      10.270  11.321  17.777  0.00  0.00    +0.000 NA
ATOM     22  C   UNL     1      11.463  11.948  17.764  0.00  0.00    +0.000 A 
ATOM     23  C   UNL     1      12.155  12.279  18.899  0.00  0.00    +0.000 A 
ATOM     24  C   UNL     1      11.541  11.930  20.076  0.00  0.00    +0.000 A 
ATOM     25  N   UNL     1      10.351  11.299  20.141  0.00  0.00    +0.000 NA
ATOM     26  H   UNL     1       8.507   9.961  19.999  0.00  0.00    +0.000 HD
ENDBRANCH  18  19
ENDBRANCH  17  18
ENDBRANCH   3  17
TORSDOF 5
ENDMDL
MODEL 5
REMARK VINA RESULT:      -7.7      3.911      8.581
REMARK  Name = 
REMARK  6 active torsions:
REMARK  status: ('A' for Active; 'I' for Inactive)
REMARK    1  A    between atoms: C_1  and  C_2
REMARK    2  A    between atoms: C_4  and  C_5
REMARK    3  A    between atoms: C_12  and  C_13
REMARK    4  A    between atoms: N_15  and  C_16
REMARK    5  A    between atoms: C_16  and  C_17
REMARK    6  A    between atoms: C_17  and  N_18
REMARK                            x       y       z     vdW  Elec       q    Type
REMARK                         _______ _______ _______ _____ _____    ______ ____
ROOT
ATOM      1  C   UNL     1       4.715   5.961  18.756  0.00  0.00    +0.000 C 
ATOM      2  O   UNL     1       5.103   5.650  19.878  0.00  0.00    +0.000 OA
ATOM      3  N   UNL     1       3.489   6.566  18.557  0.00  0.00    +0.000 N 
ATOM      4  H   UNL     1       3.171   6.655  17.600  0.00  0.00    +0.000 HD
ENDROOT
BRANCH   1  10
ATOM      5  C   UNL     1       7.620   7.131  18.024  0.00  0.00    +0.000 C 
ATOM      6  C   UNL     1       6.750   6.237  17.214  0.00  0.00    +0.000 A 
ATOM      7  N   UNL     1       7.212   5.857  15.962  0.00  0.00    +0.000 NA
ATOM      8  C   UNL     1       6.330   5.105  15.334  0.00  0.00    +0.000 A 
ATOM      9  S   UNL     1       4.920   4.768  16.255  0.00  0.00    +0.000 S 
ATOM     10  C   UNL     1       5.499   5.741  17.548  0.00  0.00    +0.000 A 
BRANCH   8  11
ATOM     11  C   UNL     1       6.510   4.605  13.956  0.00  0.00    +0.000 A 
ATOM     12  C   UNL     1       5.638   3.610  13.478  0.00  0.00    +0.000 A 
ATOM     13  C   UNL     1       5.788   3.064  12.200  0.00  0.00    +0.000 A 
ATOM     14  C   UNL     1       6.816   3.506  11.373  0.00  0.00    +0.000 A 
ATOM     15  C   UNL     1       7.685   4.498  11.819  0.00  0.00    +0.000 A 
ATOM     16  C   UNL     1       7.533   5.045  13.097  0.00  0.00    +0.000 A 
ENDBRANCH   8  11
ENDBRANCH   1  10
BRANCH   3  17
ATOM     17  C   UNL     1       2.534   6.820  19.625  0.00  0.00    +0.000 C 
BRANCH  17  18
ATOM     18  C   UNL     1       2.181   5.524  20.370  0.00  0.00    +0.000 C 
BRANCH  18  19
ATOM     19  N   UNL     1       1.426   4.612  19.526  0.00  0.00    +0.000 N 
ATOM     20  C   UNL     1       2.175   3.518  19.096  0.00  0.00    +0.000 A 
ATOM     21  N   UNL     1       3.127   3.001  19.884  0.00  0.00    +0.000 NA
ATOM     22  C   UNL     1       3.824   1.954  19.400  0.00  0.00    +0.000 A 
ATOM     23  C   UNL     1       3.608   1.411  18.161  0.00  0.00    +0.000 A 
ATOM     24  C   UNL     1       2.612   2.009  17.430  0.00  0.00    +0.000 A 
ATOM     25  N   UNL     1       1.891   3.062  17.869  0.00  0.00    +0.000 NA
ATOM     26  H   UNL     1       1.031   5.014  18.680  0.00  0.00    +0.000 HD
ENDBRANCH  18  19
ENDBRANCH  17  18
ENDBRANCH   3  17
TORSDOF 5
ENDMDL
MODEL 6
REMARK VINA RESULT:      -7.7      4.744      7.890
REMARK  Name = 
REMARK  6 active torsions:
REMARK  status: ('A' for Active; 'I' for Inactive)
REMARK    1  A    between atoms: C_1  and  C_2
REMARK    2  A    between atoms: C_4  and  C_5
REMARK    3  A    between atoms: C_12  and  C_13
REMARK    4  A    between atoms: N_15  and  C_16
REMARK    5  A    between atoms: C_16  and  C_17
REMARK    6  A    between atoms: C_17  and  N_18
REMARK                            x       y       z     vdW  Elec       q    Type
REMARK                         _______ _______ _______ _____ _____    ______ ____
ROOT
ATOM      1  C   UNL     1       4.065   3.951  19.124  0.00  0.00    +0.000 C 
ATOM      2  O   UNL     1       4.278   3.161  20.039  0.00  0.00    +0.000 OA
ATOM      3  N   UNL     1       2.904   4.697  19.069  0.00  0.00    +0.000 N 
ATOM      4  H   UNL     1       2.729   5.209  18.214  0.00  0.00    +0.000 HD
ENDROOT
BRANCH   1  10
ATOM      5  C   UNL     1       6.894   5.479  19.225  0.00  0.00    +0.000 C 
ATOM      6  C   UNL     1       6.224   4.843  18.059  0.00  0.00    +0.000 A 
ATOM      7  N   UNL     1       6.868   4.920  16.831  0.00  0.00    +0.000 NA
ATOM      8  C   UNL     1       6.151   4.359  15.878  0.00  0.00    +0.000 A 
ATOM      9  S   UNL     1       4.688   3.651  16.433  0.00  0.00    +0.000 S 
ATOM     10  C   UNL     1       5.004   4.185  18.035  0.00  0.00    +0.000 A 
BRANCH   8  11
ATOM     11  C   UNL     1       6.543   4.346  14.454  0.00  0.00    +0.000 A 
ATOM     12  C   UNL     1       7.524   5.254  14.015  0.00  0.00    +0.000 A 
ATOM     13  C   UNL     1       7.902   5.321  12.671  0.00  0.00    +0.000 A 
ATOM     14  C   UNL     1       7.306   4.478  11.739  0.00  0.00    +0.000 A 
ATOM     15  C   UNL     1       6.341   3.563  12.151  0.00  0.00    +0.000 A 
ATOM     16  C   UNL     1       5.964   3.495  13.496  0.00  0.00    +0.000 A 
ENDBRANCH   8  11
ENDBRANCH   1  10
BRANCH   3  17
ATOM     17  C   UNL     1       1.817   4.567  20.028  0.00  0.00    +0.000 C 
BRANCH  17  18
ATOM     18  C   UNL     1       1.694   5.826  20.898  0.00  0.00    +0.000 C 
BRANCH  18  19
ATOM     19  N   UNL     1       2.310   6.978  20.259  0.00  0.00    +0.000 N 
ATOM     20  C   UNL     1       1.499   8.111  20.275  0.00  0.00    +0.000 A 
ATOM     21  N   UNL     1       0.668   8.333  21.303  0.00  0.00    +0.000 NA
ATOM     22  C   UNL     1      -0.099   9.439  21.246  0.00  0.00    +0.000 A 
ATOM     23  C   UNL     1      -0.071  10.324  20.201  0.00  0.00    +0.000 A 
ATOM     24  C   UNL     1       0.811  10.011  19.198  0.00  0.00    +0.000 A 
ATOM     25  N   UNL     1       1.596   8.914  19.207  0.00  0.00    +0.000 NA
ATOM     26  H   UNL     1       2.579   6.856  19.287  0.00  0.00    +0.000 HD
ENDBRANCH  18  19
ENDBRANCH  17  18
ENDBRANCH   3  17
TORSDOF 5
ENDMDL
MODEL 7
REMARK VINA RESULT:      -7.6      7.619     10.505
REMARK  Name = 
REMARK  6 active torsions:
REMARK  status: ('A' for Active; 'I' for Inactive)
REMARK    1  A    between atoms: C_1  and  C_2
REMARK    2  A    between atoms: C_4  and  C_5
REMARK    3  A    between atoms: C_12  and  C_13
REMARK    4  A    between atoms: N_15  and  C_16
REMARK    5  A    between atoms: C_16  and  C_17
REMARK    6  A    between atoms: C_17  and  N_18
REMARK                            x       y       z     vdW  Elec       q    Type
REMARK                         _______ _______ _______ _____ _____    ______ ____
ROOT
ATOM      1  C   UNL     1       0.646  10.750  19.338  0.00  0.00    +0.000 C 
ATOM      2  O   UNL     1       0.915  11.585  20.196  0.00  0.00    +0.000 OA
ATOM      3  N   UNL     1      -0.291  11.001  18.354  0.00  0.00    +0.000 N 
ATOM      4  H   UNL     1      -0.571  10.218  17.777  0.00  0.00    +0.000 HD
ENDROOT
BRANCH   1  10
ATOM      5  C   UNL     1       1.060   8.600  21.693  0.00  0.00    +0.000 C 
ATOM      6  C   UNL     1       1.474   8.505  20.268  0.00  0.00    +0.000 A 
ATOM      7  N   UNL     1       2.152   7.359  19.874  0.00  0.00    +0.000 NA
ATOM      8  C   UNL     1       2.499   7.422  18.603  0.00  0.00    +0.000 A 
ATOM      9  S   UNL     1       1.965   8.846  17.805  0.00  0.00    +0.000 S 
ATOM     10  C   UNL     1       1.284   9.443  19.265  0.00  0.00    +0.000 A 
BRANCH   8  11
ATOM     11  C   UNL     1       3.292   6.382  17.916  0.00  0.00    +0.000 A 
ATOM     12  C   UNL     1       4.434   6.769  17.192  0.00  0.00    +0.000 A 
ATOM     13  C   UNL     1       5.196   5.838  16.483  0.00  0.00    +0.000 A 
ATOM     14  C   UNL     1       4.830   4.495  16.486  0.00  0.00    +0.000 A 
ATOM     15  C   UNL     1       3.711   4.085  17.204  0.00  0.00    +0.000 A 
ATOM     16  C   UNL     1       2.949   5.018  17.915  0.00  0.00    +0.000 A 
ENDBRANCH   8  11
ENDBRANCH   1  10
BRANCH   3  17
ATOM     17  C   UNL     1      -1.080  12.222  18.287  0.00  0.00    +0.000 C 
BRANCH  17  18
ATOM     18  C   UNL     1      -2.425  12.051  19.007  0.00  0.00    +0.000 C 
BRANCH  18  19
ATOM     19  N   UNL     1      -3.531  11.984  18.065  0.00  0.00    +0.000 N 
ATOM     20  C   UNL     1      -4.761  11.764  18.680  0.00  0.00    +0.000 A 
ATOM     21  N   UNL     1      -5.006  12.263  19.899  0.00  0.00    +0.000 NA
ATOM     22  C   UNL     1      -6.211  12.000  20.442  0.00  0.00    +0.000 A 
ATOM     23  C   UNL     1      -7.173  11.253  19.815  0.00  0.00    +0.000 A 
ATOM     24  C   UNL     1      -6.829  10.786  18.571  0.00  0.00    +0.000 A 
ATOM     25  N   UNL     1      -5.635  11.020  17.989  0.00  0.00    +0.000 NA
ATOM     26  H   UNL     1      -3.459  11.269  17.347  0.00  0.00    +0.000 HD
ENDBRANCH  18  19
ENDBRANCH  17  18
ENDBRANCH   3  17
TORSDOF 5
ENDMDL
MODEL 8
REMARK VINA RESULT:      -7.6      1.103      1.264
REMARK  Name = 
REMARK  6 active torsions:
REMARK  status: ('A' for Active; 'I' for Inactive)
REMARK    1  A    between atoms: C_1  and  C_2
REMARK    2  A    between atoms: C_4  and  C_5
REMARK    3  A    between atoms: C_12  and  C_13
REMARK    4  A    between atoms: N_15  and  C_16
REMARK    5  A    between atoms: C_16  and  C_17
REMARK    6  A    between atoms: C_17  and  N_18
REMARK                            x       y       z     vdW  Elec       q    Type
REMARK                         _______ _______ _______ _____ _____    ______ ____
ROOT
ATOM      1  C   UNL     1       7.389   6.421  18.120  0.00  0.00    +0.000 C 
ATOM      2  O   UNL     1       8.315   6.223  18.901  0.00  0.00    +0.000 OA
ATOM      3  N   UNL     1       7.378   7.513  17.274  0.00  0.00    +0.000 N 
ATOM      4  H   UNL     1       6.519   7.695  16.771  0.00  0.00    +0.000 HD
ENDROOT
BRANCH   1  10
ATOM      5  C   UNL     1       6.641   4.442  15.698  0.00  0.00    +0.000 C 
ATOM      6  C   UNL     1       5.899   4.678  16.965  0.00  0.00    +0.000 A 
ATOM      7  N   UNL     1       4.711   3.984  17.150  0.00  0.00    +0.000 NA
ATOM      8  C   UNL     1       4.135   4.316  18.288  0.00  0.00    +0.000 A 
ATOM      9  S   UNL     1       5.036   5.439  19.224  0.00  0.00    +0.000 S 
ATOM     10  C   UNL     1       6.239   5.535  18.001  0.00  0.00    +0.000 A 
BRANCH   8  11
ATOM     11  C   UNL     1       2.824   3.796  18.728  0.00  0.00    +0.000 A 
ATOM     12  C   UNL     1       2.199   4.389  19.839  0.00  0.00    +0.000 A 
ATOM     13  C   UNL     1       0.981   3.910  20.330  0.00  0.00    +0.000 A 
ATOM     14  C   UNL     1       0.363   2.826  19.715  0.00  0.00    +0.000 A 
ATOM     15  C   UNL     1       0.956   2.229  18.606  0.00  0.00    +0.000 A 
ATOM     16  C   UNL     1       2.174   2.711  18.114  0.00  0.00    +0.000 A 
ENDBRANCH   8  11
ENDBRANCH   1  10
BRANCH   3  17
ATOM     17  C   UNL     1       8.403   8.545  17.279  0.00  0.00    +0.000 C 
BRANCH  17  18
ATOM     18  C   UNL     1       8.001   9.720  18.184  0.00  0.00    +0.000 C 
BRANCH  18  19
ATOM     19  N   UNL     1       9.089  10.111  19.065  0.00  0.00    +0.000 N 
ATOM     20  C   UNL     1       9.800  11.215  18.600  0.00  0.00    +0.000 A 
ATOM     21  N   UNL     1       9.174  12.179  17.910  0.00  0.00    +0.000 NA
ATOM     22  C   UNL     1       9.925  13.211  17.477  0.00  0.00    +0.000 A 
ATOM     23  C   UNL     1      11.272  13.311  17.702  0.00  0.00    +0.000 A 
ATOM     24  C   UNL     1      11.821  12.277  18.418  0.00  0.00    +0.000 A 
ATOM     25  N   UNL     1      11.113  11.221  18.868  0.00  0.00    +0.000 NA
ATOM     26  H   UNL     1       9.791   9.399  19.247  0.00  0.00    +0.000 HD
ENDBRANCH  18  19
ENDBRANCH  17  18
ENDBRANCH   3  17
TORSDOF 5
ENDMDL
MODEL 9
REMARK VINA RESULT:      -7.6      4.788      7.105
REMARK  Name = 
REMARK  6 active torsions:
REMARK  status: ('A' for Active; 'I' for Inactive)
REMARK    1  A    between atoms: C_1  and  C_2
REMARK    2  A    between atoms: C_4  and  C_5
REMARK    3  A    between atoms: C_12  and  C_13
REMARK    4  A    between atoms: N_15  and  C_16
REMARK    5  A    between atoms: C_16  and  C_17
REMARK    6  A    between atoms: C_17  and  N_18
REMARK                            x       y       z     vdW  Elec       q    Type
REMARK                         _______ _______ _______ _____ _____    ______ ____
ROOT
ATOM      1  C   UNL     1       3.399   6.130  17.816  0.00  0.00    +0.000 C 
ATOM      2  O   UNL     1       3.285   4.965  17.445  0.00  0.00    +0.000 OA
ATOM      3  N   UNL     1       4.250   7.011  17.178  0.00  0.00    +0.000 N 
ATOM      4  H   UNL     1       4.406   7.904  17.628  0.00  0.00    +0.000 HD
ENDROOT
BRANCH   1  10
ATOM      5  C   UNL     1       2.457   4.663  20.519  0.00  0.00    +0.000 C 
ATOM      6  C   UNL     1       2.235   6.074  20.104  0.00  0.00    +0.000 A 
ATOM      7  N   UNL     1       1.510   6.887  20.964  0.00  0.00    +0.000 NA
ATOM      8  C   UNL     1       1.349   8.094  20.459  0.00  0.00    +0.000 A 
ATOM      9  S   UNL     1       2.123   8.325  18.944  0.00  0.00    +0.000 S 
ATOM     10  C   UNL     1       2.652   6.690  18.934  0.00  0.00    +0.000 A 
BRANCH   8  11
ATOM     11  C   UNL     1       0.561   9.159  21.113  0.00  0.00    +0.000 A 
ATOM     12  C   UNL     1       0.310   9.064  22.494  0.00  0.00    +0.000 A 
ATOM     13  C   UNL     1      -0.468  10.015  23.159  0.00  0.00    +0.000 A 
ATOM     14  C   UNL     1      -1.011  11.084  22.452  0.00  0.00    +0.000 A 
ATOM     15  C   UNL     1      -0.768  11.207  21.087  0.00  0.00    +0.000 A 
ATOM     16  C   UNL     1       0.013  10.255  20.423  0.00  0.00    +0.000 A 
ENDBRANCH   8  11
ENDBRANCH   1  10
BRANCH   3  17
ATOM     17  C   UNL     1       5.125   6.633  16.079  0.00  0.00    +0.000 C 
BRANCH  17  18
ATOM     18  C   UNL     1       6.291   5.764  16.574  0.00  0.00    +0.000 C 
BRANCH  18  19
ATOM     19  N   UNL     1       6.271   4.445  15.963  0.00  0.00    +0.000 N 
ATOM     20  C   UNL     1       6.662   4.456  14.626  0.00  0.00    +0.000 A 
ATOM     21  N   UNL     1       7.582   5.332  14.198  0.00  0.00    +0.000 NA
ATOM     22  C   UNL     1       7.903   5.298  12.890  0.00  0.00    +0.000 A 
ATOM     23  C   UNL     1       7.334   4.429  11.996  0.00  0.00    +0.000 A 
ATOM     24  C   UNL     1       6.404   3.572  12.529  0.00  0.00    +0.000 A 
ATOM     25  N   UNL     1       6.047   3.571  13.830  0.00  0.00    +0.000 NA
ATOM     26  H   UNL     1       5.376   3.964  15.975  0.00  0.00    +0.000 HD
ENDBRANCH  18  19
ENDBRANCH  17  18
ENDBRANCH   3  17
TORSDOF 5
ENDMDL
