MODEL 1
REMARK VINA RESULT:      -7.6      0.000      0.000
REMARK  Name = 
REMARK  13 active torsions:
REMARK  status: ('A' for Active; 'I' for Inactive)
REMARK    1  A    between atoms: C_1  and  C_2
REMARK    2  A    between atoms: C_2  and  C_3
REMARK    3  A    between atoms: C_2  and  C_4
REMARK    4  A    between atoms: C_2  and  C_5
REMARK    5  A    between atoms: C_8  and  O_9
REMARK    6  A    between atoms: O_9  and  C_10
REMARK    7  A    between atoms: C_14  and  N_15
REMARK    8  A    between atoms: N_15  and  C_16
REMARK    9  A    between atoms: C_16  and  C_17
REMARK   10  A    between atoms: C_17  and  C_18
REMARK   11  A    between atoms: C_18  and  N_19
REMARK   12  A    between atoms: N_19  and  C_20
REMARK   13  A    between atoms: C_20  and  C_21
REMARK                            x       y       z     vdW  Elec       q    Type
REMARK                         _______ _______ _______ _____ _____    ______ ____
ROOT
ATOM      1  C   UNL     1      -0.208  11.340  20.162  0.00  0.00    +0.000 A 
ATOM      2  C   UNL     1      -0.340  10.436  21.214  0.00  0.00    +0.000 A 
ATOM      3  C   UNL     1       0.367   9.224  21.181  0.00  0.00    +0.000 A 
ATOM      4  C   UNL     1       1.200   8.889  20.077  0.00  0.00    +0.000 A 
ATOM      5  C   UNL     1       1.899   7.658  19.888  0.00  0.00    +0.000 A 
ATOM      6  C   UNL     1       2.473   7.425  18.630  0.00  0.00    +0.000 A 
ATOM      7  C   UNL     1       2.579   8.459  17.730  0.00  0.00    +0.000 A 
ATOM      8  N   UNL     1       2.065   9.674  17.940  0.00  0.00    +0.000 NA
ATOM      9  C   UNL     1       1.348   9.862  19.054  0.00  0.00    +0.000 A 
ATOM     10  C   UNL     1       0.696  11.072  19.139  0.00  0.00    +0.000 A 
ENDROOT
BRANCH   5  11
ATOM     11  N   UNL     1       1.959   6.630  20.883  0.00  0.00    +0.000 N 
ATOM     12  H   UNL     1       2.664   6.851  21.583  0.00  0.00    +0.000 HD
BRANCH  11  13
ATOM     13  C   UNL     1       2.195   5.304  20.278  0.00  0.00    +0.000 C 
BRANCH  13  14
ATOM     14  C   UNL     1       1.071   4.307  20.520  0.00  0.00    +0.000 C 
BRANCH  14  15
ATOM     15  C   UNL     1       1.680   2.896  20.593  0.00  0.00    +0.000 C 
BRANCH  15  16
ATOM     16  N   UNL     1       1.659   2.276  19.278  0.00  0.00    +0.000 NA
ATOM     17  H   UNL     1       1.374   2.961  18.575  0.00  0.00    +0.000 HD
BRANCH  16  18
ATOM     18  C   UNL     1       2.978   1.771  18.890  0.00  0.00    +0.000 C 
BRANCH  18  19
ATOM     19  C   UNL     1       3.780   2.911  18.375  0.00  0.00    +0.000 A 
ATOM     20  C   UNL     1       4.928   3.533  18.818  0.00  0.00    +0.000 A 
ATOM     21  C   UNL     1       5.273   4.483  17.830  0.00  0.00    +0.000 A 
ATOM     22  C   UNL     1       4.306   4.391  16.855  0.00  0.00    +0.000 A 
ATOM     23  O   UNL     1       3.391   3.441  17.179  0.00  0.00    +0.000 OA
ENDBRANCH  18  19
ENDBRANCH  16  18
ENDBRANCH  15  16
ENDBRANCH  14  15
ENDBRANCH  13  14
ENDBRANCH  11  13
ENDBRANCH   5  11
BRANCH   1  24
ATOM     24  O   UNL     1      -0.974  12.487  20.168  0.00  0.00    +0.000 OA
BRANCH  24  28
ATOM     25  C   UNL     1      -5.144  12.101  19.508  0.00  0.00    +0.000 A 
ATOM     26  C   UNL     1      -4.224  11.687  18.531  0.00  0.00    +0.000 A 
ATOM     27  C   UNL     1      -2.841  11.796  18.727  0.00  0.00    +0.000 A 
ATOM     28  C   UNL     1      -2.324  12.371  19.888  0.00  0.00    +0.000 A 
ATOM     29  C   UNL     1      -3.222  12.814  20.862  0.00  0.00    +0.000 A 
ATOM     30  C   UNL     1      -4.609  12.684  20.674  0.00  0.00    +0.000 A 
BRANCH  25  32
ATOM     31  C   UNL     1      -7.082  10.401  19.608  0.00  0.00    +0.000 C 
ATOM     32  C   UNL     1      -6.660  11.868  19.349  0.00  0.00    +0.000 C 
ATOM     33  C   UNL     1      -7.137  12.232  17.928  0.00  0.00    +0.000 C 
ATOM     34  C   UNL     1      -7.422  12.741  20.372  0.00  0.00    +0.000 C 
ENDBRANCH  25  32
ENDBRANCH  24  28
ENDBRANCH   1  24
TORSDOF 10
ENDMDL
MODEL 2
REMARK VINA RESULT:      -7.6      2.883      9.724
REMARK  Name = 
REMARK  13 active torsions:
REMARK  status: ('A' for Active; 'I' for Inactive)
REMARK    1  A    between atoms: C_1  and  C_2
REMARK    2  A    between atoms: C_2  and  C_3
REMARK    3  A    between atoms: C_2  and  C_4
REMARK    4  A    between atoms: C_2  and  C_5
REMARK    5  A    between atoms: C_8  and  O_9
REMARK    6  A    between atoms: O_9  and  C_10
REMARK    7  A    between atoms: C_14  and  N_15
REMARK    8  A    between atoms: N_15  and  C_16
REMARK    9  A    between atoms: C_16  and  C_17
REMARK   10  A    between atoms: C_17  and  C_18
REMARK   11  A    between atoms: C_18  and  N_19
REMARK   12  A    between atoms: N_19  and  C_20
REMARK   13  A    between atoms: C_20  and  C_21
REMARK                            x       y       z     vdW  Elec       q    Type
REMARK                         _______ _______ _______ _____ _____    ______ ____
ROOT
ATOM      1  C   UNL     1       0.645   9.745  18.758  0.00  0.00    +0.000 A 
ATOM      2  C   UNL     1       0.276  10.606  19.789  0.00  0.00    +0.000 A 
ATOM      3  C   UNL     1      -0.975  11.240  19.749  0.00  0.00    +0.000 A 
ATOM      4  C   UNL     1      -1.867  11.040  18.658  0.00  0.00    +0.000 A 
ATOM      5  C   UNL     1      -3.122  11.692  18.462  0.00  0.00    +0.000 A 
ATOM      6  C   UNL     1      -3.742  11.542  17.213  0.00  0.00    +0.000 A 
ATOM      7  C   UNL     1      -3.279  10.590  16.335  0.00  0.00    +0.000 A 
ATOM      8  N   UNL     1      -2.187   9.853  16.556  0.00  0.00    +0.000 NA
ATOM      9  C   UNL     1      -1.473  10.115  17.657  0.00  0.00    +0.000 A 
ATOM     10  C   UNL     1      -0.269   9.452  17.750  0.00  0.00    +0.000 A 
ENDROOT
BRANCH   5  11
ATOM     11  N   UNL     1      -3.721  12.551  19.439  0.00  0.00    +0.000 N 
ATOM     12  H   UNL     1      -3.371  12.334  20.369  0.00  0.00    +0.000 HD
BRANCH  11  13
ATOM     13  C   UNL     1      -5.195  12.485  19.387  0.00  0.00    +0.000 C 
BRANCH  13  14
ATOM     14  C   UNL     1      -5.850  12.273  20.743  0.00  0.00    +0.000 C 
BRANCH  14  15
ATOM     15  C   UNL     1      -6.220  13.648  21.326  0.00  0.00    +0.000 C 
BRANCH  15  16
ATOM     16  N   UNL     1      -5.029  14.310  21.832  0.00  0.00    +0.000 NA
ATOM     17  H   UNL     1      -5.176  15.321  21.855  0.00  0.00    +0.000 HD
BRANCH  16  18
ATOM     18  C   UNL     1      -4.704  13.884  23.196  0.00  0.00    +0.000 C 
BRANCH  18  19
ATOM     19  C   UNL     1      -3.308  13.375  23.203  0.00  0.00    +0.000 A 
ATOM     20  C   UNL     1      -2.766  12.106  23.183  0.00  0.00    +0.000 A 
ATOM     21  C   UNL     1      -1.367  12.273  23.081  0.00  0.00    +0.000 A 
ATOM     22  C   UNL     1      -1.142  13.631  23.062  0.00  0.00    +0.000 A 
ATOM     23  O   UNL     1      -2.315  14.309  23.141  0.00  0.00    +0.000 OA
ENDBRANCH  18  19
ENDBRANCH  16  18
ENDBRANCH  15  16
ENDBRANCH  14  15
ENDBRANCH  13  14
ENDBRANCH  11  13
ENDBRANCH   5  11
BRANCH   1  24
ATOM     24  O   UNL     1       1.910   9.195  18.767  0.00  0.00    +0.000 OA
BRANCH  24  28
ATOM     25  C   UNL     1       2.241   5.055  19.618  0.00  0.00    +0.000 A 
ATOM     26  C   UNL     1       1.869   5.963  20.621  0.00  0.00    +0.000 A 
ATOM     27  C   UNL     1       1.744   7.335  20.365  0.00  0.00    +0.000 A 
ATOM     28  C   UNL     1       2.037   7.859  19.106  0.00  0.00    +0.000 A 
ATOM     29  C   UNL     1       2.435   6.977  18.100  0.00  0.00    +0.000 A 
ATOM     30  C   UNL     1       2.539   5.597  18.352  0.00  0.00    +0.000 A 
BRANCH  25  32
ATOM     31  C   UNL     1       3.520   2.837  19.298  0.00  0.00    +0.000 C 
ATOM     32  C   UNL     1       2.258   3.532  19.863  0.00  0.00    +0.000 C 
ATOM     33  C   UNL     1       1.036   2.847  19.217  0.00  0.00    +0.000 C 
ATOM     34  C   UNL     1       2.238   3.258  21.384  0.00  0.00    +0.000 C 
ENDBRANCH  25  32
ENDBRANCH  24  28
ENDBRANCH   1  24
TORSDOF 10
ENDMDL
MODEL 3
REMARK VINA RESULT:      -7.5      1.189      1.426
REMARK  Name = 
REMARK  13 active torsions:
REMARK  status: ('A' for Active; 'I' for Inactive)
REMARK    1  A    between atoms: C_1  and  C_2
REMARK    2  A    between atoms: C_2  and  C_3
REMARK    3  A    between atoms: C_2  and  C_4
REMARK    4  A    between atoms: C_2  and  C_5
REMARK    5  A    between atoms: C_8  and  O_9
REMARK    6  A    between atoms: O_9  and  C_10
REMARK    7  A    between atoms: C_14  and  N_15
REMARK    8  A    between atoms: N_15  and  C_16
REMARK    9  A    between atoms: C_16  and  C_17
REMARK   10  A    between atoms: C_17  and  C_18
REMARK   11  A    between atoms: C_18  and  N_19
REMARK   12  A    between atoms: N_19  and  C_20
REMARK   13  A    between atoms: C_20  and  C_21
REMARK                            x       y       z     vdW  Elec       q    Type
REMARK                         _______ _______ _______ _____ _____    ______ ____
ROOT
ATOM      1  C   UNL     1       0.229  11.083  20.105  0.00  0.00    +0.000 A 
ATOM      2  C   UNL     1       0.189  10.201  21.182  0.00  0.00    +0.000 A 
ATOM      3  C   UNL     1       0.845   8.964  21.090  0.00  0.00    +0.000 A 
ATOM      4  C   UNL     1       1.532   8.582  19.904  0.00  0.00    +0.000 A 
ATOM      5  C   UNL     1       2.161   7.324  19.658  0.00  0.00    +0.000 A 
ATOM      6  C   UNL     1       2.577   7.052  18.348  0.00  0.00    +0.000 A 
ATOM      7  C   UNL     1       2.614   8.068  17.422  0.00  0.00    +0.000 A 
ATOM      8  N   UNL     1       2.169   9.303  17.667  0.00  0.00    +0.000 NA
ATOM      9  C   UNL     1       1.593   9.534  18.852  0.00  0.00    +0.000 A 
ATOM     10  C   UNL     1       0.998  10.768  18.989  0.00  0.00    +0.000 A 
ENDROOT
BRANCH   5  11
ATOM     11  N   UNL     1       2.301   6.309  20.659  0.00  0.00    +0.000 N 
ATOM     12  H   UNL     1       3.221   5.878  20.605  0.00  0.00    +0.000 HD
BRANCH  11  13
ATOM     13  C   UNL     1       1.226   5.302  20.564  0.00  0.00    +0.000 C 
BRANCH  13  14
ATOM     14  C   UNL     1       1.605   4.070  19.756  0.00  0.00    +0.000 C 
BRANCH  14  15
ATOM     15  C   UNL     1       2.908   3.492  20.333  0.00  0.00    +0.000 C 
BRANCH  15  16
ATOM     16  N   UNL     1       4.052   4.027  19.612  0.00  0.00    +0.000 NA
ATOM     17  H   UNL     1       4.918   3.659  20.012  0.00  0.00    +0.000 HD
BRANCH  16  18
ATOM     18  C   UNL     1       4.030   3.655  18.195  0.00  0.00    +0.000 C 
BRANCH  18  19
ATOM     19  C   UNL     1       5.323   4.061  17.587  0.00  0.00    +0.000 A 
ATOM     20  C   UNL     1       5.695   4.406  16.304  0.00  0.00    +0.000 A 
ATOM     21  C   UNL     1       7.046   4.814  16.378  0.00  0.00    +0.000 A 
ATOM     22  C   UNL     1       7.417   4.676  17.696  0.00  0.00    +0.000 A 
ATOM     23  O   UNL     1       6.378   4.214  18.438  0.00  0.00    +0.000 OA
ENDBRANCH  18  19
ENDBRANCH  16  18
ENDBRANCH  15  16
ENDBRANCH  14  15
ENDBRANCH  13  14
ENDBRANCH  11  13
ENDBRANCH   5  11
BRANCH   1  24
ATOM     24  O   UNL     1      -0.491  12.258  20.177  0.00  0.00    +0.000 OA
BRANCH  24  28
ATOM     25  C   UNL     1      -4.646  12.141  19.343  0.00  0.00    +0.000 A 
ATOM     26  C   UNL     1      -3.723  11.554  18.463  0.00  0.00    +0.000 A 
ATOM     27  C   UNL     1      -2.345  11.571  18.719  0.00  0.00    +0.000 A 
ATOM     28  C   UNL     1      -1.832  12.223  19.841  0.00  0.00    +0.000 A 
ATOM     29  C   UNL     1      -2.731  12.836  20.716  0.00  0.00    +0.000 A 
ATOM     30  C   UNL     1      -4.115  12.800  20.470  0.00  0.00    +0.000 A 
BRANCH  25  32
ATOM     31  C   UNL     1      -6.589  10.654  18.526  0.00  0.00    +0.000 C 
ATOM     32  C   UNL     1      -6.168  12.016  19.130  0.00  0.00    +0.000 C 
ATOM     33  C   UNL     1      -6.694  13.114  18.183  0.00  0.00    +0.000 C 
ATOM     34  C   UNL     1      -6.888  12.143  20.492  0.00  0.00    +0.000 C 
ENDBRANCH  25  32
ENDBRANCH  24  28
ENDBRANCH   1  24
TORSDOF 10
ENDMDL
MODEL 4
REMARK VINA RESULT:      -7.5      1.437      2.847
REMARK  Name = 
REMARK  13 active torsions:
REMARK  status: ('A' for Active; 'I' for Inactive)
REMARK    1  A    between atoms: C_1  and  C_2
REMARK    2  A    between atoms: C_2  and  C_3
REMARK    3  A    between atoms: C_2  and  C_4
REMARK    4  A    between atoms: C_2  and  C_5
REMARK    5  A    between atoms: C_8  and  O_9
REMARK    6  A    between atoms: O_9  and  C_10
REMARK    7  A    between atoms: C_14  and  N_15
REMARK    8  A    between atoms: N_15  and  C_16
REMARK    9  A    between atoms: C_16  and  C_17
REMARK   10  A    between atoms: C_17  and  C_18
REMARK   11  A    between atoms: C_18  and  N_19
REMARK   12  A    between atoms: N_19  and  C_20
REMARK   13  A    between atoms: C_20  and  C_21
REMARK                            x       y       z     vdW  Elec       q    Type
REMARK                         _______ _______ _______ _____ _____    ______ ____
ROOT
ATOM      1  C   UNL     1       0.394  10.700  19.291  0.00  0.00    +0.000 A 
ATOM      2  C   UNL     1       1.183  10.620  18.146  0.00  0.00    +0.000 A 
ATOM      3  C   UNL     1       1.938   9.461  17.903  0.00  0.00    +0.000 A 
ATOM      4  C   UNL     1       1.932   8.374  18.820  0.00  0.00    +0.000 A 
ATOM      5  C   UNL     1       2.719   7.186  18.728  0.00  0.00    +0.000 A 
ATOM      6  C   UNL     1       2.751   6.342  19.847  0.00  0.00    +0.000 A 
ATOM      7  C   UNL     1       1.848   6.530  20.867  0.00  0.00    +0.000 A 
ATOM      8  N   UNL     1       0.991   7.553  20.911  0.00  0.00    +0.000 NA
ATOM      9  C   UNL     1       1.073   8.476  19.946  0.00  0.00    +0.000 A 
ATOM     10  C   UNL     1       0.291   9.595  20.131  0.00  0.00    +0.000 A 
ENDROOT
BRANCH   5  11
ATOM     11  N   UNL     1       3.534   6.872  17.594  0.00  0.00    +0.000 N 
ATOM     12  H   UNL     1       2.963   6.524  16.828  0.00  0.00    +0.000 HD
BRANCH  11  13
ATOM     13  C   UNL     1       4.606   5.918  17.944  0.00  0.00    +0.000 C 
BRANCH  13  14
ATOM     14  C   UNL     1       5.253   5.248  16.742  0.00  0.00    +0.000 C 
BRANCH  14  15
ATOM     15  C   UNL     1       4.747   3.797  16.663  0.00  0.00    +0.000 C 
BRANCH  15  16
ATOM     16  N   UNL     1       4.533   3.271  18.001  0.00  0.00    +0.000 NA
ATOM     17  H   UNL     1       4.344   4.038  18.650  0.00  0.00    +0.000 HD
BRANCH  16  18
ATOM     18  C   UNL     1       3.387   2.359  18.054  0.00  0.00    +0.000 C 
BRANCH  18  19
ATOM     19  C   UNL     1       2.641   2.622  19.312  0.00  0.00    +0.000 A 
ATOM     20  C   UNL     1       1.299   2.759  19.602  0.00  0.00    +0.000 A 
ATOM     21  C   UNL     1       1.207   2.878  21.007  0.00  0.00    +0.000 A 
ATOM     22  C   UNL     1       2.496   2.821  21.484  0.00  0.00    +0.000 A 
ATOM     23  O   UNL     1       3.376   2.670  20.461  0.00  0.00    +0.000 OA
ENDBRANCH  18  19
ENDBRANCH  16  18
ENDBRANCH  15  16
ENDBRANCH  14  15
ENDBRANCH  13  14
ENDBRANCH  11  13
ENDBRANCH   5  11
BRANCH   1  24
ATOM     24  O   UNL     1      -0.275  11.875  19.560  0.00  0.00    +0.000 OA
BRANCH  24  28
ATOM     25  C   UNL     1      -4.454  12.035  18.862  0.00  0.00    +0.000 A 
ATOM     26  C   UNL     1      -3.584  11.528  17.883  0.00  0.00    +0.000 A 
ATOM     27  C   UNL     1      -2.200  11.456  18.092  0.00  0.00    +0.000 A 
ATOM     28  C   UNL     1      -1.626  11.938  19.268  0.00  0.00    +0.000 A 
ATOM     29  C   UNL     1      -2.470  12.471  20.245  0.00  0.00    +0.000 A 
ATOM     30  C   UNL     1      -3.861  12.522  20.044  0.00  0.00    +0.000 A 
BRANCH  25  32
ATOM     31  C   UNL     1      -6.564  10.564  18.661  0.00  0.00    +0.000 C 
ATOM     32  C   UNL     1      -5.986  12.000  18.687  0.00  0.00    +0.000 C 
ATOM     33  C   UNL     1      -6.416  12.686  17.374  0.00  0.00    +0.000 C 
ATOM     34  C   UNL     1      -6.654  12.731  19.875  0.00  0.00    +0.000 C 
ENDBRANCH  25  32
ENDBRANCH  24  28
ENDBRANCH   1  24
TORSDOF 10
ENDMDL
MODEL 5
REMARK VINA RESULT:      -7.5      0.938      1.424
REMARK  Name = 
REMARK  13 active torsions:
REMARK  status: ('A' for Active; 'I' for Inactive)
REMARK    1  A    between atoms: C_1  and  C_2
REMARK    2  A    between atoms: C_2  and  C_3
REMARK    3  A    between atoms: C_2  and  C_4
REMARK    4  A    between atoms: C_2  and  C_5
REMARK    5  A    between atoms: C_8  and  O_9
REMARK    6  A    between atoms: O_9  and  C_10
REMARK    7  A    between atoms: C_14  and  N_15
REMARK    8  A    between atoms: N_15  and  C_16
REMARK    9  A    between atoms: C_16  and  C_17
REMARK   10  A    between atoms: C_17  and  C_18
REMARK   11  A    between atoms: C_18  and  N_19
REMARK   12  A    between atoms: N_19  and  C_20
REMARK   13  A    between atoms: C_20  and  C_21
REMARK                            x       y       z     vdW  Elec       q    Type
REMARK                         _______ _______ _______ _____ _____    ______ ____
ROOT
ATOM      1  C   UNL     1      -0.133  11.313  19.749  0.00  0.00    +0.000 A 
ATOM      2  C   UNL     1      -0.285  10.496  20.866  0.00  0.00    +0.000 A 
ATOM      3  C   UNL     1       0.408   9.278  20.934  0.00  0.00    +0.000 A 
ATOM      4  C   UNL     1       1.247   8.848  19.868  0.00  0.00    +0.000 A 
ATOM      5  C   UNL     1       1.932   7.599  19.782  0.00  0.00    +0.000 A 
ATOM      6  C   UNL     1       2.515   7.262  18.552  0.00  0.00    +0.000 A 
ATOM      7  C   UNL     1       2.642   8.221  17.576  0.00  0.00    +0.000 A 
ATOM      8  N   UNL     1       2.140   9.455  17.685  0.00  0.00    +0.000 NA
ATOM      9  C   UNL     1       1.415   9.736  18.774  0.00  0.00    +0.000 A 
ATOM     10  C   UNL     1       0.777  10.957  18.758  0.00  0.00    +0.000 A 
ENDROOT
BRANCH   5  11
ATOM     11  N   UNL     1       1.971   6.650  20.855  0.00  0.00    +0.000 N 
ATOM     12  H   UNL     1       2.464   7.037  21.656  0.00  0.00    +0.000 HD
BRANCH  11  13
ATOM     13  C   UNL     1       2.564   5.369  20.424  0.00  0.00    +0.000 C 
BRANCH  13  14
ATOM     14  C   UNL     1       1.859   4.143  20.985  0.00  0.00    +0.000 C 
BRANCH  14  15
ATOM     15  C   UNL     1       2.437   2.893  20.300  0.00  0.00    +0.000 C 
BRANCH  15  16
ATOM     16  N   UNL     1       3.152   3.273  19.092  0.00  0.00    +0.000 NA
ATOM     17  H   UNL     1       2.910   4.230  18.831  0.00  0.00    +0.000 HD
BRANCH  16  18
ATOM     18  C   UNL     1       4.604   3.222  19.277  0.00  0.00    +0.000 C 
BRANCH  18  19
ATOM     19  C   UNL     1       5.236   4.077  18.239  0.00  0.00    +0.000 A 
ATOM     20  C   UNL     1       4.745   4.729  17.127  0.00  0.00    +0.000 A 
ATOM     21  C   UNL     1       5.818   5.485  16.603  0.00  0.00    +0.000 A 
ATOM     22  C   UNL     1       6.898   5.235  17.418  0.00  0.00    +0.000 A 
ATOM     23  O   UNL     1       6.556   4.376  18.413  0.00  0.00    +0.000 OA
ENDBRANCH  18  19
ENDBRANCH  16  18
ENDBRANCH  15  16
ENDBRANCH  14  15
ENDBRANCH  13  14
ENDBRANCH  11  13
ENDBRANCH   5  11
BRANCH   1  24
ATOM     24  O   UNL     1      -0.885  12.466  19.657  0.00  0.00    +0.000 OA
BRANCH  24  28
ATOM     25  C   UNL     1      -5.069  12.072  19.100  0.00  0.00    +0.000 A 
ATOM     26  C   UNL     1      -4.170  11.572  18.144  0.00  0.00    +0.000 A 
ATOM     27  C   UNL     1      -2.783  11.682  18.308  0.00  0.00    +0.000 A 
ATOM     28  C   UNL     1      -2.241  12.343  19.410  0.00  0.00    +0.000 A 
ATOM     29  C   UNL     1      -3.118  12.870  20.361  0.00  0.00    +0.000 A 
ATOM     30  C   UNL     1      -4.509  12.740  20.207  0.00  0.00    +0.000 A 
BRANCH  25  32
ATOM     31  C   UNL     1      -7.217  12.516  17.741  0.00  0.00    +0.000 C 
ATOM     32  C   UNL     1      -6.590  11.842  18.986  0.00  0.00    +0.000 C 
ATOM     33  C   UNL     1      -7.334  12.391  20.221  0.00  0.00    +0.000 C 
ATOM     34  C   UNL     1      -6.872  10.327  18.865  0.00  0.00    +0.000 C 
ENDBRANCH  25  32
ENDBRANCH  24  28
ENDBRANCH   1  24
TORSDOF 10
ENDMDL
MODEL 6
REMARK VINA RESULT:      -7.5      0.906      1.504
REMARK  Name = 
REMARK  13 active torsions:
REMARK  status: ('A' for Active; 'I' for Inactive)
REMARK    1  A    between atoms: C_1  and  C_2
REMARK    2  A    between atoms: C_2  and  C_3
REMARK    3  A    between atoms: C_2  and  C_4
REMARK    4  A    between atoms: C_2  and  C_5
REMARK    5  A    between atoms: C_8  and  O_9
REMARK    6  A    between atoms: O_9  and  C_10
REMARK    7  A    between atoms: C_14  and  N_15
REMARK    8  A    between atoms: N_15  and  C_16
REMARK    9  A    between atoms: C_16  and  C_17
REMARK   10  A    between atoms: C_17  and  C_18
REMARK   11  A    between atoms: C_18  and  N_19
REMARK   12  A    between atoms: N_19  and  C_20
REMARK   13  A    between atoms: C_20  and  C_21
REMARK                            x       y       z     vdW  Elec       q    Type
REMARK                         _______ _______ _______ _____ _____    ______ ____
ROOT
ATOM      1  C   UNL     1       0.427  10.716  20.153  0.00  0.00    +0.000 A 
ATOM      2  C   UNL     1       0.345   9.803  21.202  0.00  0.00    +0.000 A 
ATOM      3  C   UNL     1       0.954   8.545  21.075  0.00  0.00    +0.000 A 
ATOM      4  C   UNL     1       1.634   8.174  19.882  0.00  0.00    +0.000 A 
ATOM      5  C   UNL     1       2.215   6.900  19.601  0.00  0.00    +0.000 A 
ATOM      6  C   UNL     1       2.629   6.653  18.285  0.00  0.00    +0.000 A 
ATOM      7  C   UNL     1       2.712   7.695  17.391  0.00  0.00    +0.000 A 
ATOM      8  N   UNL     1       2.314   8.938  17.672  0.00  0.00    +0.000 NA
ATOM      9  C   UNL     1       1.739   9.154  18.860  0.00  0.00    +0.000 A 
ATOM     10  C   UNL     1       1.191  10.406  19.032  0.00  0.00    +0.000 A 
ENDROOT
BRANCH   5  11
ATOM     11  N   UNL     1       2.309   5.850  20.570  0.00  0.00    +0.000 N 
ATOM     12  H   UNL     1       3.178   5.334  20.456  0.00  0.00    +0.000 HD
BRANCH  11  13
ATOM     13  C   UNL     1       1.137   4.954  20.513  0.00  0.00    +0.000 C 
BRANCH  13  14
ATOM     14  C   UNL     1       1.492   3.483  20.359  0.00  0.00    +0.000 C 
BRANCH  14  15
ATOM     15  C   UNL     1       1.214   3.065  18.904  0.00  0.00    +0.000 C 
BRANCH  15  16
ATOM     16  N   UNL     1       2.129   2.009  18.506  0.00  0.00    +0.000 NA
ATOM     17  H   UNL     1       2.323   2.074  17.505  0.00  0.00    +0.000 HD
BRANCH  16  18
ATOM     18  C   UNL     1       3.412   2.101  19.208  0.00  0.00    +0.000 C 
BRANCH  18  19
ATOM     19  C   UNL     1       4.237   3.139  18.536  0.00  0.00    +0.000 A 
ATOM     20  C   UNL     1       5.148   4.065  18.998  0.00  0.00    +0.000 A 
ATOM     21  C   UNL     1       5.693   4.692  17.854  0.00  0.00    +0.000 A 
ATOM     22  C   UNL     1       5.069   4.120  16.769  0.00  0.00    +0.000 A 
ATOM     23  O   UNL     1       4.179   3.178  17.173  0.00  0.00    +0.000 OA
ENDBRANCH  18  19
ENDBRANCH  16  18
ENDBRANCH  15  16
ENDBRANCH  14  15
ENDBRANCH  13  14
ENDBRANCH  11  13
ENDBRANCH   5  11
BRANCH   1  24
ATOM     24  O   UNL     1      -0.248  11.915  20.258  0.00  0.00    +0.000 OA
BRANCH  24  28
ATOM     25  C   UNL     1      -4.316  11.998  19.066  0.00  0.00    +0.000 A 
ATOM     26  C   UNL     1      -3.917  12.564  20.288  0.00  0.00    +0.000 A 
ATOM     27  C   UNL     1      -2.578  12.557  20.702  0.00  0.00    +0.000 A 
ATOM     28  C   UNL     1      -1.593  11.938  19.933  0.00  0.00    +0.000 A 
ATOM     29  C   UNL     1      -1.972  11.345  18.726  0.00  0.00    +0.000 A 
ATOM     30  C   UNL     1      -3.312  11.372  18.301  0.00  0.00    +0.000 A 
BRANCH  25  32
ATOM     31  C   UNL     1      -6.573  13.234  19.248  0.00  0.00    +0.000 C 
ATOM     32  C   UNL     1      -5.764  12.114  18.550  0.00  0.00    +0.000 C 
ATOM     33  C   UNL     1      -6.540  10.797  18.759  0.00  0.00    +0.000 C 
ATOM     34  C   UNL     1      -5.745  12.448  17.041  0.00  0.00    +0.000 C 
ENDBRANCH  25  32
ENDBRANCH  24  28
ENDBRANCH   1  24
TORSDOF 10
ENDMDL
MODEL 7
REMARK VINA RESULT:      -7.5      0.774      1.462
REMARK  Name = 
REMARK  13 active torsions:
REMARK  status: ('A' for Active; 'I' for Inactive)
REMARK    1  A    between atoms: C_1  and  C_2
REMARK    2  A    between atoms: C_2  and  C_3
REMARK    3  A    between atoms: C_2  and  C_4
REMARK    4  A    between atoms: C_2  and  C_5
REMARK    5  A    between atoms: C_8  and  O_9
REMARK    6  A    between atoms: O_9  and  C_10
REMARK    7  A    between atoms: C_14  and  N_15
REMARK    8  A    between atoms: N_15  and  C_16
REMARK    9  A    between atoms: C_16  and  C_17
REMARK   10  A    between atoms: C_17  and  C_18
REMARK   11  A    between atoms: C_18  and  N_19
REMARK   12  A    between atoms: N_19  and  C_20
REMARK   13  A    between atoms: C_20  and  C_21
REMARK                            x       y       z     vdW  Elec       q    Type
REMARK                         _______ _______ _______ _____ _____    ______ ____
ROOT
ATOM      1  C   UNL     1      -0.080  11.314  19.729  0.00  0.00    +0.000 A 
ATOM      2  C   UNL     1      -0.200  10.515  20.864  0.00  0.00    +0.000 A 
ATOM      3  C   UNL     1       0.493   9.296  20.929  0.00  0.00    +0.000 A 
ATOM      4  C   UNL     1       1.298   8.848  19.846  0.00  0.00    +0.000 A 
ATOM      5  C   UNL     1       1.978   7.595  19.759  0.00  0.00    +0.000 A 
ATOM      6  C   UNL     1       2.522   7.238  18.517  0.00  0.00    +0.000 A 
ATOM      7  C   UNL     1       2.622   8.182  17.522  0.00  0.00    +0.000 A 
ATOM      8  N   UNL     1       2.126   9.418  17.628  0.00  0.00    +0.000 NA
ATOM      9  C   UNL     1       1.435   9.718  18.733  0.00  0.00    +0.000 A 
ATOM     10  C   UNL     1       0.799  10.940  18.717  0.00  0.00    +0.000 A 
ENDROOT
BRANCH   5  11
ATOM     11  N   UNL     1       2.047   6.664  20.844  0.00  0.00    +0.000 N 
ATOM     12  H   UNL     1       2.490   7.091  21.655  0.00  0.00    +0.000 HD
BRANCH  11  13
ATOM     13  C   UNL     1       2.736   5.419  20.447  0.00  0.00    +0.000 C 
BRANCH  13  14
ATOM     14  C   UNL     1       2.285   4.191  21.222  0.00  0.00    +0.000 C 
BRANCH  14  15
ATOM     15  C   UNL     1       0.946   3.710  20.636  0.00  0.00    +0.000 C 
BRANCH  15  16
ATOM     16  N   UNL     1       1.080   2.350  20.139  0.00  0.00    +0.000 NA
ATOM     17  H   UNL     1       0.338   1.764  20.525  0.00  0.00    +0.000 HD
BRANCH  16  18
ATOM     18  C   UNL     1       0.974   2.288  18.679  0.00  0.00    +0.000 C 
BRANCH  18  19
ATOM     19  C   UNL     1       2.252   2.773  18.097  0.00  0.00    +0.000 A 
ATOM     20  C   UNL     1       3.556   2.332  18.187  0.00  0.00    +0.000 A 
ATOM     21  C   UNL     1       4.310   3.141  17.307  0.00  0.00    +0.000 A 
ATOM     22  C   UNL     1       3.423   4.033  16.750  0.00  0.00    +0.000 A 
ATOM     23  O   UNL     1       2.170   3.821  17.228  0.00  0.00    +0.000 OA
ENDBRANCH  18  19
ENDBRANCH  16  18
ENDBRANCH  15  16
ENDBRANCH  14  15
ENDBRANCH  13  14
ENDBRANCH  11  13
ENDBRANCH   5  11
BRANCH   1  24
ATOM     24  O   UNL     1      -0.832  12.467  19.643  0.00  0.00    +0.000 OA
BRANCH  24  28
ATOM     25  C   UNL     1      -5.021  12.093  19.107  0.00  0.00    +0.000 A 
ATOM     26  C   UNL     1      -4.500  12.777  20.217  0.00  0.00    +0.000 A 
ATOM     27  C   UNL     1      -3.120  12.923  20.413  0.00  0.00    +0.000 A 
ATOM     28  C   UNL     1      -2.206  12.343  19.533  0.00  0.00    +0.000 A 
ATOM     29  C   UNL     1      -2.702  11.635  18.437  0.00  0.00    +0.000 A 
ATOM     30  C   UNL     1      -4.087  11.509  18.228  0.00  0.00    +0.000 A 
BRANCH  25  32
ATOM     31  C   UNL     1      -6.934  12.756  17.508  0.00  0.00    +0.000 C 
ATOM     32  C   UNL     1      -6.535  12.038  18.820  0.00  0.00    +0.000 C 
ATOM     33  C   UNL     1      -7.345  12.692  19.959  0.00  0.00    +0.000 C 
ATOM     34  C   UNL     1      -6.977  10.564  18.677  0.00  0.00    +0.000 C 
ENDBRANCH  25  32
ENDBRANCH  24  28
ENDBRANCH   1  24
TORSDOF 10
ENDMDL
MODEL 8
REMARK VINA RESULT:      -7.4      2.952      4.305
REMARK  Name = 
REMARK  13 active torsions:
REMARK  status: ('A' for Active; 'I' for Inactive)
REMARK    1  A    between atoms: C_1  and  C_2
REMARK    2  A    between atoms: C_2  and  C_3
REMARK    3  A    between atoms: C_2  and  C_4
REMARK    4  A    between atoms: C_2  and  C_5
REMARK    5  A    between atoms: C_8  and  O_9
REMARK    6  A    between atoms: O_9  and  C_10
REMARK    7  A    between atoms: C_14  and  N_15
REMARK    8  A    between atoms: N_15  and  C_16
REMARK    9  A    between atoms: C_16  and  C_17
REMARK   10  A    between atoms: C_17  and  C_18
REMARK   11  A    between atoms: C_18  and  N_19
REMARK   12  A    between atoms: N_19  and  C_20
REMARK   13  A    between atoms: C_20  and  C_21
REMARK                            x       y       z     vdW  Elec       q    Type
REMARK                         _______ _______ _______ _____ _____    ______ ____
ROOT
ATOM      1  C   UNL     1       0.281  10.439  20.621  0.00  0.00    +0.000 A 
ATOM      2  C   UNL     1       0.313   9.466  21.617  0.00  0.00    +0.000 A 
ATOM      3  C   UNL     1       0.996   8.261  21.388  0.00  0.00    +0.000 A 
ATOM      4  C   UNL     1       1.636   8.004  20.144  0.00  0.00    +0.000 A 
ATOM      5  C   UNL     1       2.283   6.790  19.762  0.00  0.00    +0.000 A 
ATOM      6  C   UNL     1       2.644   6.645  18.415  0.00  0.00    +0.000 A 
ATOM      7  C   UNL     1       2.612   7.737  17.581  0.00  0.00    +0.000 A 
ATOM      8  N   UNL     1       2.149   8.934  17.953  0.00  0.00    +0.000 NA
ATOM      9  C   UNL     1       1.624   9.044  19.178  0.00  0.00    +0.000 A 
ATOM     10  C   UNL     1       1.004  10.244  19.449  0.00  0.00    +0.000 A 
ENDROOT
BRANCH   5  11
ATOM     11  N   UNL     1       2.496   5.697  20.662  0.00  0.00    +0.000 N 
ATOM     12  H   UNL     1       3.392   5.253  20.481  0.00  0.00    +0.000 HD
BRANCH  11  13
ATOM     13  C   UNL     1       1.388   4.723  20.602  0.00  0.00    +0.000 C 
BRANCH  13  14
ATOM     14  C   UNL     1       1.704   3.388  21.260  0.00  0.00    +0.000 C 
BRANCH  14  15
ATOM     15  C   UNL     1       1.834   2.322  20.159  0.00  0.00    +0.000 C 
BRANCH  15  16
ATOM     16  N   UNL     1       1.841   2.955  18.851  0.00  0.00    +0.000 NA
ATOM     17  H   UNL     1       2.031   3.954  18.949  0.00  0.00    +0.000 HD
BRANCH  16  18
ATOM     18  C   UNL     1       2.875   2.395  17.976  0.00  0.00    +0.000 C 
BRANCH  18  19
ATOM     19  C   UNL     1       4.030   3.329  17.964  0.00  0.00    +0.000 A 
ATOM     20  C   UNL     1       4.935   3.723  18.928  0.00  0.00    +0.000 A 
ATOM     21  C   UNL     1       5.880   4.546  18.274  0.00  0.00    +0.000 A 
ATOM     22  C   UNL     1       5.483   4.614  16.958  0.00  0.00    +0.000 A 
ATOM     23  O   UNL     1       4.357   3.882  16.760  0.00  0.00    +0.000 OA
ENDBRANCH  18  19
ENDBRANCH  16  18
ENDBRANCH  15  16
ENDBRANCH  14  15
ENDBRANCH  13  14
ENDBRANCH  11  13
ENDBRANCH   5  11
BRANCH   1  24
ATOM     24  O   UNL     1      -0.464  11.582  20.828  0.00  0.00    +0.000 OA
BRANCH  24  28
ATOM     25  C   UNL     1       0.964  15.264  19.286  0.00  0.00    +0.000 A 
ATOM     26  C   UNL     1      -0.132  14.617  18.692  0.00  0.00    +0.000 A 
ATOM     27  C   UNL     1      -0.629  13.404  19.187  0.00  0.00    +0.000 A 
ATOM     28  C   UNL     1      -0.015  12.764  20.264  0.00  0.00    +0.000 A 
ATOM     29  C   UNL     1       1.093  13.376  20.853  0.00  0.00    +0.000 A 
ATOM     30  C   UNL     1       1.577  14.605  20.370  0.00  0.00    +0.000 A 
BRANCH  25  32
ATOM     31  C   UNL     1       1.842  17.584  19.995  0.00  0.00    +0.000 C 
ATOM     32  C   UNL     1       1.435  16.658  18.824  0.00  0.00    +0.000 C 
ATOM     33  C   UNL     1       0.331  17.388  18.031  0.00  0.00    +0.000 C 
ATOM     34  C   UNL     1       2.680  16.505  17.921  0.00  0.00    +0.000 C 
ENDBRANCH  25  32
ENDBRANCH  24  28
ENDBRANCH   1  24
TORSDOF 10
ENDMDL
MODEL 9
REMARK VINA RESULT:      -7.4      1.496      2.336
REMARK  Name = 
REMARK  13 active torsions:
REMARK  status: ('A' for Active; 'I' for Inactive)
REMARK    1  A    between atoms: C_1  and  C_2
REMARK    2  A    between atoms: C_2  and  C_3
REMARK    3  A    between atoms: C_2  and  C_4
REMARK    4  A    between atoms: C_2  and  C_5
REMARK    5  A    between atoms: C_8  and  O_9
REMARK    6  A    between atoms: O_9  and  C_10
REMARK    7  A    between atoms: C_14  and  N_15
REMARK    8  A    between atoms: N_15  and  C_16
REMARK    9  A    between atoms: C_16  and  C_17
REMARK   10  A    between atoms: C_17  and  C_18
REMARK   11  A    between atoms: C_18  and  N_19
REMARK   12  A    between atoms: N_19  and  C_20
REMARK   13  A    between atoms: C_20  and  C_21
REMARK                            x       y       z     vdW  Elec       q    Type
REMARK                         _______ _______ _______ _____ _____    ______ ____
ROOT
ATOM      1  C   UNL     1      -0.227  11.266  19.533  0.00  0.00    +0.000 A 
ATOM      2  C   UNL     1      -0.430  10.488  20.671  0.00  0.00    +0.000 A 
ATOM      3  C   UNL     1       0.284   9.290  20.827  0.00  0.00    +0.000 A 
ATOM      4  C   UNL     1       1.195   8.840  19.831  0.00  0.00    +0.000 A 
ATOM      5  C   UNL     1       1.910   7.605  19.835  0.00  0.00    +0.000 A 
ATOM      6  C   UNL     1       2.574   7.236  18.657  0.00  0.00    +0.000 A 
ATOM      7  C   UNL     1       2.739   8.160  17.653  0.00  0.00    +0.000 A 
ATOM      8  N   UNL     1       2.206   9.384  17.684  0.00  0.00    +0.000 NA
ATOM      9  C   UNL     1       1.410   9.690  18.715  0.00  0.00    +0.000 A 
ATOM     10  C   UNL     1       0.749  10.894  18.613  0.00  0.00    +0.000 A 
ENDROOT
BRANCH   5  11
ATOM     11  N   UNL     1       1.904   6.699  20.945  0.00  0.00    +0.000 N 
ATOM     12  H   UNL     1       2.514   7.037  21.686  0.00  0.00    +0.000 HD
BRANCH  11  13
ATOM     13  C   UNL     1       2.268   5.330  20.528  0.00  0.00    +0.000 C 
BRANCH  13  14
ATOM     14  C   UNL     1       1.085   4.378  20.435  0.00  0.00    +0.000 C 
BRANCH  14  15
ATOM     15  C   UNL     1       1.617   2.935  20.481  0.00  0.00    +0.000 C 
BRANCH  15  16
ATOM     16  N   UNL     1       1.579   2.348  19.152  0.00  0.00    +0.000 NA
ATOM     17  H   UNL     1       1.330   3.061  18.463  0.00  0.00    +0.000 HD
BRANCH  16  18
ATOM     18  C   UNL     1       2.878   1.795  18.760  0.00  0.00    +0.000 C 
BRANCH  18  19
ATOM     19  C   UNL     1       3.719   2.905  18.241  0.00  0.00    +0.000 A 
ATOM     20  C   UNL     1       3.631   3.713  17.127  0.00  0.00    +0.000 A 
ATOM     21  C   UNL     1       4.667   4.668  17.246  0.00  0.00    +0.000 A 
ATOM     22  C   UNL     1       5.329   4.372  18.415  0.00  0.00    +0.000 A 
ATOM     23  O   UNL     1       4.764   3.299  19.025  0.00  0.00    +0.000 OA
ENDBRANCH  18  19
ENDBRANCH  16  18
ENDBRANCH  15  16
ENDBRANCH  14  15
ENDBRANCH  13  14
ENDBRANCH  11  13
ENDBRANCH   5  11
BRANCH   1  24
ATOM     24  O   UNL     1      -0.996  12.397  19.352  0.00  0.00    +0.000 OA
BRANCH  24  28
ATOM     25  C   UNL     1      -3.907  13.161  22.338  0.00  0.00    +0.000 A 
ATOM     26  C   UNL     1      -4.292  12.746  21.054  0.00  0.00    +0.000 A 
ATOM     27  C   UNL     1      -3.350  12.478  20.051  0.00  0.00    +0.000 A 
ATOM     28  C   UNL     1      -1.987  12.667  20.279  0.00  0.00    +0.000 A 
ATOM     29  C   UNL     1      -1.583  13.105  21.542  0.00  0.00    +0.000 A 
ATOM     30  C   UNL     1      -2.527  13.351  22.555  0.00  0.00    +0.000 A 
BRANCH  25  32
ATOM     31  C   UNL     1      -5.067  14.800  23.958  0.00  0.00    +0.000 C 
ATOM     32  C   UNL     1      -4.930  13.335  23.479  0.00  0.00    +0.000 C 
ATOM     33  C   UNL     1      -4.544  12.490  24.711  0.00  0.00    +0.000 C 
ATOM     34  C   UNL     1      -6.326  12.891  22.987  0.00  0.00    +0.000 C 
ENDBRANCH  25  32
ENDBRANCH  24  28
ENDBRANCH   1  24
TORSDOF 10
ENDMDL
