MODEL 1
REMARK VINA RESULT:      -6.9      0.000      0.000
REMARK  Name = 
REMARK  7 active torsions:
REMARK  status: ('A' for Active; 'I' for Inactive)
REMARK    1  A    between atoms: C_1  and  N_2
REMARK    2  A    between atoms: C_6  and  S_7
REMARK    3  A    between atoms: S_7  and  C_8
REMARK    4  A    between atoms: C_8  and  C_9
REMARK    5  A    between atoms: N_11  and  N_12
REMARK    6  A    between atoms: C_13  and  C_14
REMARK    7  A    between atoms: C_19  and  O_20
REMARK                            x       y       z     vdW  Elec       q    Type
REMARK                         _______ _______ _______ _____ _____    ______ ____
ROOT
ATOM      1  C   UNL     1       5.087   5.423  18.356  0.00  0.00    +0.000 C 
ATOM      2  O   UNL     1       5.406   6.509  17.872  0.00  0.00    +0.000 OA
ATOM      3  N   UNL     1       5.381   4.185  17.798  0.00  0.00    +0.000 N 
ATOM      4  H   UNL     1       4.937   3.335  18.144  0.00  0.00    +0.000 HD
ENDROOT
BRANCH   3   5
ATOM      5  N   UNL     1       6.057   4.152  16.620  0.00  0.00    +0.000 NA
ATOM      6  C   UNL     1       5.359   4.237  15.532  0.00  0.00    +0.000 C 
BRANCH   6   7
ATOM      7  C   UNL     1       6.035   4.210  14.217  0.00  0.00    +0.000 A 
ATOM      8  C   UNL     1       5.493   3.429  13.185  0.00  0.00    +0.000 A 
ATOM      9  C   UNL     1       6.097   3.400  11.930  0.00  0.00    +0.000 A 
ATOM     10  C   UNL     1       7.245   4.154  11.696  0.00  0.00    +0.000 A 
ATOM     11  C   UNL     1       7.796   4.931  12.720  0.00  0.00    +0.000 A 
ATOM     12  C   UNL     1       7.189   4.958  13.979  0.00  0.00    +0.000 A 
BRANCH  12  13
ATOM     13  O   UNL     1       7.728   5.727  14.974  0.00  0.00    +0.000 OA
ATOM     14  H   UNL     1       7.370   6.628  14.904  0.00  0.00    +0.000 HD
ENDBRANCH  12  13
ENDBRANCH   6   7
ENDBRANCH   3   5
BRANCH   1  15
ATOM     15  C   UNL     1       4.303   5.343  19.650  0.00  0.00    +0.000 C 
BRANCH  15  16
ATOM     16  S   UNL     1       2.540   5.647  19.342  0.00  0.00    +0.000 S 
BRANCH  16  22
ATOM     17  C   UNL     1       1.263   3.154  21.029  0.00  0.00    +0.000 C 
ATOM     18  N   UNL     1       1.521   3.125  19.617  0.00  0.00    +0.000 N 
ATOM     19  N   UNL     1       1.236   2.033  18.885  0.00  0.00    +0.000 NA
ATOM     20  N   UNL     1       1.573   2.350  17.640  0.00  0.00    +0.000 NA
ATOM     21  N   UNL     1       2.070   3.629  17.571  0.00  0.00    +0.000 NA
ATOM     22  C   UNL     1       2.035   4.089  18.802  0.00  0.00    +0.000 A 
ENDBRANCH  16  22
ENDBRANCH  15  16
ENDBRANCH   1  15
TORSDOF 6
ENDMDL
MODEL 2
REMARK VINA RESULT:      -6.8      1.076      1.087
REMARK  Name = 
REMARK  7 active torsions:
REMARK  status: ('A' for Active; 'I' for Inactive)
REMARK    1  A    between atoms: C_1  and  N_2
REMARK    2  A    between atoms: C_6  and  S_7
REMARK    3  A    between atoms: S_7  and  C_8
REMARK    4  A    between atoms: C_8  and  C_9
REMARK    5  A    between atoms: N_11  and  N_12
REMARK    6  A    between atoms: C_13  and  C_14
REMARK    7  A    between atoms: C_19  and  O_20
REMARK                            x       y       z     vdW  Elec       q    Type
REMARK                         _______ _______ _______ _____ _____    ______ ____
ROOT
ATOM      1  C   UNL     1       5.349   4.733  18.620  0.00  0.00    +0.000 C 
ATOM      2  O   UNL     1       5.895   5.827  18.480  0.00  0.00    +0.000 OA
ATOM      3  N   UNL     1       5.416   3.686  17.709  0.00  0.00    +0.000 N 
ATOM      4  H   UNL     1       4.800   2.878  17.792  0.00  0.00    +0.000 HD
ENDROOT
BRANCH   3   5
ATOM      5  N   UNL     1       6.121   3.872  16.563  0.00  0.00    +0.000 NA
ATOM      6  C   UNL     1       5.451   3.928  15.456  0.00  0.00    +0.000 C 
BRANCH   6   7
ATOM      7  C   UNL     1       6.160   4.133  14.174  0.00  0.00    +0.000 A 
ATOM      8  C   UNL     1       5.754   3.405  13.045  0.00  0.00    +0.000 A 
ATOM      9  C   UNL     1       6.389   3.591  11.820  0.00  0.00    +0.000 A 
ATOM     10  C   UNL     1       7.433   4.507  11.712  0.00  0.00    +0.000 A 
ATOM     11  C   UNL     1       7.849   5.232  12.833  0.00  0.00    +0.000 A 
ATOM     12  C   UNL     1       7.211   5.044  14.063  0.00  0.00    +0.000 A 
BRANCH  12  13
ATOM     13  O   UNL     1       7.616   5.763  15.153  0.00  0.00    +0.000 OA
ATOM     14  H   UNL     1       7.710   5.160  15.910  0.00  0.00    +0.000 HD
ENDBRANCH  12  13
ENDBRANCH   6   7
ENDBRANCH   3   5
BRANCH   1  15
ATOM     15  C   UNL     1       4.510   4.429  19.845  0.00  0.00    +0.000 C 
BRANCH  15  16
ATOM     16  S   UNL     1       4.201   2.644  19.973  0.00  0.00    +0.000 S 
BRANCH  16  22
ATOM     17  C   UNL     1       1.362   2.695  21.596  0.00  0.00    +0.000 C 
ATOM     18  N   UNL     1       1.475   2.577  20.170  0.00  0.00    +0.000 N 
ATOM     19  N   UNL     1       0.379   2.484  19.395  0.00  0.00    +0.000 NA
ATOM     20  N   UNL     1       0.835   2.412  18.151  0.00  0.00    +0.000 NA
ATOM     21  N   UNL     1       2.209   2.457  18.123  0.00  0.00    +0.000 NA
ATOM     22  C   UNL     1       2.585   2.554  19.378  0.00  0.00    +0.000 A 
ENDBRANCH  16  22
ENDBRANCH  15  16
ENDBRANCH   1  15
TORSDOF 6
ENDMDL
MODEL 3
REMARK VINA RESULT:      -6.7      3.680      7.616
REMARK  Name = 
REMARK  7 active torsions:
REMARK  status: ('A' for Active; 'I' for Inactive)
REMARK    1  A    between atoms: C_1  and  N_2
REMARK    2  A    between atoms: C_6  and  S_7
REMARK    3  A    between atoms: S_7  and  C_8
REMARK    4  A    between atoms: C_8  and  C_9
REMARK    5  A    between atoms: N_11  and  N_12
REMARK    6  A    between atoms: C_13  and  C_14
REMARK    7  A    between atoms: C_19  and  O_20
REMARK                            x       y       z     vdW  Elec       q    Type
REMARK                         _______ _______ _______ _____ _____    ______ ____
ROOT
ATOM      1  C   UNL     1       5.808   5.063  18.316  0.00  0.00    +0.000 C 
ATOM      2  O   UNL     1       6.036   4.947  19.520  0.00  0.00    +0.000 OA
ATOM      3  N   UNL     1       4.750   5.779  17.771  0.00  0.00    +0.000 N 
ATOM      4  H   UNL     1       4.507   5.688  16.785  0.00  0.00    +0.000 HD
ENDROOT
BRANCH   3   5
ATOM      5  N   UNL     1       3.882   6.392  18.617  0.00  0.00    +0.000 NA
ATOM      6  C   UNL     1       3.131   7.325  18.123  0.00  0.00    +0.000 C 
BRANCH   6   7
ATOM      7  C   UNL     1       2.162   8.030  18.991  0.00  0.00    +0.000 A 
ATOM      8  C   UNL     1       1.881   7.511  20.264  0.00  0.00    +0.000 A 
ATOM      9  C   UNL     1       0.989   8.164  21.111  0.00  0.00    +0.000 A 
ATOM     10  C   UNL     1       0.372   9.342  20.693  0.00  0.00    +0.000 A 
ATOM     11  C   UNL     1       0.640   9.863  19.423  0.00  0.00    +0.000 A 
ATOM     12  C   UNL     1       1.536   9.206  18.574  0.00  0.00    +0.000 A 
BRANCH  12  13
ATOM     13  O   UNL     1       1.802   9.725  17.337  0.00  0.00    +0.000 OA
ATOM     14  H   UNL     1       1.210   9.309  16.688  0.00  0.00    +0.000 HD
ENDBRANCH  12  13
ENDBRANCH   6   7
ENDBRANCH   3   5
BRANCH   1  15
ATOM     15  C   UNL     1       6.693   4.393  17.284  0.00  0.00    +0.000 C 
BRANCH  15  16
ATOM     16  S   UNL     1       5.740   4.005  15.788  0.00  0.00    +0.000 S 
BRANCH  16  22
ATOM     17  C   UNL     1       5.857   3.350  12.587  0.00  0.00    +0.000 C 
ATOM     18  N   UNL     1       6.737   4.266  13.256  0.00  0.00    +0.000 N 
ATOM     19  N   UNL     1       7.688   4.932  12.577  0.00  0.00    +0.000 NA
ATOM     20  N   UNL     1       8.293   5.694  13.480  0.00  0.00    +0.000 NA
ATOM     21  N   UNL     1       7.741   5.520  14.727  0.00  0.00    +0.000 NA
ATOM     22  C   UNL     1       6.785   4.631  14.569  0.00  0.00    +0.000 A 
ENDBRANCH  16  22
ENDBRANCH  15  16
ENDBRANCH   1  15
TORSDOF 6
ENDMDL
MODEL 4
REMARK VINA RESULT:      -6.6      5.137      9.002
REMARK  Name = 
REMARK  7 active torsions:
REMARK  status: ('A' for Active; 'I' for Inactive)
REMARK    1  A    between atoms: C_1  and  N_2
REMARK    2  A    between atoms: C_6  and  S_7
REMARK    3  A    between atoms: S_7  and  C_8
REMARK    4  A    between atoms: C_8  and  C_9
REMARK    5  A    between atoms: N_11  and  N_12
REMARK    6  A    between atoms: C_13  and  C_14
REMARK    7  A    between atoms: C_19  and  O_20
REMARK                            x       y       z     vdW  Elec       q    Type
REMARK                         _______ _______ _______ _____ _____    ______ ____
ROOT
ATOM      1  C   UNL     1       2.590   6.394  19.650  0.00  0.00    +0.000 C 
ATOM      2  O   UNL     1       2.307   6.973  18.602  0.00  0.00    +0.000 OA
ATOM      3  N   UNL     1       1.995   6.640  20.882  0.00  0.00    +0.000 N 
ATOM      4  H   UNL     1       2.392   6.263  21.741  0.00  0.00    +0.000 HD
ENDROOT
BRANCH   3   5
ATOM      5  N   UNL     1       1.036   7.599  20.955  0.00  0.00    +0.000 NA
ATOM      6  C   UNL     1       1.342   8.698  21.568  0.00  0.00    +0.000 C 
BRANCH   6   7
ATOM      7  C   UNL     1       0.343   9.784  21.680  0.00  0.00    +0.000 A 
ATOM      8  C   UNL     1       0.009  10.525  20.536  0.00  0.00    +0.000 A 
ATOM      9  C   UNL     1      -0.943  11.540  20.606  0.00  0.00    +0.000 A 
ATOM     10  C   UNL     1      -1.568  11.821  21.819  0.00  0.00    +0.000 A 
ATOM     11  C   UNL     1      -1.237  11.092  22.966  0.00  0.00    +0.000 A 
ATOM     12  C   UNL     1      -0.281  10.074  22.894  0.00  0.00    +0.000 A 
BRANCH  12  13
ATOM     13  O   UNL     1       0.032   9.359  24.016  0.00  0.00    +0.000 OA
ATOM     14  H   UNL     1      -0.711   8.771  24.233  0.00  0.00    +0.000 HD
ENDBRANCH  12  13
ENDBRANCH   6   7
ENDBRANCH   3   5
BRANCH   1  15
ATOM     15  C   UNL     1       3.667   5.329  19.690  0.00  0.00    +0.000 C 
BRANCH  15  16
ATOM     16  S   UNL     1       3.914   4.616  18.038  0.00  0.00    +0.000 S 
BRANCH  16  22
ATOM     17  C   UNL     1       5.880   4.329  15.441  0.00  0.00    +0.000 C 
ATOM     18  N   UNL     1       6.343   4.455  16.795  0.00  0.00    +0.000 N 
ATOM     19  N   UNL     1       7.658   4.469  17.076  0.00  0.00    +0.000 NA
ATOM     20  N   UNL     1       7.731   4.618  18.394  0.00  0.00    +0.000 NA
ATOM     21  N   UNL     1       6.479   4.698  18.954  0.00  0.00    +0.000 NA
ATOM     22  C   UNL     1       5.635   4.591  17.952  0.00  0.00    +0.000 A 
ENDBRANCH  16  22
ENDBRANCH  15  16
ENDBRANCH   1  15
TORSDOF 6
ENDMDL
MODEL 5
REMARK VINA RESULT:      -6.6      5.550      6.972
REMARK  Name = 
REMARK  7 active torsions:
REMARK  status: ('A' for Active; 'I' for Inactive)
REMARK    1  A    between atoms: C_1  and  N_2
REMARK    2  A    between atoms: C_6  and  S_7
REMARK    3  A    between atoms: S_7  and  C_8
REMARK    4  A    between atoms: C_8  and  C_9
REMARK    5  A    between atoms: N_11  and  N_12
REMARK    6  A    between atoms: C_13  and  C_14
REMARK    7  A    between atoms: C_19  and  O_20
REMARK                            x       y       z     vdW  Elec       q    Type
REMARK                         _______ _______ _______ _____ _____    ______ ____
ROOT
ATOM      1  C   UNL     1       7.484   6.881  17.919  0.00  0.00    +0.000 C 
ATOM      2  O   UNL     1       8.043   6.328  18.866  0.00  0.00    +0.000 OA
ATOM      3  N   UNL     1       7.722   8.186  17.505  0.00  0.00    +0.000 N 
ATOM      4  H   UNL     1       7.104   8.645  16.836  0.00  0.00    +0.000 HD
ENDROOT
BRANCH   3   5
ATOM      5  N   UNL     1       8.625   8.928  18.196  0.00  0.00    +0.000 NA
ATOM      6  C   UNL     1       8.729  10.180  17.883  0.00  0.00    +0.000 C 
BRANCH   6   7
ATOM      7  C   UNL     1       9.692  11.044  18.601  0.00  0.00    +0.000 A 
ATOM      8  C   UNL     1      10.542  11.881  17.862  0.00  0.00    +0.000 A 
ATOM      9  C   UNL     1      11.444  12.720  18.512  0.00  0.00    +0.000 A 
ATOM     10  C   UNL     1      11.504  12.730  19.904  0.00  0.00    +0.000 A 
ATOM     11  C   UNL     1      10.666  11.894  20.648  0.00  0.00    +0.000 A 
ATOM     12  C   UNL     1       9.760  11.052  19.995  0.00  0.00    +0.000 A 
BRANCH  12  13
ATOM     13  O   UNL     1       8.937  10.244  20.728  0.00  0.00    +0.000 OA
ATOM     14  H   UNL     1       8.549  10.763  21.453  0.00  0.00    +0.000 HD
ENDBRANCH  12  13
ENDBRANCH   6   7
ENDBRANCH   3   5
BRANCH   1  15
ATOM     15  C   UNL     1       6.436   6.157  17.098  0.00  0.00    +0.000 C 
BRANCH  15  16
ATOM     16  S   UNL     1       4.796   6.352  17.853  0.00  0.00    +0.000 S 
BRANCH  16  22
ATOM     17  C   UNL     1       2.143   4.448  18.030  0.00  0.00    +0.000 C 
ATOM     18  N   UNL     1       3.418   4.112  18.598  0.00  0.00    +0.000 N 
ATOM     19  N   UNL     1       3.599   2.950  19.253  0.00  0.00    +0.000 NA
ATOM     20  N   UNL     1       4.874   2.951  19.621  0.00  0.00    +0.000 NA
ATOM     21  N   UNL     1       5.508   4.100  19.210  0.00  0.00    +0.000 NA
ATOM     22  C   UNL     1       4.592   4.805  18.585  0.00  0.00    +0.000 A 
ENDBRANCH  16  22
ENDBRANCH  15  16
ENDBRANCH   1  15
TORSDOF 6
ENDMDL
MODEL 6
REMARK VINA RESULT:      -6.5      4.133      7.653
REMARK  Name = 
REMARK  7 active torsions:
REMARK  status: ('A' for Active; 'I' for Inactive)
REMARK    1  A    between atoms: C_1  and  N_2
REMARK    2  A    between atoms: C_6  and  S_7
REMARK    3  A    between atoms: S_7  and  C_8
REMARK    4  A    between atoms: C_8  and  C_9
REMARK    5  A    between atoms: N_11  and  N_12
REMARK    6  A    between atoms: C_13  and  C_14
REMARK    7  A    between atoms: C_19  and  O_20
REMARK                            x       y       z     vdW  Elec       q    Type
REMARK                         _______ _______ _______ _____ _____    ______ ____
ROOT
ATOM      1  C   UNL     1       2.657   4.514  19.527  0.00  0.00    +0.000 C 
ATOM      2  O   UNL     1       1.597   4.226  20.082  0.00  0.00    +0.000 OA
ATOM      3  N   UNL     1       3.155   5.803  19.381  0.00  0.00    +0.000 N 
ATOM      4  H   UNL     1       3.939   5.996  18.759  0.00  0.00    +0.000 HD
ENDROOT
BRANCH   3   5
ATOM      5  N   UNL     1       2.422   6.837  19.870  0.00  0.00    +0.000 NA
ATOM      6  C   UNL     1       2.221   7.846  19.083  0.00  0.00    +0.000 C 
BRANCH   6   7
ATOM      7  C   UNL     1       1.427   9.003  19.553  0.00  0.00    +0.000 A 
ATOM      8  C   UNL     1       0.949   9.013  20.872  0.00  0.00    +0.000 A 
ATOM      9  C   UNL     1       0.216  10.097  21.349  0.00  0.00    +0.000 A 
ATOM     10  C   UNL     1      -0.042  11.181  20.512  0.00  0.00    +0.000 A 
ATOM     11  C   UNL     1       0.425  11.177  19.194  0.00  0.00    +0.000 A 
ATOM     12  C   UNL     1       1.160  10.088  18.717  0.00  0.00    +0.000 A 
BRANCH  12  13
ATOM     13  O   UNL     1       1.622  10.094  17.430  0.00  0.00    +0.000 OA
ATOM     14  H   UNL     1       0.907   9.805  16.837  0.00  0.00    +0.000 HD
ENDBRANCH  12  13
ENDBRANCH   6   7
ENDBRANCH   3   5
BRANCH   1  15
ATOM     15  C   UNL     1       3.539   3.443  18.918  0.00  0.00    +0.000 C 
BRANCH  15  16
ATOM     16  S   UNL     1       4.066   3.930  17.250  0.00  0.00    +0.000 S 
BRANCH  16  22
ATOM     17  C   UNL     1       6.537   4.101  15.115  0.00  0.00    +0.000 C 
ATOM     18  N   UNL     1       6.682   4.273  16.533  0.00  0.00    +0.000 N 
ATOM     19  N   UNL     1       7.885   4.529  17.078  0.00  0.00    +0.000 NA
ATOM     20  N   UNL     1       7.658   4.650  18.381  0.00  0.00    +0.000 NA
ATOM     21  N   UNL     1       6.327   4.472  18.672  0.00  0.00    +0.000 NA
ATOM     22  C   UNL     1       5.741   4.236  17.519  0.00  0.00    +0.000 A 
ENDBRANCH  16  22
ENDBRANCH  15  16
ENDBRANCH   1  15
TORSDOF 6
ENDMDL
MODEL 7
REMARK VINA RESULT:      -6.4      1.270      1.767
REMARK  Name = 
REMARK  7 active torsions:
REMARK  status: ('A' for Active; 'I' for Inactive)
REMARK    1  A    between atoms: C_1  and  N_2
REMARK    2  A    between atoms: C_6  and  S_7
REMARK    3  A    between atoms: S_7  and  C_8
REMARK    4  A    between atoms: C_8  and  C_9
REMARK    5  A    between atoms: N_11  and  N_12
REMARK    6  A    between atoms: C_13  and  C_14
REMARK    7  A    between atoms: C_19  and  O_20
REMARK                            x       y       z     vdW  Elec       q    Type
REMARK                         _______ _______ _______ _____ _____    ______ ____
ROOT
ATOM      1  C   UNL     1       5.301   5.172  18.309  0.00  0.00    +0.000 C 
ATOM      2  O   UNL     1       6.364   4.551  18.279  0.00  0.00    +0.000 OA
ATOM      3  N   UNL     1       4.675   5.734  17.203  0.00  0.00    +0.000 N 
ATOM      4  H   UNL     1       3.900   6.387  17.314  0.00  0.00    +0.000 HD
ENDROOT
BRANCH   3   5
ATOM      5  N   UNL     1       5.276   5.612  15.990  0.00  0.00    +0.000 NA
ATOM      6  C   UNL     1       5.289   4.435  15.451  0.00  0.00    +0.000 C 
BRANCH   6   7
ATOM      7  C   UNL     1       5.924   4.236  14.129  0.00  0.00    +0.000 A 
ATOM      8  C   UNL     1       5.278   3.437  13.174  0.00  0.00    +0.000 A 
ATOM      9  C   UNL     1       5.842   3.248  11.914  0.00  0.00    +0.000 A 
ATOM     10  C   UNL     1       7.055   3.858  11.599  0.00  0.00    +0.000 A 
ATOM     11  C   UNL     1       7.709   4.650  12.547  0.00  0.00    +0.000 A 
ATOM     12  C   UNL     1       7.142   4.839  13.811  0.00  0.00    +0.000 A 
BRANCH  12  13
ATOM     13  O   UNL     1       7.782   5.622  14.731  0.00  0.00    +0.000 OA
ATOM     14  H   UNL     1       8.018   5.076  15.500  0.00  0.00    +0.000 HD
ENDBRANCH  12  13
ENDBRANCH   6   7
ENDBRANCH   3   5
BRANCH   1  15
ATOM     15  C   UNL     1       4.562   5.396  19.613  0.00  0.00    +0.000 C 
BRANCH  15  16
ATOM     16  S   UNL     1       2.771   5.455  19.323  0.00  0.00    +0.000 S 
BRANCH  16  22
ATOM     17  C   UNL     1       1.099   2.728  18.645  0.00  0.00    +0.000 C 
ATOM     18  N   UNL     1       1.529   3.105  19.962  0.00  0.00    +0.000 N 
ATOM     19  N   UNL     1       1.263   2.325  21.025  0.00  0.00    +0.000 NA
ATOM     20  N   UNL     1       1.811   2.948  22.061  0.00  0.00    +0.000 NA
ATOM     21  N   UNL     1       2.422   4.116  21.670  0.00  0.00    +0.000 NA
ATOM     22  C   UNL     1       2.233   4.198  20.373  0.00  0.00    +0.000 A 
ENDBRANCH  16  22
ENDBRANCH  15  16
ENDBRANCH   1  15
TORSDOF 6
ENDMDL
MODEL 8
REMARK VINA RESULT:      -6.4      5.405      6.653
REMARK  Name = 
REMARK  7 active torsions:
REMARK  status: ('A' for Active; 'I' for Inactive)
REMARK    1  A    between atoms: C_1  and  N_2
REMARK    2  A    between atoms: C_6  and  S_7
REMARK    3  A    between atoms: S_7  and  C_8
REMARK    4  A    between atoms: C_8  and  C_9
REMARK    5  A    between atoms: N_11  and  N_12
REMARK    6  A    between atoms: C_13  and  C_14
REMARK    7  A    between atoms: C_19  and  O_20
REMARK                            x       y       z     vdW  Elec       q    Type
REMARK                         _______ _______ _______ _____ _____    ______ ____
ROOT
ATOM      1  C   UNL     1       7.241   6.842  18.060  0.00  0.00    +0.000 C 
ATOM      2  O   UNL     1       8.011   6.288  18.844  0.00  0.00    +0.000 OA
ATOM      3  N   UNL     1       7.443   8.095  17.495  0.00  0.00    +0.000 N 
ATOM      4  H   UNL     1       6.692   8.576  17.002  0.00  0.00    +0.000 HD
ENDROOT
BRANCH   3   5
ATOM      5  N   UNL     1       8.565   8.782  17.834  0.00  0.00    +0.000 NA
ATOM      6  C   UNL     1       8.408   9.971  18.323  0.00  0.00    +0.000 C 
BRANCH   6   7
ATOM      7  C   UNL     1       9.589  10.770  18.716  0.00  0.00    +0.000 A 
ATOM      8  C   UNL     1      10.379  11.359  17.716  0.00  0.00    +0.000 A 
ATOM      9  C   UNL     1      11.485  12.134  18.057  0.00  0.00    +0.000 A 
ATOM     10  C   UNL     1      11.810  12.327  19.398  0.00  0.00    +0.000 A 
ATOM     11  C   UNL     1      11.033  11.739  20.401  0.00  0.00    +0.000 A 
ATOM     12  C   UNL     1       9.922  10.961  20.058  0.00  0.00    +0.000 A 
BRANCH  12  13
ATOM     13  O   UNL     1       9.161  10.396  21.042  0.00  0.00    +0.000 OA
ATOM     14  H   UNL     1       8.699  11.101  21.527  0.00  0.00    +0.000 HD
ENDBRANCH  12  13
ENDBRANCH   6   7
ENDBRANCH   3   5
BRANCH   1  15
ATOM     15  C   UNL     1       5.944   6.180  17.639  0.00  0.00    +0.000 C 
BRANCH  15  16
ATOM     16  S   UNL     1       5.257   5.205  19.007  0.00  0.00    +0.000 S 
BRANCH  16  22
ATOM     17  C   UNL     1       2.144   5.487  19.969  0.00  0.00    +0.000 C 
ATOM     18  N   UNL     1       2.565   4.781  18.792  0.00  0.00    +0.000 N 
ATOM     19  N   UNL     1       1.668   4.181  17.988  0.00  0.00    +0.000 NA
ATOM     20  N   UNL     1       2.382   3.652  17.002  0.00  0.00    +0.000 NA
ATOM     21  N   UNL     1       3.722   3.906  17.168  0.00  0.00    +0.000 NA
ATOM     22  C   UNL     1       3.816   4.600  18.280  0.00  0.00    +0.000 A 
ENDBRANCH  16  22
ENDBRANCH  15  16
ENDBRANCH   1  15
TORSDOF 6
ENDMDL
MODEL 9
REMARK VINA RESULT:      -6.4      4.887      8.519
REMARK  Name = 
REMARK  7 active torsions:
REMARK  status: ('A' for Active; 'I' for Inactive)
REMARK    1  A    between atoms: C_1  and  N_2
REMARK    2  A    between atoms: C_6  and  S_7
REMARK    3  A    between atoms: S_7  and  C_8
REMARK    4  A    between atoms: C_8  and  C_9
REMARK    5  A    between atoms: N_11  and  N_12
REMARK    6  A    between atoms: C_13  and  C_14
REMARK    7  A    between atoms: C_19  and  O_20
REMARK                            x       y       z     vdW  Elec       q    Type
REMARK                         _______ _______ _______ _____ _____    ______ ____
ROOT
ATOM      1  C   UNL     1       2.381   5.533  19.121  0.00  0.00    +0.000 C 
ATOM      2  O   UNL     1       1.686   5.702  18.119  0.00  0.00    +0.000 OA
ATOM      3  N   UNL     1       2.538   6.457  20.147  0.00  0.00    +0.000 N 
ATOM      4  H   UNL     1       3.262   6.337  20.854  0.00  0.00    +0.000 HD
ENDROOT
BRANCH   3   5
ATOM      5  N   UNL     1       1.895   7.649  20.045  0.00  0.00    +0.000 NA
ATOM      6  C   UNL     1       1.241   8.061  21.084  0.00  0.00    +0.000 C 
BRANCH   6   7
ATOM      7  C   UNL     1       0.522   9.354  21.039  0.00  0.00    +0.000 A 
ATOM      8  C   UNL     1       0.123   9.871  19.798  0.00  0.00    +0.000 A 
ATOM      9  C   UNL     1      -0.573  11.075  19.726  0.00  0.00    +0.000 A 
ATOM     10  C   UNL     1      -0.877  11.771  20.895  0.00  0.00    +0.000 A 
ATOM     11  C   UNL     1      -0.477  11.267  22.136  0.00  0.00    +0.000 A 
ATOM     12  C   UNL     1       0.222  10.057  22.207  0.00  0.00    +0.000 A 
BRANCH  12  13
ATOM     13  O   UNL     1       0.602   9.565  23.424  0.00  0.00    +0.000 OA
ATOM     14  H   UNL     1       0.590   8.593  23.388  0.00  0.00    +0.000 HD
ENDBRANCH  12  13
ENDBRANCH   6   7
ENDBRANCH   3   5
BRANCH   1  15
ATOM     15  C   UNL     1       3.167   4.253  19.321  0.00  0.00    +0.000 C 
BRANCH  15  16
ATOM     16  S   UNL     1       4.283   3.969  17.917  0.00  0.00    +0.000 S 
BRANCH  16  22
ATOM     17  C   UNL     1       7.135   4.558  16.428  0.00  0.00    +0.000 C 
ATOM     18  N   UNL     1       6.904   4.745  17.833  0.00  0.00    +0.000 N 
ATOM     19  N   UNL     1       7.881   5.195  18.640  0.00  0.00    +0.000 NA
ATOM     20  N   UNL     1       7.330   5.271  19.846  0.00  0.00    +0.000 NA
ATOM     21  N   UNL     1       6.015   4.874  19.817  0.00  0.00    +0.000 NA
ATOM     22  C   UNL     1       5.771   4.549  18.567  0.00  0.00    +0.000 A 
ENDBRANCH  16  22
ENDBRANCH  15  16
ENDBRANCH   1  15
TORSDOF 6
ENDMDL
