MODEL 1
REMARK VINA RESULT:      -6.9      0.000      0.000
REMARK  Name = 
REMARK  5 active torsions:
REMARK  status: ('A' for Active; 'I' for Inactive)
REMARK    1  A    between atoms: C_1  and  C_2
REMARK    2  A    between atoms: C_2  and  N_3
REMARK    3  A    between atoms: N_5  and  S_6
REMARK    4  A    between atoms: S_6  and  C_9
REMARK    5  A    between atoms: C_20  and  C_21
REMARK                            x       y       z     vdW  Elec       q    Type
REMARK                         _______ _______ _______ _____ _____    ______ ____
ROOT
ATOM      1  N   UNL     1      -3.039  11.604  17.191  0.00  0.00    +0.000 N 
ATOM      2  C   UNL     1      -3.575  12.033  18.395  0.00  0.00    +0.000 C 
ATOM      3  N   UNL     1      -2.890  12.376  19.444  0.00  0.00    +0.000 NA
ATOM      4  N   UNL     1      -4.972  12.096  18.457  0.00  0.00    +0.000 N 
ATOM      5  N   UNL     1      -5.820  12.282  17.386  0.00  0.00    +0.000 NA
ATOM      6  C   UNL     1      -7.027  12.202  17.831  0.00  0.00    +0.000 C 
ATOM      7  C   UNL     1      -7.184  11.929  19.283  0.00  0.00    +0.000 C 
ATOM      8  C   UNL     1      -5.720  11.899  19.714  0.00  0.00    +0.000 C 
ATOM      9  H   UNL     1      -2.048  11.379  17.237  0.00  0.00    +0.000 HD
ENDROOT
BRANCH   8  10
ATOM     10  C   UNL     1      -5.434  12.937  20.778  0.00  0.00    +0.000 A 
ATOM     11  C   UNL     1      -5.661  14.296  20.503  0.00  0.00    +0.000 A 
ATOM     12  C   UNL     1      -5.411  15.269  21.474  0.00  0.00    +0.000 A 
ATOM     13  C   UNL     1      -4.921  14.891  22.722  0.00  0.00    +0.000 A 
ATOM     14  C   UNL     1      -4.694  13.547  23.009  0.00  0.00    +0.000 A 
ATOM     15  C   UNL     1      -4.955  12.571  22.046  0.00  0.00    +0.000 A 
ENDBRANCH   8  10
BRANCH   3  16
ATOM     16  S   UNL     1      -1.288  12.459  19.505  0.00  0.00    +0.000 S 
ATOM     17  O   UNL     1      -0.721  11.876  18.304  0.00  0.00    +0.000 OA
ATOM     18  O   UNL     1      -0.902  13.797  19.920  0.00  0.00    +0.000 OA
BRANCH  16  19
ATOM     19  C   UNL     1      -0.819  11.365  20.835  0.00  0.00    +0.000 A 
ATOM     20  C   UNL     1      -1.310  11.609  22.124  0.00  0.00    +0.000 A 
ATOM     21  C   UNL     1      -1.063  10.688  23.138  0.00  0.00    +0.000 A 
ATOM     22  C   UNL     1      -0.321   9.538  22.865  0.00  0.00    +0.000 A 
ATOM     23  C   UNL     1       0.192   9.322  21.583  0.00  0.00    +0.000 A 
ATOM     24 CL   UNL     1       1.109   7.900  21.266  0.00  0.00    +0.000 Cl
ATOM     25  C   UNL     1      -0.048  10.234  20.557  0.00  0.00    +0.000 A 
ENDBRANCH  16  19
ENDBRANCH   3  16
BRANCH   1  27
ATOM     26  C   UNL     1      -2.903  10.418  15.040  0.00  0.00    +0.000 C 
ATOM     27  C   UNL     1      -3.753  10.743  16.257  0.00  0.00    +0.000 C 
ENDBRANCH   1  27
TORSDOF 4
ENDMDL
MODEL 2
REMARK VINA RESULT:      -6.9      7.992     11.062
REMARK  Name = 
REMARK  5 active torsions:
REMARK  status: ('A' for Active; 'I' for Inactive)
REMARK    1  A    between atoms: C_1  and  C_2
REMARK    2  A    between atoms: C_2  and  N_3
REMARK    3  A    between atoms: N_5  and  S_6
REMARK    4  A    between atoms: S_6  and  C_9
REMARK    5  A    between atoms: C_20  and  C_21
REMARK                            x       y       z     vdW  Elec       q    Type
REMARK                         _______ _______ _______ _____ _____    ______ ____
ROOT
ATOM      1  N   UNL     1       3.164   7.507  18.073  0.00  0.00    +0.000 N 
ATOM      2  C   UNL     1       3.183   6.127  18.208  0.00  0.00    +0.000 C 
ATOM      3  N   UNL     1       3.952   5.316  17.546  0.00  0.00    +0.000 NA
ATOM      4  N   UNL     1       2.292   5.590  19.144  0.00  0.00    +0.000 N 
ATOM      5  N   UNL     1       1.800   6.239  20.256  0.00  0.00    +0.000 NA
ATOM      6  C   UNL     1       0.952   5.450  20.821  0.00  0.00    +0.000 C 
ATOM      7  C   UNL     1       0.721   4.139  20.161  0.00  0.00    +0.000 C 
ATOM      8  C   UNL     1       1.708   4.242  19.001  0.00  0.00    +0.000 C 
ATOM      9  H   UNL     1       3.669   7.849  17.259  0.00  0.00    +0.000 HD
ENDROOT
BRANCH   8  10
ATOM     10  C   UNL     1       2.722   3.118  19.035  0.00  0.00    +0.000 A 
ATOM     11  C   UNL     1       3.594   3.000  20.131  0.00  0.00    +0.000 A 
ATOM     12  C   UNL     1       4.531   1.965  20.185  0.00  0.00    +0.000 A 
ATOM     13  C   UNL     1       4.612   1.050  19.139  0.00  0.00    +0.000 A 
ATOM     14  C   UNL     1       3.752   1.152  18.048  0.00  0.00    +0.000 A 
ATOM     15  C   UNL     1       2.805   2.177  17.997  0.00  0.00    +0.000 A 
ENDBRANCH   8  10
BRANCH   3  16
ATOM     16  S   UNL     1       5.096   5.776  16.518  0.00  0.00    +0.000 S 
ATOM     17  O   UNL     1       5.661   4.613  15.860  0.00  0.00    +0.000 OA
ATOM     18  O   UNL     1       4.599   6.891  15.730  0.00  0.00    +0.000 OA
BRANCH  16  19
ATOM     19  C   UNL     1       6.404   6.428  17.543  0.00  0.00    +0.000 A 
ATOM     20  C   UNL     1       7.009   5.592  18.490  0.00  0.00    +0.000 A 
ATOM     21  C   UNL     1       8.118   6.047  19.198  0.00  0.00    +0.000 A 
ATOM     22  C   UNL     1       8.609   7.333  18.966  0.00  0.00    +0.000 A 
ATOM     23  C   UNL     1       7.976   8.170  18.043  0.00  0.00    +0.000 A 
ATOM     24 CL   UNL     1       8.593   9.754  17.775  0.00  0.00    +0.000 Cl
ATOM     25  C   UNL     1       6.866   7.728  17.326  0.00  0.00    +0.000 A 
ENDBRANCH  16  19
ENDBRANCH   3  16
BRANCH   1  27
ATOM     26  C   UNL     1       2.100   9.698  17.735  0.00  0.00    +0.000 C 
ATOM     27  C   UNL     1       2.000   8.327  18.381  0.00  0.00    +0.000 C 
ENDBRANCH   1  27
TORSDOF 4
ENDMDL
MODEL 3
REMARK VINA RESULT:      -6.8      8.534     11.228
REMARK  Name = 
REMARK  5 active torsions:
REMARK  status: ('A' for Active; 'I' for Inactive)
REMARK    1  A    between atoms: C_1  and  C_2
REMARK    2  A    between atoms: C_2  and  N_3
REMARK    3  A    between atoms: N_5  and  S_6
REMARK    4  A    between atoms: S_6  and  C_9
REMARK    5  A    between atoms: C_20  and  C_21
REMARK                            x       y       z     vdW  Elec       q    Type
REMARK                         _______ _______ _______ _____ _____    ______ ____
ROOT
ATOM      1  N   UNL     1       4.956   2.749  18.895  0.00  0.00    +0.000 N 
ATOM      2  C   UNL     1       4.301   3.964  19.022  0.00  0.00    +0.000 C 
ATOM      3  N   UNL     1       4.820   5.129  18.770  0.00  0.00    +0.000 NA
ATOM      4  N   UNL     1       2.971   3.904  19.454  0.00  0.00    +0.000 N 
ATOM      5  N   UNL     1       2.114   2.839  19.279  0.00  0.00    +0.000 NA
ATOM      6  C   UNL     1       1.012   3.128  19.881  0.00  0.00    +0.000 C 
ATOM      7  C   UNL     1       0.958   4.438  20.579  0.00  0.00    +0.000 C 
ATOM      8  C   UNL     1       2.339   4.988  20.230  0.00  0.00    +0.000 C 
ATOM      9  H   UNL     1       5.962   2.832  18.775  0.00  0.00    +0.000 HD
ENDROOT
BRANCH   8  10
ATOM     10  C   UNL     1       2.240   6.306  19.493  0.00  0.00    +0.000 A 
ATOM     11  C   UNL     1       1.934   7.480  20.203  0.00  0.00    +0.000 A 
ATOM     12  C   UNL     1       1.847   8.708  19.543  0.00  0.00    +0.000 A 
ATOM     13  C   UNL     1       2.051   8.769  18.167  0.00  0.00    +0.000 A 
ATOM     14  C   UNL     1       2.358   7.614  17.450  0.00  0.00    +0.000 A 
ATOM     15  C   UNL     1       2.459   6.388  18.109  0.00  0.00    +0.000 A 
ENDBRANCH   8  10
BRANCH   3  16
ATOM     16  S   UNL     1       6.291   5.365  18.170  0.00  0.00    +0.000 S 
ATOM     17  O   UNL     1       6.588   6.784  18.144  0.00  0.00    +0.000 OA
ATOM     18  O   UNL     1       7.211   4.437  18.805  0.00  0.00    +0.000 OA
BRANCH  16  19
ATOM     19  C   UNL     1       6.177   4.868  16.460  0.00  0.00    +0.000 A 
ATOM     20  C   UNL     1       5.023   4.209  16.016  0.00  0.00    +0.000 A 
ATOM     21  C   UNL     1       4.865   3.940  14.660  0.00  0.00    +0.000 A 
ATOM     22  C   UNL     1       5.860   4.317  13.757  0.00  0.00    +0.000 A 
ATOM     23  C   UNL     1       7.023   4.943  14.216  0.00  0.00    +0.000 A 
ATOM     24 CL   UNL     1       8.241   5.397  13.088  0.00  0.00    +0.000 Cl
ATOM     25  C   UNL     1       7.194   5.221  15.570  0.00  0.00    +0.000 A 
ENDBRANCH  16  19
ENDBRANCH   3  16
BRANCH   1  27
ATOM     26  C   UNL     1       5.162   1.602  21.061  0.00  0.00    +0.000 C 
ATOM     27  C   UNL     1       4.591   1.559  19.654  0.00  0.00    +0.000 C 
ENDBRANCH   1  27
TORSDOF 4
ENDMDL
MODEL 4
REMARK VINA RESULT:      -6.8      2.479      4.846
REMARK  Name = 
REMARK  5 active torsions:
REMARK  status: ('A' for Active; 'I' for Inactive)
REMARK    1  A    between atoms: C_1  and  C_2
REMARK    2  A    between atoms: C_2  and  N_3
REMARK    3  A    between atoms: N_5  and  S_6
REMARK    4  A    between atoms: S_6  and  C_9
REMARK    5  A    between atoms: C_20  and  C_21
REMARK                            x       y       z     vdW  Elec       q    Type
REMARK                         _______ _______ _______ _____ _____    ______ ____
ROOT
ATOM      1  N   UNL     1      -3.267  13.016  23.514  0.00  0.00    +0.000 N 
ATOM      2  C   UNL     1      -4.087  12.959  22.397  0.00  0.00    +0.000 C 
ATOM      3  N   UNL     1      -3.682  12.998  21.163  0.00  0.00    +0.000 NA
ATOM      4  N   UNL     1      -5.459  12.846  22.648  0.00  0.00    +0.000 N 
ATOM      5  N   UNL     1      -6.031  12.290  23.772  0.00  0.00    +0.000 NA
ATOM      6  C   UNL     1      -7.307  12.442  23.671  0.00  0.00    +0.000 C 
ATOM      7  C   UNL     1      -7.800  13.147  22.461  0.00  0.00    +0.000 C 
ATOM      8  C   UNL     1      -6.481  13.388  21.731  0.00  0.00    +0.000 C 
ATOM      9  H   UNL     1      -2.311  13.295  23.310  0.00  0.00    +0.000 HD
ENDROOT
BRANCH   8  10
ATOM     10  C   UNL     1      -6.484  12.753  20.356  0.00  0.00    +0.000 A 
ATOM     11  C   UNL     1      -6.312  13.558  19.217  0.00  0.00    +0.000 A 
ATOM     12  C   UNL     1      -6.303  12.990  17.941  0.00  0.00    +0.000 A 
ATOM     13  C   UNL     1      -6.481  11.617  17.794  0.00  0.00    +0.000 A 
ATOM     14  C   UNL     1      -6.650  10.806  18.914  0.00  0.00    +0.000 A 
ATOM     15  C   UNL     1      -6.645  11.369  20.192  0.00  0.00    +0.000 A 
ENDBRANCH   8  10
BRANCH   3  16
ATOM     16  S   UNL     1      -2.143  13.022  20.706  0.00  0.00    +0.000 S 
ATOM     17  O   UNL     1      -1.844  14.283  20.054  0.00  0.00    +0.000 OA
ATOM     18  O   UNL     1      -1.318  12.555  21.807  0.00  0.00    +0.000 OA
BRANCH  16  19
ATOM     19  C   UNL     1      -2.023  11.783  19.427  0.00  0.00    +0.000 A 
ATOM     20  C   UNL     1      -3.107  11.588  18.561  0.00  0.00    +0.000 A 
ATOM     21  C   UNL     1      -2.974  10.724  17.478  0.00  0.00    +0.000 A 
ATOM     22  C   UNL     1      -1.768  10.051  17.271  0.00  0.00    +0.000 A 
ATOM     23  C   UNL     1      -0.705  10.227  18.162  0.00  0.00    +0.000 A 
ATOM     24 CL   UNL     1       0.772   9.386  17.893  0.00  0.00    +0.000 Cl
ATOM     25  C   UNL     1      -0.822  11.091  19.249  0.00  0.00    +0.000 A 
ENDBRANCH  16  19
ENDBRANCH   3  16
BRANCH   1  27
ATOM     26  C   UNL     1      -3.073  14.835  25.159  0.00  0.00    +0.000 C 
ATOM     27  C   UNL     1      -3.715  13.502  24.813  0.00  0.00    +0.000 C 
ENDBRANCH   1  27
TORSDOF 4
ENDMDL
MODEL 5
REMARK VINA RESULT:      -6.7      1.317      4.071
REMARK  Name = 
REMARK  5 active torsions:
REMARK  status: ('A' for Active; 'I' for Inactive)
REMARK    1  A    between atoms: C_1  and  C_2
REMARK    2  A    between atoms: C_2  and  N_3
REMARK    3  A    between atoms: N_5  and  S_6
REMARK    4  A    between atoms: S_6  and  C_9
REMARK    5  A    between atoms: C_20  and  C_21
REMARK                            x       y       z     vdW  Elec       q    Type
REMARK                         _______ _______ _______ _____ _____    ______ ____
ROOT
ATOM      1  N   UNL     1      -4.218  13.111  21.800  0.00  0.00    +0.000 N 
ATOM      2  C   UNL     1      -4.115  12.606  20.514  0.00  0.00    +0.000 C 
ATOM      3  N   UNL     1      -3.039  12.614  19.785  0.00  0.00    +0.000 NA
ATOM      4  N   UNL     1      -5.280  12.043  19.980  0.00  0.00    +0.000 N 
ATOM      5  N   UNL     1      -6.311  11.482  20.704  0.00  0.00    +0.000 NA
ATOM      6  C   UNL     1      -7.233  11.149  19.868  0.00  0.00    +0.000 C 
ATOM      7  C   UNL     1      -6.976  11.452  18.437  0.00  0.00    +0.000 C 
ATOM      8  C   UNL     1      -5.572  12.046  18.533  0.00  0.00    +0.000 C 
ATOM      9  H   UNL     1      -3.427  13.684  22.084  0.00  0.00    +0.000 HD
ENDROOT
BRANCH   8  10
ATOM     10  C   UNL     1      -4.582  11.265  17.696  0.00  0.00    +0.000 A 
ATOM     11  C   UNL     1      -4.237  11.728  16.415  0.00  0.00    +0.000 A 
ATOM     12  C   UNL     1      -3.318  11.027  15.629  0.00  0.00    +0.000 A 
ATOM     13  C   UNL     1      -2.750   9.852  16.114  0.00  0.00    +0.000 A 
ATOM     14  C   UNL     1      -3.080   9.383  17.384  0.00  0.00    +0.000 A 
ATOM     15  C   UNL     1      -3.987  10.088  18.176  0.00  0.00    +0.000 A 
ENDBRANCH   8  10
BRANCH   3  16
ATOM     16  S   UNL     1      -1.601  13.125  20.284  0.00  0.00    +0.000 S 
ATOM     17  O   UNL     1      -0.737  13.350  19.140  0.00  0.00    +0.000 OA
ATOM     18  O   UNL     1      -1.792  14.173  21.273  0.00  0.00    +0.000 OA
BRANCH  16  19
ATOM     19  C   UNL     1      -0.893  11.736  21.153  0.00  0.00    +0.000 A 
ATOM     20  C   UNL     1      -1.224  11.533  22.499  0.00  0.00    +0.000 A 
ATOM     21  C   UNL     1      -0.788  10.380  23.146  0.00  0.00    +0.000 A 
ATOM     22  C   UNL     1      -0.018   9.444  22.453  0.00  0.00    +0.000 A 
ATOM     23  C   UNL     1       0.334   9.674  21.120  0.00  0.00    +0.000 A 
ATOM     24 CL   UNL     1       1.288   8.511  20.284  0.00  0.00    +0.000 Cl
ATOM     25  C   UNL     1      -0.096  10.823  20.459  0.00  0.00    +0.000 A 
ENDBRANCH  16  19
ENDBRANCH   3  16
BRANCH   1  27
ATOM     26  C   UNL     1      -5.736  15.033  22.023  0.00  0.00    +0.000 C 
ATOM     27  C   UNL     1      -5.470  13.581  22.380  0.00  0.00    +0.000 C 
ENDBRANCH   1  27
TORSDOF 4
ENDMDL
MODEL 6
REMARK VINA RESULT:      -6.7      0.690      1.219
REMARK  Name = 
REMARK  5 active torsions:
REMARK  status: ('A' for Active; 'I' for Inactive)
REMARK    1  A    between atoms: C_1  and  C_2
REMARK    2  A    between atoms: C_2  and  N_3
REMARK    3  A    between atoms: N_5  and  S_6
REMARK    4  A    between atoms: S_6  and  C_9
REMARK    5  A    between atoms: C_20  and  C_21
REMARK                            x       y       z     vdW  Elec       q    Type
REMARK                         _______ _______ _______ _____ _____    ______ ____
ROOT
ATOM      1  N   UNL     1      -3.471  11.923  17.604  0.00  0.00    +0.000 N 
ATOM      2  C   UNL     1      -3.780  12.280  18.908  0.00  0.00    +0.000 C 
ATOM      3  N   UNL     1      -2.917  12.465  19.862  0.00  0.00    +0.000 NA
ATOM      4  N   UNL     1      -5.139  12.455  19.192  0.00  0.00    +0.000 N 
ATOM      5  N   UNL     1      -6.114  12.811  18.285  0.00  0.00    +0.000 NA
ATOM      6  C   UNL     1      -7.243  12.791  18.904  0.00  0.00    +0.000 C 
ATOM      7  C   UNL     1      -7.211  12.397  20.336  0.00  0.00    +0.000 C 
ATOM      8  C   UNL     1      -5.709  12.203  20.530  0.00  0.00    +0.000 C 
ATOM      9  H   UNL     1      -2.511  11.613  17.477  0.00  0.00    +0.000 HD
ENDROOT
BRANCH   8  10
ATOM     10  C   UNL     1      -5.169  13.108  21.617  0.00  0.00    +0.000 A 
ATOM     11  C   UNL     1      -4.606  12.546  22.775  0.00  0.00    +0.000 A 
ATOM     12  C   UNL     1      -4.094  13.363  23.786  0.00  0.00    +0.000 A 
ATOM     13  C   UNL     1      -4.155  14.748  23.652  0.00  0.00    +0.000 A 
ATOM     14  C   UNL     1      -4.708  15.320  22.508  0.00  0.00    +0.000 A 
ATOM     15  C   UNL     1      -5.207  14.505  21.490  0.00  0.00    +0.000 A 
ENDBRANCH   8  10
BRANCH   3  16
ATOM     16  S   UNL     1      -1.323  12.407  19.678  0.00  0.00    +0.000 S 
ATOM     17  O   UNL     1      -0.998  11.793  18.405  0.00  0.00    +0.000 OA
ATOM     18  O   UNL     1      -0.762  13.700  20.031  0.00  0.00    +0.000 OA
BRANCH  16  19
ATOM     19  C   UNL     1      -0.757  11.257  20.921  0.00  0.00    +0.000 A 
ATOM     20  C   UNL     1      -1.175  11.426  22.247  0.00  0.00    +0.000 A 
ATOM     21  C   UNL     1      -0.852  10.461  23.197  0.00  0.00    +0.000 A 
ATOM     22  C   UNL     1      -0.107   9.342  22.823  0.00  0.00    +0.000 A 
ATOM     23  C   UNL     1       0.333   9.201  21.503  0.00  0.00    +0.000 A 
ATOM     24 CL   UNL     1       1.255   7.816  21.062  0.00  0.00    +0.000 Cl
ATOM     25  C   UNL     1       0.016  10.158  20.542  0.00  0.00    +0.000 A 
ENDBRANCH  16  19
ENDBRANCH   3  16
BRANCH   1  27
ATOM     26  C   UNL     1      -3.675  10.605  15.538  0.00  0.00    +0.000 C 
ATOM     27  C   UNL     1      -4.396  11.217  16.727  0.00  0.00    +0.000 C 
ENDBRANCH   1  27
TORSDOF 4
ENDMDL
MODEL 7
REMARK VINA RESULT:      -6.7      1.337      1.493
REMARK  Name = 
REMARK  5 active torsions:
REMARK  status: ('A' for Active; 'I' for Inactive)
REMARK    1  A    between atoms: C_1  and  C_2
REMARK    2  A    between atoms: C_2  and  N_3
REMARK    3  A    between atoms: N_5  and  S_6
REMARK    4  A    between atoms: S_6  and  C_9
REMARK    5  A    between atoms: C_20  and  C_21
REMARK                            x       y       z     vdW  Elec       q    Type
REMARK                         _______ _______ _______ _____ _____    ______ ____
ROOT
ATOM      1  N   UNL     1      -2.937  12.142  18.555  0.00  0.00    +0.000 N 
ATOM      2  C   UNL     1      -3.810  12.480  19.577  0.00  0.00    +0.000 C 
ATOM      3  N   UNL     1      -3.469  13.010  20.714  0.00  0.00    +0.000 NA
ATOM      4  N   UNL     1      -5.165  12.224  19.339  0.00  0.00    +0.000 N 
ATOM      5  N   UNL     1      -5.770  12.171  18.102  0.00  0.00    +0.000 NA
ATOM      6  C   UNL     1      -7.000  11.833  18.287  0.00  0.00    +0.000 C 
ATOM      7  C   UNL     1      -7.417  11.585  19.692  0.00  0.00    +0.000 C 
ATOM      8  C   UNL     1      -6.116  11.907  20.422  0.00  0.00    +0.000 C 
ATOM      9  H   UNL     1      -1.958  12.152  18.828  0.00  0.00    +0.000 HD
ENDROOT
BRANCH   8  10
ATOM     10  C   UNL     1      -6.307  13.022  21.429  0.00  0.00    +0.000 A 
ATOM     11  C   UNL     1      -6.750  14.283  20.995  0.00  0.00    +0.000 A 
ATOM     12  C   UNL     1      -6.940  15.322  21.909  0.00  0.00    +0.000 A 
ATOM     13  C   UNL     1      -6.677  15.112  23.260  0.00  0.00    +0.000 A 
ATOM     14  C   UNL     1      -6.240  13.866  23.705  0.00  0.00    +0.000 A 
ATOM     15  C   UNL     1      -6.062  12.822  22.796  0.00  0.00    +0.000 A 
ENDBRANCH   8  10
BRANCH   3  16
ATOM     16  S   UNL     1      -1.978  13.461  21.102  0.00  0.00    +0.000 S 
ATOM     17  O   UNL     1      -1.283  13.930  19.919  0.00  0.00    +0.000 OA
ATOM     18  O   UNL     1      -2.033  14.290  22.295  0.00  0.00    +0.000 OA
BRANCH  16  19
ATOM     19  C   UNL     1      -1.149  11.952  21.577  0.00  0.00    +0.000 A 
ATOM     20  C   UNL     1      -1.378  11.421  22.853  0.00  0.00    +0.000 A 
ATOM     21  C   UNL     1      -0.847  10.177  23.183  0.00  0.00    +0.000 A 
ATOM     22  C   UNL     1      -0.084   9.478  22.248  0.00  0.00    +0.000 A 
ATOM     23  C   UNL     1       0.167  10.034  20.989  0.00  0.00    +0.000 A 
ATOM     24 CL   UNL     1       1.114   9.159  19.850  0.00  0.00    +0.000 Cl
ATOM     25  C   UNL     1      -0.360  11.277  20.644  0.00  0.00    +0.000 A 
ENDBRANCH  16  19
ENDBRANCH   3  16
BRANCH   1  27
ATOM     26  C   UNL     1      -2.171  10.008  17.601  0.00  0.00    +0.000 C 
ATOM     27  C   UNL     1      -3.221  11.106  17.570  0.00  0.00    +0.000 C 
ENDBRANCH   1  27
TORSDOF 4
ENDMDL
MODEL 8
REMARK VINA RESULT:      -6.6      3.249      5.774
REMARK  Name = 
REMARK  5 active torsions:
REMARK  status: ('A' for Active; 'I' for Inactive)
REMARK    1  A    between atoms: C_1  and  C_2
REMARK    2  A    between atoms: C_2  and  N_3
REMARK    3  A    between atoms: N_5  and  S_6
REMARK    4  A    between atoms: S_6  and  C_9
REMARK    5  A    between atoms: C_20  and  C_21
REMARK                            x       y       z     vdW  Elec       q    Type
REMARK                         _______ _______ _______ _____ _____    ______ ____
ROOT
ATOM      1  N   UNL     1      -0.454  10.145  18.035  0.00  0.00    +0.000 N 
ATOM      2  C   UNL     1      -1.214  11.013  18.802  0.00  0.00    +0.000 C 
ATOM      3  N   UNL     1      -2.466  11.297  18.600  0.00  0.00    +0.000 NA
ATOM      4  N   UNL     1      -0.557  11.616  19.881  0.00  0.00    +0.000 N 
ATOM      5  N   UNL     1       0.527  11.099  20.556  0.00  0.00    +0.000 NA
ATOM      6  C   UNL     1       0.895  11.977  21.425  0.00  0.00    +0.000 C 
ATOM      7  C   UNL     1       0.122  13.244  21.460  0.00  0.00    +0.000 C 
ATOM      8  C   UNL     1      -0.926  12.952  20.388  0.00  0.00    +0.000 C 
ATOM      9  H   UNL     1      -0.891   9.879  17.156  0.00  0.00    +0.000 HD
ENDROOT
BRANCH   8  10
ATOM     10  C   UNL     1      -2.330  13.040  20.947  0.00  0.00    +0.000 A 
ATOM     11  C   UNL     1      -2.629  12.427  22.176  0.00  0.00    +0.000 A 
ATOM     12  C   UNL     1      -3.916  12.503  22.714  0.00  0.00    +0.000 A 
ATOM     13  C   UNL     1      -4.916  13.181  22.020  0.00  0.00    +0.000 A 
ATOM     14  C   UNL     1      -4.633  13.796  20.802  0.00  0.00    +0.000 A 
ATOM     15  C   UNL     1      -3.345  13.733  20.270  0.00  0.00    +0.000 A 
ENDBRANCH   8  10
BRANCH   3  16
ATOM     16  S   UNL     1      -3.389  10.616  17.477  0.00  0.00    +0.000 S 
ATOM     17  O   UNL     1      -2.984  11.077  16.163  0.00  0.00    +0.000 OA
ATOM     18  O   UNL     1      -3.493   9.193  17.753  0.00  0.00    +0.000 OA
BRANCH  16  19
ATOM     19  C   UNL     1      -5.018  11.299  17.742  0.00  0.00    +0.000 A 
ATOM     20  C   UNL     1      -5.815  10.781  18.771  0.00  0.00    +0.000 A 
ATOM     21  C   UNL     1      -7.027  11.394  19.074  0.00  0.00    +0.000 A 
ATOM     22  C   UNL     1      -7.441  12.510  18.346  0.00  0.00    +0.000 A 
ATOM     23  C   UNL     1      -6.653  12.997  17.299  0.00  0.00    +0.000 A 
ATOM     24 CL   UNL     1      -7.183  14.372  16.409  0.00  0.00    +0.000 Cl
ATOM     25  C   UNL     1      -5.436  12.395  16.985  0.00  0.00    +0.000 A 
ENDBRANCH  16  19
ENDBRANCH   3  16
BRANCH   1  27
ATOM     26  C   UNL     1       1.639   8.861  17.888  0.00  0.00    +0.000 C 
ATOM     27  C   UNL     1       0.996  10.237  17.919  0.00  0.00    +0.000 C 
ENDBRANCH   1  27
TORSDOF 4
ENDMDL
MODEL 9
REMARK VINA RESULT:      -6.6      3.459      5.589
REMARK  Name = 
REMARK  5 active torsions:
REMARK  status: ('A' for Active; 'I' for Inactive)
REMARK    1  A    between atoms: C_1  and  C_2
REMARK    2  A    between atoms: C_2  and  N_3
REMARK    3  A    between atoms: N_5  and  S_6
REMARK    4  A    between atoms: S_6  and  C_9
REMARK    5  A    between atoms: C_20  and  C_21
REMARK                            x       y       z     vdW  Elec       q    Type
REMARK                         _______ _______ _______ _____ _____    ______ ____
ROOT
ATOM      1  N   UNL     1      -3.785  11.035  17.040  0.00  0.00    +0.000 N 
ATOM      2  C   UNL     1      -3.592  11.616  18.283  0.00  0.00    +0.000 C 
ATOM      3  N   UNL     1      -4.534  12.047  19.067  0.00  0.00    +0.000 NA
ATOM      4  N   UNL     1      -2.263  11.734  18.707  0.00  0.00    +0.000 N 
ATOM      5  N   UNL     1      -1.217  10.926  18.315  0.00  0.00    +0.000 NA
ATOM      6  C   UNL     1      -0.145  11.396  18.853  0.00  0.00    +0.000 C 
ATOM      7  C   UNL     1      -0.297  12.618  19.685  0.00  0.00    +0.000 C 
ATOM      8  C   UNL     1      -1.809  12.816  19.602  0.00  0.00    +0.000 C 
ATOM      9  H   UNL     1      -4.728  11.142  16.675  0.00  0.00    +0.000 HD
ENDROOT
BRANCH   8  10
ATOM     10  C   UNL     1      -2.446  12.797  20.975  0.00  0.00    +0.000 A 
ATOM     11  C   UNL     1      -1.992  11.883  21.941  0.00  0.00    +0.000 A 
ATOM     12  C   UNL     1      -2.561  11.855  23.216  0.00  0.00    +0.000 A 
ATOM     13  C   UNL     1      -3.597  12.731  23.530  0.00  0.00    +0.000 A 
ATOM     14  C   UNL     1      -4.055  13.645  22.584  0.00  0.00    +0.000 A 
ATOM     15  C   UNL     1      -3.479  13.684  21.313  0.00  0.00    +0.000 A 
ENDBRANCH   8  10
BRANCH   3  16
ATOM     16  S   UNL     1      -6.106  11.894  18.778  0.00  0.00    +0.000 S 
ATOM     17  O   UNL     1      -6.494  12.776  17.694  0.00  0.00    +0.000 OA
ATOM     18  O   UNL     1      -6.438  10.480  18.725  0.00  0.00    +0.000 OA
BRANCH  16  19
ATOM     19  C   UNL     1      -6.909  12.544  20.234  0.00  0.00    +0.000 A 
ATOM     20  C   UNL     1      -7.209  11.676  21.292  0.00  0.00    +0.000 A 
ATOM     21  C   UNL     1      -7.708  12.194  22.484  0.00  0.00    +0.000 A 
ATOM     22  C   UNL     1      -7.915  13.569  22.610  0.00  0.00    +0.000 A 
ATOM     23  C   UNL     1      -7.643  14.421  21.535  0.00  0.00    +0.000 A 
ATOM     24 CL   UNL     1      -7.909  16.113  21.709  0.00  0.00    +0.000 Cl
ATOM     25  C   UNL     1      -7.142  13.917  20.337  0.00  0.00    +0.000 A 
ENDBRANCH  16  19
ENDBRANCH   3  16
BRANCH   1  27
ATOM     26  C   UNL     1      -2.816   9.776  15.161  0.00  0.00    +0.000 C 
ATOM     27  C   UNL     1      -2.783  11.055  15.981  0.00  0.00    +0.000 C 
ENDBRANCH   1  27
TORSDOF 4
ENDMDL
