MODEL 1
REMARK VINA RESULT:      -7.5      0.000      0.000
REMARK  Name = 
REMARK  6 active torsions:
REMARK  status: ('A' for Active; 'I' for Inactive)
REMARK    1  A    between atoms: C_1  and  O_2
REMARK    2  A    between atoms: O_2  and  C_3
REMARK    3  A    between atoms: C_8  and  C_9
REMARK    4  A    between atoms: N_10  and  N_11
REMARK    5  A    between atoms: C_14  and  C_15
REMARK    6  A    between atoms: C_17  and  O_18
REMARK                            x       y       z     vdW  Elec       q    Type
REMARK                         _______ _______ _______ _____ _____    ______ ____
ROOT
ATOM      1  N   UNL     1       7.761   8.845  17.407  0.00  0.00    +0.000 N 
ATOM      2  C   UNL     1       7.624   7.461  17.657  0.00  0.00    +0.000 A 
ATOM      3  N   UNL     1       7.086   6.730  16.662  0.00  0.00    +0.000 NA
ATOM      4  C   UNL     1       7.009   5.393  16.836  0.00  0.00    +0.000 A 
ATOM      5  C   UNL     1       6.434   4.579  15.717  0.00  0.00    +0.000 C 
ATOM      6  C   UNL     1       7.433   4.772  17.987  0.00  0.00    +0.000 A 
ATOM      7  C   UNL     1       7.948   5.604  18.947  0.00  0.00    +0.000 A 
ATOM      8  N   UNL     1       8.053   6.925  18.813  0.00  0.00    +0.000 NA
ATOM      9  H   UNL     1       7.562   8.990  16.422  0.00  0.00    +0.000 HD
ENDROOT
BRANCH   1  11
ATOM     10  C   UNL     1       8.824  10.747  18.062  0.00  0.00    +0.000 C 
ATOM     11  N   UNL     1       8.836   9.453  17.982  0.00  0.00    +0.000 NA
BRANCH  10  17
ATOM     12  C   UNL     1      10.232  11.582  19.991  0.00  0.00    +0.000 A 
ATOM     13  C   UNL     1      11.382  12.253  20.428  0.00  0.00    +0.000 A 
ATOM     14  C   UNL     1      12.255  12.852  19.514  0.00  0.00    +0.000 A 
ATOM     15  C   UNL     1      12.004  12.767  18.152  0.00  0.00    +0.000 A 
ATOM     16  C   UNL     1      10.893  12.058  17.702  0.00  0.00    +0.000 A 
ATOM     17  C   UNL     1      10.008  11.455  18.610  0.00  0.00    +0.000 A 
BRANCH  12  19
ATOM     18  C   UNL     1       8.791  11.946  21.822  0.00  0.00    +0.000 C 
ATOM     19  O   UNL     1       9.316  11.036  20.855  0.00  0.00    +0.000 OA
ENDBRANCH  12  19
ENDBRANCH  10  17
ENDBRANCH   1  11
BRANCH   7  20
ATOM     20  O   UNL     1       8.408   5.107  20.135  0.00  0.00    +0.000 OA
ATOM     21  H   UNL     1       8.859   5.819  20.611  0.00  0.00    +0.000 HD
ENDBRANCH   7  20
TORSDOF 4
ENDMDL
MODEL 2
REMARK VINA RESULT:      -7.4      4.225      8.315
REMARK  Name = 
REMARK  6 active torsions:
REMARK  status: ('A' for Active; 'I' for Inactive)
REMARK    1  A    between atoms: C_1  and  O_2
REMARK    2  A    between atoms: O_2  and  C_3
REMARK    3  A    between atoms: C_8  and  C_9
REMARK    4  A    between atoms: N_10  and  N_11
REMARK    5  A    between atoms: C_14  and  C_15
REMARK    6  A    between atoms: C_17  and  O_18
REMARK                            x       y       z     vdW  Elec       q    Type
REMARK                         _______ _______ _______ _____ _____    ______ ____
ROOT
ATOM      1  N   UNL     1       5.297   5.725  16.419  0.00  0.00    +0.000 N 
ATOM      2  C   UNL     1       6.352   6.191  17.236  0.00  0.00    +0.000 A 
ATOM      3  N   UNL     1       6.808   7.429  16.964  0.00  0.00    +0.000 NA
ATOM      4  C   UNL     1       7.765   7.936  17.770  0.00  0.00    +0.000 A 
ATOM      5  C   UNL     1       8.252   9.324  17.482  0.00  0.00    +0.000 C 
ATOM      6  C   UNL     1       8.293   7.231  18.826  0.00  0.00    +0.000 A 
ATOM      7  C   UNL     1       7.775   5.975  19.010  0.00  0.00    +0.000 A 
ATOM      8  N   UNL     1       6.824   5.439  18.246  0.00  0.00    +0.000 NA
ATOM      9  H   UNL     1       4.976   6.515  15.869  0.00  0.00    +0.000 HD
ENDROOT
BRANCH   1  11
ATOM     10  C   UNL     1       3.451   5.452  17.722  0.00  0.00    +0.000 C 
ATOM     11  N   UNL     1       4.393   4.902  17.022  0.00  0.00    +0.000 NA
BRANCH  10  17
ATOM     12  C   UNL     1       2.035   4.910  19.747  0.00  0.00    +0.000 A 
ATOM     13  C   UNL     1       1.117   4.052  20.368  0.00  0.00    +0.000 A 
ATOM     14  C   UNL     1       0.718   2.861  19.753  0.00  0.00    +0.000 A 
ATOM     15  C   UNL     1       1.210   2.525  18.500  0.00  0.00    +0.000 A 
ATOM     16  C   UNL     1       2.081   3.394  17.849  0.00  0.00    +0.000 A 
ATOM     17  C   UNL     1       2.492   4.591  18.457  0.00  0.00    +0.000 A 
BRANCH  12  19
ATOM     18  C   UNL     1       1.497   7.021  20.652  0.00  0.00    +0.000 C 
ATOM     19  O   UNL     1       2.502   6.055  20.341  0.00  0.00    +0.000 OA
ENDBRANCH  12  19
ENDBRANCH  10  17
ENDBRANCH   1  11
BRANCH   7  20
ATOM     20  O   UNL     1       8.213   5.176  20.029  0.00  0.00    +0.000 OA
ATOM     21  H   UNL     1       8.713   5.721  20.653  0.00  0.00    +0.000 HD
ENDBRANCH   7  20
TORSDOF 4
ENDMDL
MODEL 3
REMARK VINA RESULT:      -7.1      1.476      1.718
REMARK  Name = 
REMARK  6 active torsions:
REMARK  status: ('A' for Active; 'I' for Inactive)
REMARK    1  A    between atoms: C_1  and  O_2
REMARK    2  A    between atoms: O_2  and  C_3
REMARK    3  A    between atoms: C_8  and  C_9
REMARK    4  A    between atoms: N_10  and  N_11
REMARK    5  A    between atoms: C_14  and  C_15
REMARK    6  A    between atoms: C_17  and  O_18
REMARK                            x       y       z     vdW  Elec       q    Type
REMARK                         _______ _______ _______ _____ _____    ______ ____
ROOT
ATOM      1  N   UNL     1       7.691   8.833  17.344  0.00  0.00    +0.000 N 
ATOM      2  C   UNL     1       7.629   7.456  17.653  0.00  0.00    +0.000 A 
ATOM      3  N   UNL     1       7.326   6.633  16.630  0.00  0.00    +0.000 NA
ATOM      4  C   UNL     1       7.332   5.304  16.871  0.00  0.00    +0.000 A 
ATOM      5  C   UNL     1       7.020   4.389  15.726  0.00  0.00    +0.000 C 
ATOM      6  C   UNL     1       7.610   4.778  18.111  0.00  0.00    +0.000 A 
ATOM      7  C   UNL     1       7.889   5.698  19.089  0.00  0.00    +0.000 A 
ATOM      8  N   UNL     1       7.905   7.016  18.893  0.00  0.00    +0.000 NA
ATOM      9  H   UNL     1       7.646   8.914  16.333  0.00  0.00    +0.000 HD
ENDROOT
BRANCH   1  11
ATOM     10  C   UNL     1       8.529  10.856  17.965  0.00  0.00    +0.000 C 
ATOM     11  N   UNL     1       8.602   9.564  18.046  0.00  0.00    +0.000 NA
BRANCH  10  17
ATOM     12  C   UNL     1       9.412  13.080  18.785  0.00  0.00    +0.000 A 
ATOM     13  C   UNL     1      10.413  13.793  19.460  0.00  0.00    +0.000 A 
ATOM     14  C   UNL     1      11.563  13.149  19.926  0.00  0.00    +0.000 A 
ATOM     15  C   UNL     1      11.716  11.781  19.748  0.00  0.00    +0.000 A 
ATOM     16  C   UNL     1      10.707  11.052  19.126  0.00  0.00    +0.000 A 
ATOM     17  C   UNL     1       9.548  11.688  18.651  0.00  0.00    +0.000 A 
BRANCH  12  19
ATOM     18  C   UNL     1       8.403  15.097  18.097  0.00  0.00    +0.000 C 
ATOM     19  O   UNL     1       8.299  13.682  18.255  0.00  0.00    +0.000 OA
ENDBRANCH  12  19
ENDBRANCH  10  17
ENDBRANCH   1  11
BRANCH   7  20
ATOM     20  O   UNL     1       8.186   5.302  20.364  0.00  0.00    +0.000 OA
ATOM     21  H   UNL     1       8.640   6.029  20.813  0.00  0.00    +0.000 HD
ENDBRANCH   7  20
TORSDOF 4
ENDMDL
MODEL 4
REMARK VINA RESULT:      -6.9      1.225      2.146
REMARK  Name = 
REMARK  6 active torsions:
REMARK  status: ('A' for Active; 'I' for Inactive)
REMARK    1  A    between atoms: C_1  and  O_2
REMARK    2  A    between atoms: O_2  and  C_3
REMARK    3  A    between atoms: C_8  and  C_9
REMARK    4  A    between atoms: N_10  and  N_11
REMARK    5  A    between atoms: C_14  and  C_15
REMARK    6  A    between atoms: C_17  and  O_18
REMARK                            x       y       z     vdW  Elec       q    Type
REMARK                         _______ _______ _______ _____ _____    ______ ____
ROOT
ATOM      1  N   UNL     1       7.760   8.836  17.320  0.00  0.00    +0.000 N 
ATOM      2  C   UNL     1       7.646   7.454  17.592  0.00  0.00    +0.000 A 
ATOM      3  N   UNL     1       7.374   6.664  16.536  0.00  0.00    +0.000 NA
ATOM      4  C   UNL     1       7.331   5.330  16.745  0.00  0.00    +0.000 A 
ATOM      5  C   UNL     1       7.054   4.451  15.563  0.00  0.00    +0.000 C 
ATOM      6  C   UNL     1       7.530   4.769  17.984  0.00  0.00    +0.000 A 
ATOM      7  C   UNL     1       7.783   5.658  18.997  0.00  0.00    +0.000 A 
ATOM      8  N   UNL     1       7.844   6.979  18.834  0.00  0.00    +0.000 NA
ATOM      9  H   UNL     1       7.771   8.941  16.310  0.00  0.00    +0.000 HD
ENDROOT
BRANCH   1  11
ATOM     10  C   UNL     1       8.500  10.809  18.181  0.00  0.00    +0.000 C 
ATOM     11  N   UNL     1       8.653   9.525  18.085  0.00  0.00    +0.000 NA
BRANCH  10  17
ATOM     12  C   UNL     1      10.383  12.493  18.309  0.00  0.00    +0.000 A 
ATOM     13  C   UNL     1      11.283  13.222  19.100  0.00  0.00    +0.000 A 
ATOM     14  C   UNL     1      11.350  13.020  20.482  0.00  0.00    +0.000 A 
ATOM     15  C   UNL     1      10.504  12.107  21.095  0.00  0.00    +0.000 A 
ATOM     16  C   UNL     1       9.570  11.415  20.329  0.00  0.00    +0.000 A 
ATOM     17  C   UNL     1       9.494  11.607  18.940  0.00  0.00    +0.000 A 
BRANCH  12  19
ATOM     18  C   UNL     1      11.412  13.338  16.363  0.00  0.00    +0.000 C 
ATOM     19  O   UNL     1      10.328  12.613  16.944  0.00  0.00    +0.000 OA
ENDBRANCH  12  19
ENDBRANCH  10  17
ENDBRANCH   1  11
BRANCH   7  20
ATOM     20  O   UNL     1       8.002   5.225  20.275  0.00  0.00    +0.000 OA
ATOM     21  H   UNL     1       8.282   4.299  20.241  0.00  0.00    +0.000 HD
ENDBRANCH   7  20
TORSDOF 4
ENDMDL
MODEL 5
REMARK VINA RESULT:      -6.9      5.449      8.252
REMARK  Name = 
REMARK  6 active torsions:
REMARK  status: ('A' for Active; 'I' for Inactive)
REMARK    1  A    between atoms: C_1  and  O_2
REMARK    2  A    between atoms: O_2  and  C_3
REMARK    3  A    between atoms: C_8  and  C_9
REMARK    4  A    between atoms: N_10  and  N_11
REMARK    5  A    between atoms: C_14  and  C_15
REMARK    6  A    between atoms: C_17  and  O_18
REMARK                            x       y       z     vdW  Elec       q    Type
REMARK                         _______ _______ _______ _____ _____    ______ ____
ROOT
ATOM      1  N   UNL     1       2.705   6.203  19.899  0.00  0.00    +0.000 N 
ATOM      2  C   UNL     1       2.020   7.439  19.923  0.00  0.00    +0.000 A 
ATOM      3  N   UNL     1       1.579   7.848  21.128  0.00  0.00    +0.000 NA
ATOM      4  C   UNL     1       0.987   9.059  21.201  0.00  0.00    +0.000 A 
ATOM      5  C   UNL     1       0.520   9.524  22.547  0.00  0.00    +0.000 C 
ATOM      6  C   UNL     1       0.803   9.861  20.099  0.00  0.00    +0.000 A 
ATOM      7  C   UNL     1       1.271   9.348  18.916  0.00  0.00    +0.000 A 
ATOM      8  N   UNL     1       1.870   8.164  18.801  0.00  0.00    +0.000 NA
ATOM      9  H   UNL     1       2.871   5.936  20.864  0.00  0.00    +0.000 HD
ENDROOT
BRANCH   1  11
ATOM     10  C   UNL     1       3.930   4.916  18.477  0.00  0.00    +0.000 C 
ATOM     11  N   UNL     1       3.704   6.090  18.980  0.00  0.00    +0.000 NA
BRANCH  10  17
ATOM     12  C   UNL     1       6.398   4.736  17.953  0.00  0.00    +0.000 A 
ATOM     13  C   UNL     1       7.406   4.542  16.998  0.00  0.00    +0.000 A 
ATOM     14  C   UNL     1       7.095   4.422  15.640  0.00  0.00    +0.000 A 
ATOM     15  C   UNL     1       5.772   4.469  15.221  0.00  0.00    +0.000 A 
ATOM     16  C   UNL     1       4.758   4.609  16.165  0.00  0.00    +0.000 A 
ATOM     17  C   UNL     1       5.058   4.733  17.531  0.00  0.00    +0.000 A 
BRANCH  12  19
ATOM     18  C   UNL     1       7.820   5.713  19.560  0.00  0.00    +0.000 C 
ATOM     19  O   UNL     1       6.663   4.923  19.286  0.00  0.00    +0.000 OA
ENDBRANCH  12  19
ENDBRANCH  10  17
ENDBRANCH   1  11
BRANCH   7  20
ATOM     20  O   UNL     1       1.152  10.051  17.749  0.00  0.00    +0.000 OA
ATOM     21  H   UNL     1       2.023  10.097  17.330  0.00  0.00    +0.000 HD
ENDBRANCH   7  20
TORSDOF 4
ENDMDL
MODEL 6
REMARK VINA RESULT:      -6.8      3.670      8.449
REMARK  Name = 
REMARK  6 active torsions:
REMARK  status: ('A' for Active; 'I' for Inactive)
REMARK    1  A    between atoms: C_1  and  O_2
REMARK    2  A    between atoms: O_2  and  C_3
REMARK    3  A    between atoms: C_8  and  C_9
REMARK    4  A    between atoms: N_10  and  N_11
REMARK    5  A    between atoms: C_14  and  C_15
REMARK    6  A    between atoms: C_17  and  O_18
REMARK                            x       y       z     vdW  Elec       q    Type
REMARK                         _______ _______ _______ _____ _____    ______ ____
ROOT
ATOM      1  N   UNL     1       5.623   5.672  16.162  0.00  0.00    +0.000 N 
ATOM      2  C   UNL     1       6.565   6.159  17.096  0.00  0.00    +0.000 A 
ATOM      3  N   UNL     1       6.983   7.425  16.909  0.00  0.00    +0.000 NA
ATOM      4  C   UNL     1       7.826   7.949  17.826  0.00  0.00    +0.000 A 
ATOM      5  C   UNL     1       8.270   9.367  17.630  0.00  0.00    +0.000 C 
ATOM      6  C   UNL     1       8.278   7.234  18.909  0.00  0.00    +0.000 A 
ATOM      7  C   UNL     1       7.808   5.949  19.002  0.00  0.00    +0.000 A 
ATOM      8  N   UNL     1       6.968   5.396  18.127  0.00  0.00    +0.000 NA
ATOM      9  H   UNL     1       5.320   6.465  15.605  0.00  0.00    +0.000 HD
ENDROOT
BRANCH   1  11
ATOM     10  C   UNL     1       3.936   5.182  17.609  0.00  0.00    +0.000 C 
ATOM     11  N   UNL     1       4.705   4.787  16.643  0.00  0.00    +0.000 NA
BRANCH  10  17
ATOM     12  C   UNL     1       3.373   3.256  19.148  0.00  0.00    +0.000 A 
ATOM     13  C   UNL     1       2.401   2.399  19.684  0.00  0.00    +0.000 A 
ATOM     14  C   UNL     1       1.074   2.456  19.247  0.00  0.00    +0.000 A 
ATOM     15  C   UNL     1       0.695   3.385  18.288  0.00  0.00    +0.000 A 
ATOM     16  C   UNL     1       1.639   4.276  17.785  0.00  0.00    +0.000 A 
ATOM     17  C   UNL     1       2.975   4.227  18.214  0.00  0.00    +0.000 A 
BRANCH  12  19
ATOM     18  C   UNL     1       5.041   2.078  20.327  0.00  0.00    +0.000 C 
ATOM     19  O   UNL     1       4.697   3.190  19.501  0.00  0.00    +0.000 OA
ENDBRANCH  12  19
ENDBRANCH  10  17
ENDBRANCH   1  11
BRANCH   7  20
ATOM     20  O   UNL     1       8.180   5.136  20.036  0.00  0.00    +0.000 OA
ATOM     21  H   UNL     1       8.155   5.652  20.855  0.00  0.00    +0.000 HD
ENDBRANCH   7  20
TORSDOF 4
ENDMDL
MODEL 7
REMARK VINA RESULT:      -6.8      1.027      1.152
REMARK  Name = 
REMARK  6 active torsions:
REMARK  status: ('A' for Active; 'I' for Inactive)
REMARK    1  A    between atoms: C_1  and  O_2
REMARK    2  A    between atoms: O_2  and  C_3
REMARK    3  A    between atoms: C_8  and  C_9
REMARK    4  A    between atoms: N_10  and  N_11
REMARK    5  A    between atoms: C_14  and  C_15
REMARK    6  A    between atoms: C_17  and  O_18
REMARK                            x       y       z     vdW  Elec       q    Type
REMARK                         _______ _______ _______ _____ _____    ______ ____
ROOT
ATOM      1  N   UNL     1       7.038   8.422  17.457  0.00  0.00    +0.000 N 
ATOM      2  C   UNL     1       7.012   7.040  17.167  0.00  0.00    +0.000 A 
ATOM      3  N   UNL     1       6.200   6.661  16.161  0.00  0.00    +0.000 NA
ATOM      4  C   UNL     1       6.205   5.358  15.807  0.00  0.00    +0.000 A 
ATOM      5  C   UNL     1       5.320   4.943  14.671  0.00  0.00    +0.000 C 
ATOM      6  C   UNL     1       6.983   4.421  16.446  0.00  0.00    +0.000 A 
ATOM      7  C   UNL     1       7.762   4.902  17.467  0.00  0.00    +0.000 A 
ATOM      8  N   UNL     1       7.795   6.180  17.842  0.00  0.00    +0.000 NA
ATOM      9  H   UNL     1       6.535   8.892  16.710  0.00  0.00    +0.000 HD
ENDROOT
BRANCH   1  11
ATOM     10  C   UNL     1       8.258  10.155  18.287  0.00  0.00    +0.000 C 
ATOM     11  N   UNL     1       8.229   8.920  17.893  0.00  0.00    +0.000 NA
BRANCH  10  17
ATOM     12  C   UNL     1       9.860  11.021  20.042  0.00  0.00    +0.000 A 
ATOM     13  C   UNL     1      11.109  11.581  20.348  0.00  0.00    +0.000 A 
ATOM     14  C   UNL     1      12.001  11.944  19.335  0.00  0.00    +0.000 A 
ATOM     15  C   UNL     1      11.669  11.729  18.004  0.00  0.00    +0.000 A 
ATOM     16  C   UNL     1      10.455  11.126  17.688  0.00  0.00    +0.000 A 
ATOM     17  C   UNL     1       9.550  10.760  18.697  0.00  0.00    +0.000 A 
BRANCH  12  19
ATOM     18  C   UNL     1       8.622  11.774  21.902  0.00  0.00    +0.000 C 
ATOM     19  O   UNL     1       8.930  10.711  21.001  0.00  0.00    +0.000 OA
ENDBRANCH  12  19
ENDBRANCH  10  17
ENDBRANCH   1  11
BRANCH   7  20
ATOM     20  O   UNL     1       8.583   4.071  18.177  0.00  0.00    +0.000 OA
ATOM     21  H   UNL     1       8.270   4.041  19.092  0.00  0.00    +0.000 HD
ENDBRANCH   7  20
TORSDOF 4
ENDMDL
MODEL 8
REMARK VINA RESULT:      -6.7      6.151      8.168
REMARK  Name = 
REMARK  6 active torsions:
REMARK  status: ('A' for Active; 'I' for Inactive)
REMARK    1  A    between atoms: C_1  and  O_2
REMARK    2  A    between atoms: O_2  and  C_3
REMARK    3  A    between atoms: C_8  and  C_9
REMARK    4  A    between atoms: N_10  and  N_11
REMARK    5  A    between atoms: C_14  and  C_15
REMARK    6  A    between atoms: C_17  and  O_18
REMARK                            x       y       z     vdW  Elec       q    Type
REMARK                         _______ _______ _______ _____ _____    ______ ____
ROOT
ATOM      1  N   UNL     1       4.782   3.025  16.995  0.00  0.00    +0.000 N 
ATOM      2  C   UNL     1       5.625   3.730  16.106  0.00  0.00    +0.000 A 
ATOM      3  N   UNL     1       5.609   3.319  14.824  0.00  0.00    +0.000 NA
ATOM      4  C   UNL     1       6.345   4.017  13.932  0.00  0.00    +0.000 A 
ATOM      5  C   UNL     1       6.305   3.574  12.500  0.00  0.00    +0.000 C 
ATOM      6  C   UNL     1       7.114   5.099  14.292  0.00  0.00    +0.000 A 
ATOM      7  C   UNL     1       7.076   5.427  15.623  0.00  0.00    +0.000 A 
ATOM      8  N   UNL     1       6.357   4.774  16.534  0.00  0.00    +0.000 NA
ATOM      9  H   UNL     1       4.189   2.426  16.429  0.00  0.00    +0.000 HD
ENDROOT
BRANCH   1  11
ATOM     10  C   UNL     1       3.158   4.420  17.765  0.00  0.00    +0.000 C 
ATOM     11  N   UNL     1       4.242   3.753  18.012  0.00  0.00    +0.000 NA
BRANCH  10  17
ATOM     12  C   UNL     1       1.873   4.763  19.917  0.00  0.00    +0.000 A 
ATOM     13  C   UNL     1       1.369   5.648  20.880  0.00  0.00    +0.000 A 
ATOM     14  C   UNL     1       1.497   7.032  20.720  0.00  0.00    +0.000 A 
ATOM     15  C   UNL     1       2.153   7.547  19.610  0.00  0.00    +0.000 A 
ATOM     16  C   UNL     1       2.704   6.677  18.673  0.00  0.00    +0.000 A 
ATOM     17  C   UNL     1       2.578   5.286  18.821  0.00  0.00    +0.000 A 
BRANCH  12  19
ATOM     18  C   UNL     1       1.336   2.924  21.294  0.00  0.00    +0.000 C 
ATOM     19  O   UNL     1       1.712   3.403  20.002  0.00  0.00    +0.000 OA
ENDBRANCH  12  19
ENDBRANCH  10  17
ENDBRANCH   1  11
BRANCH   7  20
ATOM     20  O   UNL     1       7.794   6.486  16.107  0.00  0.00    +0.000 OA
ATOM     21  H   UNL     1       8.400   6.786  15.415  0.00  0.00    +0.000 HD
ENDBRANCH   7  20
TORSDOF 4
ENDMDL
MODEL 9
REMARK VINA RESULT:      -6.4      6.356      8.582
REMARK  Name = 
REMARK  6 active torsions:
REMARK  status: ('A' for Active; 'I' for Inactive)
REMARK    1  A    between atoms: C_1  and  O_2
REMARK    2  A    between atoms: O_2  and  C_3
REMARK    3  A    between atoms: C_8  and  C_9
REMARK    4  A    between atoms: N_10  and  N_11
REMARK    5  A    between atoms: C_14  and  C_15
REMARK    6  A    between atoms: C_17  and  O_18
REMARK                            x       y       z     vdW  Elec       q    Type
REMARK                         _______ _______ _______ _____ _____    ______ ____
ROOT
ATOM      1  N   UNL     1       6.604   4.101  18.319  0.00  0.00    +0.000 N 
ATOM      2  C   UNL     1       6.283   4.836  17.156  0.00  0.00    +0.000 A 
ATOM      3  N   UNL     1       6.893   4.444  16.021  0.00  0.00    +0.000 NA
ATOM      4  C   UNL     1       6.554   5.075  14.876  0.00  0.00    +0.000 A 
ATOM      5  C   UNL     1       7.215   4.620  13.610  0.00  0.00    +0.000 C 
ATOM      6  C   UNL     1       5.638   6.101  14.840  0.00  0.00    +0.000 A 
ATOM      7  C   UNL     1       5.086   6.437  16.049  0.00  0.00    +0.000 A 
ATOM      8  N   UNL     1       5.384   5.835  17.200  0.00  0.00    +0.000 NA
ATOM      9  H   UNL     1       7.135   3.289  18.020  0.00  0.00    +0.000 HD
ENDROOT
BRANCH   1  11
ATOM     10  C   UNL     1       4.472   3.487  18.822  0.00  0.00    +0.000 C 
ATOM     11  N   UNL     1       5.605   3.962  19.235  0.00  0.00    +0.000 NA
BRANCH  10  17
ATOM     12  C   UNL     1       2.247   4.281  19.726  0.00  0.00    +0.000 A 
ATOM     13  C   UNL     1       1.202   4.114  20.646  0.00  0.00    +0.000 A 
ATOM     14  C   UNL     1       1.269   3.130  21.637  0.00  0.00    +0.000 A 
ATOM     15  C   UNL     1       2.367   2.284  21.706  0.00  0.00    +0.000 A 
ATOM     16  C   UNL     1       3.387   2.405  20.766  0.00  0.00    +0.000 A 
ATOM     17  C   UNL     1       3.332   3.391  19.768  0.00  0.00    +0.000 A 
BRANCH  12  19
ATOM     18  C   UNL     1       2.519   6.582  19.286  0.00  0.00    +0.000 C 
ATOM     19  O   UNL     1       2.252   5.275  18.779  0.00  0.00    +0.000 OA
ENDBRANCH  12  19
ENDBRANCH  10  17
ENDBRANCH   1  11
BRANCH   7  20
ATOM     20  O   UNL     1       4.159   7.438  16.145  0.00  0.00    +0.000 OA
ATOM     21  H   UNL     1       3.335   7.060  16.483  0.00  0.00    +0.000 HD
ENDBRANCH   7  20
TORSDOF 4
ENDMDL
