MODEL 1
REMARK VINA RESULT:      -8.0      0.000      0.000
REMARK  Name = 
REMARK  8 active torsions:
REMARK  status: ('A' for Active; 'I' for Inactive)
REMARK    1  A    between atoms: C_1  and  O_2
REMARK    2  A    between atoms: O_2  and  C_3
REMARK    3  A    between atoms: C_6  and  N_7
REMARK    4  A    between atoms: C_8  and  C_10
REMARK    5  A    between atoms: C_13  and  N_14
REMARK    6  A    between atoms: N_14  and  C_15
REMARK    7  A    between atoms: C_15  and  C_16
REMARK    8  A    between atoms: C_15  and  C_17
REMARK                            x       y       z     vdW  Elec       q    Type
REMARK                         _______ _______ _______ _____ _____    ______ ____
ROOT
ATOM      1  C   UNL     1       1.261   9.003  19.213  0.00  0.00    +0.000 A 
ATOM      2  C   UNL     1       1.606   7.904  20.008  0.00  0.00    +0.000 A 
ATOM      3  C   UNL     1       2.564   6.988  19.575  0.00  0.00    +0.000 A 
ATOM      4  C   UNL     1       3.176   7.117  18.324  0.00  0.00    +0.000 A 
ATOM      5  C   UNL     1       2.746   8.161  17.497  0.00  0.00    +0.000 A 
ATOM      6  C   UNL     1       1.815   9.114  17.937  0.00  0.00    +0.000 A 
ENDROOT
BRANCH   1   8
ATOM      7  N   UNL     1       0.690  10.619  20.971  0.00  0.00    +0.000 N 
ATOM      8  C   UNL     1       0.308   9.986  19.794  0.00  0.00    +0.000 C 
ATOM      9  O   UNL     1      -0.747  10.152  19.200  0.00  0.00    +0.000 OA
ATOM     10  H   UNL     1       1.637  10.488  21.309  0.00  0.00    +0.000 HD
BRANCH   7  14
ATOM     11  C   UNL     1      -1.764  13.214  23.234  0.00  0.00    +0.000 A 
ATOM     12  C   UNL     1      -1.935  11.838  23.331  0.00  0.00    +0.000 A 
ATOM     13  C   UNL     1      -1.124  10.968  22.602  0.00  0.00    +0.000 A 
ATOM     14  C   UNL     1      -0.136  11.463  21.747  0.00  0.00    +0.000 A 
ATOM     15  C   UNL     1       0.051  12.846  21.666  0.00  0.00    +0.000 A 
ATOM     16  C   UNL     1      -0.772  13.721  22.394  0.00  0.00    +0.000 A 
BRANCH  11  18
ATOM     17  C   UNL     1      -3.802  13.269  24.427  0.00  0.00    +0.000 C 
ATOM     18  O   UNL     1      -2.643  13.954  23.973  0.00  0.00    +0.000 OA
ENDBRANCH  11  18
ENDBRANCH   7  14
ENDBRANCH   1   8
BRANCH   4  19
ATOM     19  N   UNL     1       4.186   6.233  17.984  0.00  0.00    +0.000 N 
ATOM     20  H   UNL     1       5.101   6.408  18.386  0.00  0.00    +0.000 HD
BRANCH  19  21
ATOM     21  C   UNL     1       3.947   4.837  17.585  0.00  0.00    +0.000 C 
ATOM     22  C   UNL     1       4.869   4.495  16.407  0.00  0.00    +0.000 C 
BRANCH  21  23
ATOM     23  C   UNL     1       4.244   3.888  18.793  0.00  0.00    +0.000 C 
ATOM     24  O   UNL     1       5.382   3.799  19.266  0.00  0.00    +0.000 OA
ATOM     25  N   UNL     1       3.197   3.155  19.343  0.00  0.00    +0.000 N 
ATOM     26  C   UNL     1       1.811   3.094  18.870  0.00  0.00    +0.000 C 
ATOM     27  C   UNL     1       0.882   3.665  19.950  0.00  0.00    +0.000 C 
ATOM     28  O   UNL     1       1.038   2.943  21.185  0.00  0.00    +0.000 OA
ATOM     29  C   UNL     1       2.394   3.009  21.662  0.00  0.00    +0.000 C 
ATOM     30  C   UNL     1       3.384   2.460  20.621  0.00  0.00    +0.000 C 
ENDBRANCH  21  23
ENDBRANCH  19  21
ENDBRANCH   4  19
TORSDOF 6
ENDMDL
MODEL 2
REMARK VINA RESULT:      -7.9      0.525      1.085
REMARK  Name = 
REMARK  8 active torsions:
REMARK  status: ('A' for Active; 'I' for Inactive)
REMARK    1  A    between atoms: C_1  and  O_2
REMARK    2  A    between atoms: O_2  and  C_3
REMARK    3  A    between atoms: C_6  and  N_7
REMARK    4  A    between atoms: C_8  and  C_10
REMARK    5  A    between atoms: C_13  and  N_14
REMARK    6  A    between atoms: N_14  and  C_15
REMARK    7  A    between atoms: C_15  and  C_16
REMARK    8  A    between atoms: C_15  and  C_17
REMARK                            x       y       z     vdW  Elec       q    Type
REMARK                         _______ _______ _______ _____ _____    ______ ____
ROOT
ATOM      1  C   UNL     1       1.356   8.998  19.156  0.00  0.00    +0.000 A 
ATOM      2  C   UNL     1       1.676   7.905  19.970  0.00  0.00    +0.000 A 
ATOM      3  C   UNL     1       2.615   6.961  19.553  0.00  0.00    +0.000 A 
ATOM      4  C   UNL     1       3.232   7.057  18.302  0.00  0.00    +0.000 A 
ATOM      5  C   UNL     1       2.826   8.097  17.457  0.00  0.00    +0.000 A 
ATOM      6  C   UNL     1       1.916   9.078  17.880  0.00  0.00    +0.000 A 
ENDROOT
BRANCH   1   8
ATOM      7  N   UNL     1       0.862  10.727  20.828  0.00  0.00    +0.000 N 
ATOM      8  C   UNL     1       0.425  10.011  19.720  0.00  0.00    +0.000 C 
ATOM      9  O   UNL     1      -0.663  10.126  19.175  0.00  0.00    +0.000 OA
ATOM     10  H   UNL     1       1.827  10.628  21.122  0.00  0.00    +0.000 HD
BRANCH   7  14
ATOM     11  C   UNL     1      -1.529  13.316  23.165  0.00  0.00    +0.000 A 
ATOM     12  C   UNL     1      -0.597  13.844  22.279  0.00  0.00    +0.000 A 
ATOM     13  C   UNL     1       0.189  13.004  21.490  0.00  0.00    +0.000 A 
ATOM     14  C   UNL     1       0.068  11.615  21.589  0.00  0.00    +0.000 A 
ATOM     15  C   UNL     1      -0.884  11.084  22.463  0.00  0.00    +0.000 A 
ATOM     16  C   UNL     1      -1.670  11.931  23.263  0.00  0.00    +0.000 A 
BRANCH  11  18
ATOM     17  C   UNL     1      -1.426  15.034  24.783  0.00  0.00    +0.000 C 
ATOM     18  O   UNL     1      -2.211  14.244  23.900  0.00  0.00    +0.000 OA
ENDBRANCH  11  18
ENDBRANCH   7  14
ENDBRANCH   1   8
BRANCH   4  19
ATOM     19  N   UNL     1       4.223   6.146  17.978  0.00  0.00    +0.000 N 
ATOM     20  H   UNL     1       5.139   6.304  18.383  0.00  0.00    +0.000 HD
BRANCH  19  21
ATOM     21  C   UNL     1       3.954   4.752  17.592  0.00  0.00    +0.000 C 
ATOM     22  C   UNL     1       4.863   4.381  16.413  0.00  0.00    +0.000 C 
BRANCH  21  23
ATOM     23  C   UNL     1       4.238   3.808  18.808  0.00  0.00    +0.000 C 
ATOM     24  O   UNL     1       5.374   3.710  19.284  0.00  0.00    +0.000 OA
ATOM     25  N   UNL     1       3.182   3.090  19.361  0.00  0.00    +0.000 N 
ATOM     26  C   UNL     1       1.796   3.041  18.886  0.00  0.00    +0.000 C 
ATOM     27  C   UNL     1       0.872   3.630  19.960  0.00  0.00    +0.000 C 
ATOM     28  O   UNL     1       1.017   2.915  21.200  0.00  0.00    +0.000 OA
ATOM     29  C   UNL     1       2.374   2.969  21.679  0.00  0.00    +0.000 C 
ATOM     30  C   UNL     1       3.359   2.402  20.645  0.00  0.00    +0.000 C 
ENDBRANCH  21  23
ENDBRANCH  19  21
ENDBRANCH   4  19
TORSDOF 6
ENDMDL
MODEL 3
REMARK VINA RESULT:      -7.8      5.883      7.821
REMARK  Name = 
REMARK  8 active torsions:
REMARK  status: ('A' for Active; 'I' for Inactive)
REMARK    1  A    between atoms: C_1  and  O_2
REMARK    2  A    between atoms: O_2  and  C_3
REMARK    3  A    between atoms: C_6  and  N_7
REMARK    4  A    between atoms: C_8  and  C_10
REMARK    5  A    between atoms: C_13  and  N_14
REMARK    6  A    between atoms: N_14  and  C_15
REMARK    7  A    between atoms: C_15  and  C_16
REMARK    8  A    between atoms: C_15  and  C_17
REMARK                            x       y       z     vdW  Elec       q    Type
REMARK                         _______ _______ _______ _____ _____    ______ ____
ROOT
ATOM      1  C   UNL     1       7.751   7.795  18.137  0.00  0.00    +0.000 A 
ATOM      2  C   UNL     1       6.649   7.596  17.296  0.00  0.00    +0.000 A 
ATOM      3  C   UNL     1       5.993   6.366  17.266  0.00  0.00    +0.000 A 
ATOM      4  C   UNL     1       6.437   5.289  18.040  0.00  0.00    +0.000 A 
ATOM      5  C   UNL     1       7.601   5.471  18.796  0.00  0.00    +0.000 A 
ATOM      6  C   UNL     1       8.245   6.716  18.870  0.00  0.00    +0.000 A 
ENDROOT
BRANCH   1   8
ATOM      7  N   UNL     1       9.235   9.436  19.201  0.00  0.00    +0.000 N 
ATOM      8  C   UNL     1       8.326   9.165  18.184  0.00  0.00    +0.000 C 
ATOM      9  O   UNL     1       7.945   9.957  17.335  0.00  0.00    +0.000 OA
ATOM     10  H   UNL     1       9.563   8.670  19.777  0.00  0.00    +0.000 HD
BRANCH   7  14
ATOM     11  C   UNL     1      10.820  13.231  20.182  0.00  0.00    +0.000 A 
ATOM     12  C   UNL     1      11.088  12.668  18.939  0.00  0.00    +0.000 A 
ATOM     13  C   UNL     1      10.560  11.423  18.595  0.00  0.00    +0.000 A 
ATOM     14  C   UNL     1       9.768  10.711  19.499  0.00  0.00    +0.000 A 
ATOM     15  C   UNL     1       9.481  11.286  20.740  0.00  0.00    +0.000 A 
ATOM     16  C   UNL     1      10.019  12.536  21.089  0.00  0.00    +0.000 A 
BRANCH  11  18
ATOM     17  C   UNL     1      10.607  15.437  21.000  0.00  0.00    +0.000 C 
ATOM     18  O   UNL     1      11.423  14.437  20.407  0.00  0.00    +0.000 OA
ENDBRANCH  11  18
ENDBRANCH   7  14
ENDBRANCH   1   8
BRANCH   4  19
ATOM     19  N   UNL     1       5.694   4.121  18.042  0.00  0.00    +0.000 N 
ATOM     20  H   UNL     1       5.647   3.610  18.917  0.00  0.00    +0.000 HD
BRANCH  19  21
ATOM     21  C   UNL     1       4.575   3.865  17.120  0.00  0.00    +0.000 C 
ATOM     22  C   UNL     1       5.135   3.306  15.806  0.00  0.00    +0.000 C 
BRANCH  21  23
ATOM     23  C   UNL     1       3.590   2.835  17.766  0.00  0.00    +0.000 C 
ATOM     24  O   UNL     1       3.828   1.623  17.737  0.00  0.00    +0.000 OA
ATOM     25  N   UNL     1       2.442   3.309  18.395  0.00  0.00    +0.000 N 
ATOM     26  C   UNL     1       1.977   4.697  18.467  0.00  0.00    +0.000 C 
ATOM     27  C   UNL     1       1.968   5.152  19.933  0.00  0.00    +0.000 C 
ATOM     28  O   UNL     1       1.135   4.287  20.726  0.00  0.00    +0.000 OA
ATOM     29  C   UNL     1       1.593   2.924  20.669  0.00  0.00    +0.000 C 
ATOM     30  C   UNL     1       1.637   2.404  19.223  0.00  0.00    +0.000 C 
ENDBRANCH  21  23
ENDBRANCH  19  21
ENDBRANCH   4  19
TORSDOF 6
ENDMDL
MODEL 4
REMARK VINA RESULT:      -7.8      0.435      1.004
REMARK  Name = 
REMARK  8 active torsions:
REMARK  status: ('A' for Active; 'I' for Inactive)
REMARK    1  A    between atoms: C_1  and  O_2
REMARK    2  A    between atoms: O_2  and  C_3
REMARK    3  A    between atoms: C_6  and  N_7
REMARK    4  A    between atoms: C_8  and  C_10
REMARK    5  A    between atoms: C_13  and  N_14
REMARK    6  A    between atoms: N_14  and  C_15
REMARK    7  A    between atoms: C_15  and  C_16
REMARK    8  A    between atoms: C_15  and  C_17
REMARK                            x       y       z     vdW  Elec       q    Type
REMARK                         _______ _______ _______ _____ _____    ______ ____
ROOT
ATOM      1  C   UNL     1       1.547   8.725  19.339  0.00  0.00    +0.000 A 
ATOM      2  C   UNL     1       2.176   8.980  18.115  0.00  0.00    +0.000 A 
ATOM      3  C   UNL     1       3.074   8.060  17.573  0.00  0.00    +0.000 A 
ATOM      4  C   UNL     1       3.401   6.882  18.252  0.00  0.00    +0.000 A 
ATOM      5  C   UNL     1       2.844   6.690  19.522  0.00  0.00    +0.000 A 
ATOM      6  C   UNL     1       1.906   7.585  20.059  0.00  0.00    +0.000 A 
ENDROOT
BRANCH   1   8
ATOM      7  N   UNL     1       0.717  10.286  21.043  0.00  0.00    +0.000 N 
ATOM      8  C   UNL     1       0.528   9.708  19.793  0.00  0.00    +0.000 C 
ATOM      9  O   UNL     1      -0.410   9.922  19.039  0.00  0.00    +0.000 OA
ATOM     10  H   UNL     1       1.591  10.120  21.529  0.00  0.00    +0.000 HD
BRANCH   7  14
ATOM     11  C   UNL     1      -2.069  12.834  22.947  0.00  0.00    +0.000 A 
ATOM     12  C   UNL     1      -1.916  11.523  23.385  0.00  0.00    +0.000 A 
ATOM     13  C   UNL     1      -0.990  10.674  22.777  0.00  0.00    +0.000 A 
ATOM     14  C   UNL     1      -0.213  11.119  21.705  0.00  0.00    +0.000 A 
ATOM     15  C   UNL     1      -0.352  12.443  21.278  0.00  0.00    +0.000 A 
ATOM     16  C   UNL     1      -1.289  13.295  21.886  0.00  0.00    +0.000 A 
BRANCH  11  18
ATOM     17  C   UNL     1      -4.283  12.899  23.770  0.00  0.00    +0.000 C 
ATOM     18  O   UNL     1      -3.030  13.549  23.604  0.00  0.00    +0.000 OA
ENDBRANCH  11  18
ENDBRANCH   7  14
ENDBRANCH   1   8
BRANCH   4  19
ATOM     19  N   UNL     1       4.225   5.962  17.627  0.00  0.00    +0.000 N 
ATOM     20  H   UNL     1       5.223   6.137  17.673  0.00  0.00    +0.000 HD
BRANCH  19  21
ATOM     21  C   UNL     1       3.858   4.553  17.412  0.00  0.00    +0.000 C 
ATOM     22  C   UNL     1       4.651   4.013  16.215  0.00  0.00    +0.000 C 
BRANCH  21  23
ATOM     23  C   UNL     1       4.190   3.722  18.696  0.00  0.00    +0.000 C 
ATOM     24  O   UNL     1       5.334   3.703  19.162  0.00  0.00    +0.000 OA
ATOM     25  N   UNL     1       3.166   3.016  19.322  0.00  0.00    +0.000 N 
ATOM     26  C   UNL     1       1.778   2.880  18.872  0.00  0.00    +0.000 C 
ATOM     27  C   UNL     1       0.846   3.524  19.908  0.00  0.00    +0.000 C 
ATOM     28  O   UNL     1       1.031   2.918  21.200  0.00  0.00    +0.000 OA
ATOM     29  C   UNL     1       2.390   3.058  21.654  0.00  0.00    +0.000 C 
ATOM     30  C   UNL     1       3.383   2.443  20.654  0.00  0.00    +0.000 C 
ENDBRANCH  21  23
ENDBRANCH  19  21
ENDBRANCH   4  19
TORSDOF 6
ENDMDL
MODEL 5
REMARK VINA RESULT:      -7.6      6.203      8.322
REMARK  Name = 
REMARK  8 active torsions:
REMARK  status: ('A' for Active; 'I' for Inactive)
REMARK    1  A    between atoms: C_1  and  O_2
REMARK    2  A    between atoms: O_2  and  C_3
REMARK    3  A    between atoms: C_6  and  N_7
REMARK    4  A    between atoms: C_8  and  C_10
REMARK    5  A    between atoms: C_13  and  N_14
REMARK    6  A    between atoms: N_14  and  C_15
REMARK    7  A    between atoms: C_15  and  C_16
REMARK    8  A    between atoms: C_15  and  C_17
REMARK                            x       y       z     vdW  Elec       q    Type
REMARK                         _______ _______ _______ _____ _____    ______ ____
ROOT
ATOM      1  C   UNL     1       8.264   8.327  18.475  0.00  0.00    +0.000 A 
ATOM      2  C   UNL     1       7.417   8.231  17.364  0.00  0.00    +0.000 A 
ATOM      3  C   UNL     1       6.753   7.038  17.080  0.00  0.00    +0.000 A 
ATOM      4  C   UNL     1       6.941   5.899  17.868  0.00  0.00    +0.000 A 
ATOM      5  C   UNL     1       7.870   5.980  18.913  0.00  0.00    +0.000 A 
ATOM      6  C   UNL     1       8.512   7.185  19.237  0.00  0.00    +0.000 A 
ENDROOT
BRANCH   1   8
ATOM      7  N   UNL     1       8.853  10.591  17.730  0.00  0.00    +0.000 N 
ATOM      8  C   UNL     1       8.851   9.662  18.764  0.00  0.00    +0.000 C 
ATOM      9  O   UNL     1       9.304   9.838  19.886  0.00  0.00    +0.000 OA
ATOM     10  H   UNL     1       8.346  10.374  16.880  0.00  0.00    +0.000 HD
BRANCH   7  14
ATOM     11  C   UNL     1      10.707  14.388  17.887  0.00  0.00    +0.000 A 
ATOM     12  C   UNL     1      11.473  13.252  17.648  0.00  0.00    +0.000 A 
ATOM     13  C   UNL     1      10.874  11.994  17.579  0.00  0.00    +0.000 A 
ATOM     14  C   UNL     1       9.497  11.849  17.766  0.00  0.00    +0.000 A 
ATOM     15  C   UNL     1       8.724  12.993  17.985  0.00  0.00    +0.000 A 
ATOM     16  C   UNL     1       9.329  14.259  18.062  0.00  0.00    +0.000 A 
BRANCH  11  18
ATOM     17  C   UNL     1      11.072  16.555  17.017  0.00  0.00    +0.000 C 
ATOM     18  O   UNL     1      11.419  15.553  17.963  0.00  0.00    +0.000 OA
ENDBRANCH  11  18
ENDBRANCH   7  14
ENDBRANCH   1   8
BRANCH   4  19
ATOM     19  N   UNL     1       6.186   4.771  17.597  0.00  0.00    +0.000 N 
ATOM     20  H   UNL     1       6.258   4.003  18.256  0.00  0.00    +0.000 HD
BRANCH  19  21
ATOM     21  C   UNL     1       4.941   4.793  16.812  0.00  0.00    +0.000 C 
ATOM     22  C   UNL     1       5.227   4.221  15.417  0.00  0.00    +0.000 C 
BRANCH  21  23
ATOM     23  C   UNL     1       3.852   3.931  17.533  0.00  0.00    +0.000 C 
ATOM     24  O   UNL     1       3.930   2.698  17.557  0.00  0.00    +0.000 OA
ATOM     25  N   UNL     1       2.797   4.579  18.169  0.00  0.00    +0.000 N 
ATOM     26  C   UNL     1       2.520   6.018  18.186  0.00  0.00    +0.000 C 
ATOM     27  C   UNL     1       2.619   6.535  19.628  0.00  0.00    +0.000 C 
ATOM     28  O   UNL     1       1.706   5.824  20.484  0.00  0.00    +0.000 OA
ATOM     29  C   UNL     1       1.980   4.411  20.481  0.00  0.00    +0.000 C 
ATOM     30  C   UNL     1       1.909   3.826  19.061  0.00  0.00    +0.000 C 
ENDBRANCH  21  23
ENDBRANCH  19  21
ENDBRANCH   4  19
TORSDOF 6
ENDMDL
MODEL 6
REMARK VINA RESULT:      -7.4      1.176      1.274
REMARK  Name = 
REMARK  8 active torsions:
REMARK  status: ('A' for Active; 'I' for Inactive)
REMARK    1  A    between atoms: C_1  and  O_2
REMARK    2  A    between atoms: O_2  and  C_3
REMARK    3  A    between atoms: C_6  and  N_7
REMARK    4  A    between atoms: C_8  and  C_10
REMARK    5  A    between atoms: C_13  and  N_14
REMARK    6  A    between atoms: N_14  and  C_15
REMARK    7  A    between atoms: C_15  and  C_16
REMARK    8  A    between atoms: C_15  and  C_17
REMARK                            x       y       z     vdW  Elec       q    Type
REMARK                         _______ _______ _______ _____ _____    ______ ____
ROOT
ATOM      1  C   UNL     1       1.378   8.668  19.564  0.00  0.00    +0.000 A 
ATOM      2  C   UNL     1       1.804   7.494  20.197  0.00  0.00    +0.000 A 
ATOM      3  C   UNL     1       2.729   6.651  19.581  0.00  0.00    +0.000 A 
ATOM      4  C   UNL     1       3.225   6.931  18.304  0.00  0.00    +0.000 A 
ATOM      5  C   UNL     1       2.713   8.053  17.641  0.00  0.00    +0.000 A 
ATOM      6  C   UNL     1       1.816   8.933  18.266  0.00  0.00    +0.000 A 
ENDROOT
BRANCH   1   8
ATOM      7  N   UNL     1       0.171  10.796  19.771  0.00  0.00    +0.000 N 
ATOM      8  C   UNL     1       0.472   9.561  20.334  0.00  0.00    +0.000 C 
ATOM      9  O   UNL     1       0.071   9.148  21.412  0.00  0.00    +0.000 OA
ATOM     10  H   UNL     1       0.467  10.983  18.820  0.00  0.00    +0.000 HD
BRANCH   7  14
ATOM     11  C   UNL     1      -1.884  13.932  21.725  0.00  0.00    +0.000 A 
ATOM     12  C   UNL     1      -2.511  13.220  20.708  0.00  0.00    +0.000 A 
ATOM     13  C   UNL     1      -1.852  12.173  20.064  0.00  0.00    +0.000 A 
ATOM     14  C   UNL     1      -0.543  11.832  20.415  0.00  0.00    +0.000 A 
ATOM     15  C   UNL     1       0.080  12.534  21.451  0.00  0.00    +0.000 A 
ATOM     16  C   UNL     1      -0.582  13.593  22.094  0.00  0.00    +0.000 A 
BRANCH  11  18
ATOM     17  C   UNL     1      -2.148  15.502  23.471  0.00  0.00    +0.000 C 
ATOM     18  O   UNL     1      -2.626  14.953  22.251  0.00  0.00    +0.000 OA
ENDBRANCH  11  18
ENDBRANCH   7  14
ENDBRANCH   1   8
BRANCH   4  19
ATOM     19  N   UNL     1       4.210   6.112  17.779  0.00  0.00    +0.000 N 
ATOM     20  H   UNL     1       5.171   6.364  17.981  0.00  0.00    +0.000 HD
BRANCH  19  21
ATOM     21  C   UNL     1       4.001   4.690  17.460  0.00  0.00    +0.000 C 
ATOM     22  C   UNL     1       4.935   4.300  16.307  0.00  0.00    +0.000 C 
BRANCH  21  23
ATOM     23  C   UNL     1       4.314   3.819  18.722  0.00  0.00    +0.000 C 
ATOM     24  O   UNL     1       5.435   3.829  19.240  0.00  0.00    +0.000 OA
ATOM     25  N   UNL     1       3.296   3.042  19.270  0.00  0.00    +0.000 N 
ATOM     26  C   UNL     1       1.937   2.866  18.751  0.00  0.00    +0.000 C 
ATOM     27  C   UNL     1       0.931   3.422  19.769  0.00  0.00    +0.000 C 
ATOM     28  O   UNL     1       1.086   2.769  21.042  0.00  0.00    +0.000 OA
ATOM     29  C   UNL     1       2.416   2.948  21.563  0.00  0.00    +0.000 C 
ATOM     30  C   UNL     1       3.480   2.421  20.586  0.00  0.00    +0.000 C 
ENDBRANCH  21  23
ENDBRANCH  19  21
ENDBRANCH   4  19
TORSDOF 6
ENDMDL
MODEL 7
REMARK VINA RESULT:      -7.4      1.841      3.545
REMARK  Name = 
REMARK  8 active torsions:
REMARK  status: ('A' for Active; 'I' for Inactive)
REMARK    1  A    between atoms: C_1  and  O_2
REMARK    2  A    between atoms: O_2  and  C_3
REMARK    3  A    between atoms: C_6  and  N_7
REMARK    4  A    between atoms: C_8  and  C_10
REMARK    5  A    between atoms: C_13  and  N_14
REMARK    6  A    between atoms: N_14  and  C_15
REMARK    7  A    between atoms: C_15  and  C_16
REMARK    8  A    between atoms: C_15  and  C_17
REMARK                            x       y       z     vdW  Elec       q    Type
REMARK                         _______ _______ _______ _____ _____    ______ ____
ROOT
ATOM      1  C   UNL     1       0.763   9.608  19.806  0.00  0.00    +0.000 A 
ATOM      2  C   UNL     1       1.115   9.672  18.452  0.00  0.00    +0.000 A 
ATOM      3  C   UNL     1       1.888   8.667  17.872  0.00  0.00    +0.000 A 
ATOM      4  C   UNL     1       2.366   7.592  18.630  0.00  0.00    +0.000 A 
ATOM      5  C   UNL     1       2.093   7.596  20.003  0.00  0.00    +0.000 A 
ATOM      6  C   UNL     1       1.280   8.577  20.591  0.00  0.00    +0.000 A 
ENDROOT
BRANCH   1   8
ATOM      7  N   UNL     1       0.104  11.156  21.594  0.00  0.00    +0.000 N 
ATOM      8  C   UNL     1      -0.149  10.666  20.318  0.00  0.00    +0.000 C 
ATOM      9  O   UNL     1      -1.062  11.013  19.585  0.00  0.00    +0.000 OA
ATOM     10  H   UNL     1       0.958  10.877  22.063  0.00  0.00    +0.000 HD
BRANCH   7  14
ATOM     11  C   UNL     1      -2.439  13.742  23.767  0.00  0.00    +0.000 A 
ATOM     12  C   UNL     1      -1.282  14.241  23.179  0.00  0.00    +0.000 A 
ATOM     13  C   UNL     1      -0.440  13.403  22.447  0.00  0.00    +0.000 A 
ATOM     14  C   UNL     1      -0.734  12.045  22.305  0.00  0.00    +0.000 A 
ATOM     15  C   UNL     1      -1.908  11.548  22.878  0.00  0.00    +0.000 A 
ATOM     16  C   UNL     1      -2.751  12.390  23.622  0.00  0.00    +0.000 A 
BRANCH  11  18
ATOM     17  C   UNL     1      -2.397  15.628  25.190  0.00  0.00    +0.000 C 
ATOM     18  O   UNL     1      -3.158  14.658  24.483  0.00  0.00    +0.000 OA
ENDBRANCH  11  18
ENDBRANCH   7  14
ENDBRANCH   1   8
BRANCH   4  19
ATOM     19  N   UNL     1       3.049   6.576  17.984  0.00  0.00    +0.000 N 
ATOM     20  H   UNL     1       3.801   6.854  17.362  0.00  0.00    +0.000 HD
BRANCH  19  21
ATOM     21  C   UNL     1       3.163   5.207  18.512  0.00  0.00    +0.000 C 
ATOM     22  C   UNL     1       1.766   4.575  18.551  0.00  0.00    +0.000 C 
BRANCH  21  23
ATOM     23  C   UNL     1       4.107   4.367  17.590  0.00  0.00    +0.000 C 
ATOM     24  O   UNL     1       3.670   3.421  16.925  0.00  0.00    +0.000 OA
ATOM     25  N   UNL     1       5.453   4.715  17.512  0.00  0.00    +0.000 N 
ATOM     26  C   UNL     1       6.145   5.759  18.272  0.00  0.00    +0.000 C 
ATOM     27  C   UNL     1       6.666   6.829  17.303  0.00  0.00    +0.000 C 
ATOM     28  O   UNL     1       7.539   6.241  16.322  0.00  0.00    +0.000 OA
ATOM     29  C   UNL     1       6.861   5.222  15.563  0.00  0.00    +0.000 C 
ATOM     30  C   UNL     1       6.302   4.119  16.475  0.00  0.00    +0.000 C 
ENDBRANCH  21  23
ENDBRANCH  19  21
ENDBRANCH   4  19
TORSDOF 6
ENDMDL
MODEL 8
REMARK VINA RESULT:      -7.4      1.119      1.514
REMARK  Name = 
REMARK  8 active torsions:
REMARK  status: ('A' for Active; 'I' for Inactive)
REMARK    1  A    between atoms: C_1  and  O_2
REMARK    2  A    between atoms: O_2  and  C_3
REMARK    3  A    between atoms: C_6  and  N_7
REMARK    4  A    between atoms: C_8  and  C_10
REMARK    5  A    between atoms: C_13  and  N_14
REMARK    6  A    between atoms: N_14  and  C_15
REMARK    7  A    between atoms: C_15  and  C_16
REMARK    8  A    between atoms: C_15  and  C_17
REMARK                            x       y       z     vdW  Elec       q    Type
REMARK                         _______ _______ _______ _____ _____    ______ ____
ROOT
ATOM      1  C   UNL     1       1.358   8.306  19.934  0.00  0.00    +0.000 A 
ATOM      2  C   UNL     1       1.823   8.772  18.698  0.00  0.00    +0.000 A 
ATOM      3  C   UNL     1       2.732   8.022  17.954  0.00  0.00    +0.000 A 
ATOM      4  C   UNL     1       3.235   6.808  18.434  0.00  0.00    +0.000 A 
ATOM      5  C   UNL     1       2.841   6.406  19.716  0.00  0.00    +0.000 A 
ATOM      6  C   UNL     1       1.893   7.129  20.457  0.00  0.00    +0.000 A 
ENDROOT
BRANCH   1   8
ATOM      7  N   UNL     1       0.151  10.430  20.184  0.00  0.00    +0.000 N 
ATOM      8  C   UNL     1       0.312   9.117  20.613  0.00  0.00    +0.000 C 
ATOM      9  O   UNL     1      -0.316   8.573  21.509  0.00  0.00    +0.000 OA
ATOM     10  H   UNL     1       0.648  10.736  19.356  0.00  0.00    +0.000 HD
BRANCH   7  14
ATOM     11  C   UNL     1      -2.263  13.326  22.099  0.00  0.00    +0.000 A 
ATOM     12  C   UNL     1      -2.523  12.969  20.781  0.00  0.00    +0.000 A 
ATOM     13  C   UNL     1      -1.744  12.004  20.139  0.00  0.00    +0.000 A 
ATOM     14  C   UNL     1      -0.679  11.392  20.803  0.00  0.00    +0.000 A 
ATOM     15  C   UNL     1      -0.431  11.735  22.136  0.00  0.00    +0.000 A 
ATOM     16  C   UNL     1      -1.210  12.712  22.778  0.00  0.00    +0.000 A 
BRANCH  11  18
ATOM     17  C   UNL     1      -2.799  14.722  23.928  0.00  0.00    +0.000 C 
ATOM     18  O   UNL     1      -3.076  14.304  22.599  0.00  0.00    +0.000 OA
ENDBRANCH  11  18
ENDBRANCH   7  14
ENDBRANCH   1   8
BRANCH   4  19
ATOM     19  N   UNL     1       4.062   6.061  17.614  0.00  0.00    +0.000 N 
ATOM     20  H   UNL     1       5.018   6.385  17.511  0.00  0.00    +0.000 HD
BRANCH  19  21
ATOM     21  C   UNL     1       3.868   4.625  17.351  0.00  0.00    +0.000 C 
ATOM     22  C   UNL     1       4.756   4.215  16.169  0.00  0.00    +0.000 C 
BRANCH  21  23
ATOM     23  C   UNL     1       4.255   3.803  18.624  0.00  0.00    +0.000 C 
ATOM     24  O   UNL     1       5.387   3.881  19.113  0.00  0.00    +0.000 OA
ATOM     25  N   UNL     1       3.292   2.990  19.216  0.00  0.00    +0.000 N 
ATOM     26  C   UNL     1       1.930   2.734  18.736  0.00  0.00    +0.000 C 
ATOM     27  C   UNL     1       0.923   3.263  19.766  0.00  0.00    +0.000 C 
ATOM     28  O   UNL     1       1.142   2.650  21.050  0.00  0.00    +0.000 OA
ATOM     29  C   UNL     1       2.474   2.908  21.532  0.00  0.00    +0.000 C 
ATOM     30  C   UNL     1       3.538   2.411  20.541  0.00  0.00    +0.000 C 
ENDBRANCH  21  23
ENDBRANCH  19  21
ENDBRANCH   4  19
TORSDOF 6
ENDMDL
MODEL 9
REMARK VINA RESULT:      -7.3      1.135      1.565
REMARK  Name = 
REMARK  8 active torsions:
REMARK  status: ('A' for Active; 'I' for Inactive)
REMARK    1  A    between atoms: C_1  and  O_2
REMARK    2  A    between atoms: O_2  and  C_3
REMARK    3  A    between atoms: C_6  and  N_7
REMARK    4  A    between atoms: C_8  and  C_10
REMARK    5  A    between atoms: C_13  and  N_14
REMARK    6  A    between atoms: N_14  and  C_15
REMARK    7  A    between atoms: C_15  and  C_16
REMARK    8  A    between atoms: C_15  and  C_17
REMARK                            x       y       z     vdW  Elec       q    Type
REMARK                         _______ _______ _______ _____ _____    ______ ____
ROOT
ATOM      1  C   UNL     1       1.833   8.469  19.065  0.00  0.00    +0.000 A 
ATOM      2  C   UNL     1       2.438   8.708  17.825  0.00  0.00    +0.000 A 
ATOM      3  C   UNL     1       3.207   7.722  17.208  0.00  0.00    +0.000 A 
ATOM      4  C   UNL     1       3.427   6.485  17.824  0.00  0.00    +0.000 A 
ATOM      5  C   UNL     1       2.902   6.298  19.108  0.00  0.00    +0.000 A 
ATOM      6  C   UNL     1       2.091   7.265  19.721  0.00  0.00    +0.000 A 
ENDROOT
BRANCH   1   8
ATOM      7  N   UNL     1       1.023   9.795  20.966  0.00  0.00    +0.000 N 
ATOM      8  C   UNL     1       0.947   9.535  19.602  0.00  0.00    +0.000 C 
ATOM      9  O   UNL     1       0.205  10.092  18.807  0.00  0.00    +0.000 OA
ATOM     10  H   UNL     1       1.757   9.351  21.506  0.00  0.00    +0.000 HD
BRANCH   7  14
ATOM     11  C   UNL     1      -1.551  12.437  23.033  0.00  0.00    +0.000 A 
ATOM     12  C   UNL     1      -1.543  11.084  23.354  0.00  0.00    +0.000 A 
ATOM     13  C   UNL     1      -0.688  10.202  22.692  0.00  0.00    +0.000 A 
ATOM     14  C   UNL     1       0.161  10.657  21.680  0.00  0.00    +0.000 A 
ATOM     15  C   UNL     1       0.169  12.021  21.372  0.00  0.00    +0.000 A 
ATOM     16  C   UNL     1      -0.697  12.907  22.034  0.00  0.00    +0.000 A 
BRANCH  11  18
ATOM     17  C   UNL     1      -3.775  12.663  23.797  0.00  0.00    +0.000 C 
ATOM     18  O   UNL     1      -2.455  13.186  23.732  0.00  0.00    +0.000 OA
ENDBRANCH  11  18
ENDBRANCH   7  14
ENDBRANCH   1   8
BRANCH   4  19
ATOM     19  N   UNL     1       4.119   5.510  17.127  0.00  0.00    +0.000 N 
ATOM     20  H   UNL     1       3.927   5.434  16.134  0.00  0.00    +0.000 HD
BRANCH  19  21
ATOM     21  C   UNL     1       5.434   4.991  17.539  0.00  0.00    +0.000 C 
ATOM     22  C   UNL     1       6.397   6.172  17.717  0.00  0.00    +0.000 C 
BRANCH  21  23
ATOM     23  C   UNL     1       5.289   4.208  18.886  0.00  0.00    +0.000 C 
ATOM     24  O   UNL     1       5.894   4.570  19.900  0.00  0.00    +0.000 OA
ATOM     25  N   UNL     1       4.445   3.101  18.931  0.00  0.00    +0.000 N 
ATOM     26  C   UNL     1       3.706   2.503  17.816  0.00  0.00    +0.000 C 
ATOM     27  C   UNL     1       2.200   2.623  18.085  0.00  0.00    +0.000 C 
ATOM     28  O   UNL     1       1.856   1.990  19.331  0.00  0.00    +0.000 OA
ATOM     29  C   UNL     1       2.570   2.582  20.432  0.00  0.00    +0.000 C 
ATOM     30  C   UNL     1       4.091   2.506  20.223  0.00  0.00    +0.000 C 
ENDBRANCH  21  23
ENDBRANCH  19  21
ENDBRANCH   4  19
TORSDOF 6
ENDMDL
