MODEL 1
REMARK VINA RESULT:      -5.1      0.000      0.000
REMARK  Name = 
REMARK  3 active torsions:
REMARK  status: ('A' for Active; 'I' for Inactive)
REMARK    1  A    between atoms: C_2  and  O_3
REMARK    2  A    between atoms: C_2  and  C_4
REMARK    3  A    between atoms: C_4  and  C_5
REMARK                            x       y       z     vdW  Elec       q    Type
REMARK                         _______ _______ _______ _____ _____    ______ ____
ROOT
ATOM      1  C   UNL     1       7.018   5.905  17.175  0.00  0.00    +0.000 A 
ATOM      2  C   UNL     1       7.298   4.712  16.503  0.00  0.00    +0.000 A 
ATOM      3  C   UNL     1       6.577   4.377  15.361  0.00  0.00    +0.000 A 
ATOM      4  C   UNL     1       5.600   5.253  14.922  0.00  0.00    +0.000 A 
ATOM      5  N   UNL     1       5.312   6.420  15.537  0.00  0.00    +0.000 NA
ATOM      6  C   UNL     1       6.014   6.716  16.652  0.00  0.00    +0.000 A 
ENDROOT
BRANCH   1   7
ATOM      7  C   UNL     1       7.738   6.275  18.446  0.00  0.00    +0.000 C 
BRANCH   7   9
ATOM      8  O   UNL     1       6.213   4.996  19.793  0.00  0.00    +0.000 OA
ATOM      9  C   UNL     1       7.306   5.536  19.692  0.00  0.00    +0.000 C 
BRANCH   9  10
ATOM     10  O   UNL     1       8.237   5.436  20.668  0.00  0.00    +0.000 OA
ATOM     11  H   UNL     1       7.889   5.503  21.578  0.00  0.00    +0.000 HD
ENDBRANCH   9  10
ENDBRANCH   7   9
ENDBRANCH   1   7
TORSDOF 3
ENDMDL
MODEL 2
REMARK VINA RESULT:      -5.0      3.555      4.453
REMARK  Name = 
REMARK  3 active torsions:
REMARK  status: ('A' for Active; 'I' for Inactive)
REMARK    1  A    between atoms: C_2  and  O_3
REMARK    2  A    between atoms: C_2  and  C_4
REMARK    3  A    between atoms: C_4  and  C_5
REMARK                            x       y       z     vdW  Elec       q    Type
REMARK                         _______ _______ _______ _____ _____    ______ ____
ROOT
ATOM      1  C   UNL     1       5.113   4.680  16.859  0.00  0.00    +0.000 A 
ATOM      2  C   UNL     1       3.948   3.922  17.012  0.00  0.00    +0.000 A 
ATOM      3  C   UNL     1       3.700   3.271  18.216  0.00  0.00    +0.000 A 
ATOM      4  C   UNL     1       4.625   3.405  19.236  0.00  0.00    +0.000 A 
ATOM      5  N   UNL     1       5.753   4.140  19.130  0.00  0.00    +0.000 NA
ATOM      6  C   UNL     1       5.980   4.750  17.946  0.00  0.00    +0.000 A 
ENDROOT
BRANCH   1   7
ATOM      7  C   UNL     1       5.443   5.353  15.553  0.00  0.00    +0.000 C 
BRANCH   7   9
ATOM      8  O   UNL     1       7.670   5.319  14.648  0.00  0.00    +0.000 OA
ATOM      9  C   UNL     1       6.591   4.755  14.771  0.00  0.00    +0.000 C 
BRANCH   9  10
ATOM     10  O   UNL     1       6.382   3.514  14.277  0.00  0.00    +0.000 OA
ATOM     11  H   UNL     1       5.987   3.486  13.384  0.00  0.00    +0.000 HD
ENDBRANCH   9  10
ENDBRANCH   7   9
ENDBRANCH   1   7
TORSDOF 3
ENDMDL
MODEL 3
REMARK VINA RESULT:      -4.9      3.046      3.772
REMARK  Name = 
REMARK  3 active torsions:
REMARK  status: ('A' for Active; 'I' for Inactive)
REMARK    1  A    between atoms: C_2  and  O_3
REMARK    2  A    between atoms: C_2  and  C_4
REMARK    3  A    between atoms: C_4  and  C_5
REMARK                            x       y       z     vdW  Elec       q    Type
REMARK                         _______ _______ _______ _____ _____    ______ ____
ROOT
ATOM      1  C   UNL     1       4.705   4.520  16.618  0.00  0.00    +0.000 A 
ATOM      2  C   UNL     1       3.630   3.755  17.078  0.00  0.00    +0.000 A 
ATOM      3  C   UNL     1       2.650   4.346  17.870  0.00  0.00    +0.000 A 
ATOM      4  C   UNL     1       2.775   5.690  18.171  0.00  0.00    +0.000 A 
ATOM      5  N   UNL     1       3.791   6.464  17.732  0.00  0.00    +0.000 NA
ATOM      6  C   UNL     1       4.738   5.865  16.978  0.00  0.00    +0.000 A 
ENDROOT
BRANCH   1   7
ATOM      7  C   UNL     1       5.814   3.903  15.806  0.00  0.00    +0.000 C 
BRANCH   7   9
ATOM      8  O   UNL     1       7.558   5.429  15.166  0.00  0.00    +0.000 OA
ATOM      9  C   UNL     1       7.171   4.557  15.932  0.00  0.00    +0.000 C 
BRANCH   9  10
ATOM     10  O   UNL     1       7.910   4.175  16.998  0.00  0.00    +0.000 OA
ATOM     11  H   UNL     1       7.443   4.204  17.856  0.00  0.00    +0.000 HD
ENDBRANCH   9  10
ENDBRANCH   7   9
ENDBRANCH   1   7
TORSDOF 3
ENDMDL
MODEL 4
REMARK VINA RESULT:      -4.8      1.616      1.981
REMARK  Name = 
REMARK  3 active torsions:
REMARK  status: ('A' for Active; 'I' for Inactive)
REMARK    1  A    between atoms: C_2  and  O_3
REMARK    2  A    between atoms: C_2  and  C_4
REMARK    3  A    between atoms: C_4  and  C_5
REMARK                            x       y       z     vdW  Elec       q    Type
REMARK                         _______ _______ _______ _____ _____    ______ ____
ROOT
ATOM      1  C   UNL     1       5.714   5.135  16.634  0.00  0.00    +0.000 A 
ATOM      2  C   UNL     1       5.075   4.359  15.663  0.00  0.00    +0.000 A 
ATOM      3  C   UNL     1       5.682   4.162  14.426  0.00  0.00    +0.000 A 
ATOM      4  C   UNL     1       6.917   4.745  14.203  0.00  0.00    +0.000 A 
ATOM      5  N   UNL     1       7.570   5.488  15.122  0.00  0.00    +0.000 NA
ATOM      6  C   UNL     1       6.954   5.678  16.309  0.00  0.00    +0.000 A 
ENDROOT
BRANCH   1   7
ATOM      7  C   UNL     1       5.063   5.417  17.963  0.00  0.00    +0.000 C 
BRANCH   7   9
ATOM      8  O   UNL     1       5.251   3.550  19.466  0.00  0.00    +0.000 OA
ATOM      9  C   UNL     1       5.628   4.670  19.150  0.00  0.00    +0.000 C 
BRANCH   9  10
ATOM     10  O   UNL     1       6.642   5.284  19.801  0.00  0.00    +0.000 OA
ATOM     11  H   UNL     1       6.724   5.055  20.747  0.00  0.00    +0.000 HD
ENDBRANCH   9  10
ENDBRANCH   7   9
ENDBRANCH   1   7
TORSDOF 3
ENDMDL
MODEL 5
REMARK VINA RESULT:      -4.8      3.068      4.079
REMARK  Name = 
REMARK  3 active torsions:
REMARK  status: ('A' for Active; 'I' for Inactive)
REMARK    1  A    between atoms: C_2  and  O_3
REMARK    2  A    between atoms: C_2  and  C_4
REMARK    3  A    between atoms: C_4  and  C_5
REMARK                            x       y       z     vdW  Elec       q    Type
REMARK                         _______ _______ _______ _____ _____    ______ ____
ROOT
ATOM      1  C   UNL     1       4.783   4.775  16.465  0.00  0.00    +0.000 A 
ATOM      2  C   UNL     1       4.757   6.146  16.735  0.00  0.00    +0.000 A 
ATOM      3  C   UNL     1       3.804   6.661  17.608  0.00  0.00    +0.000 A 
ATOM      4  C   UNL     1       2.908   5.782  18.191  0.00  0.00    +0.000 A 
ATOM      5  N   UNL     1       2.913   4.451  17.966  0.00  0.00    +0.000 NA
ATOM      6  C   UNL     1       3.837   3.977  17.102  0.00  0.00    +0.000 A 
ENDROOT
BRANCH   1   7
ATOM      7  C   UNL     1       5.764   4.189  15.482  0.00  0.00    +0.000 C 
BRANCH   7   9
ATOM      8  O   UNL     1       7.912   4.454  16.528  0.00  0.00    +0.000 OA
ATOM      9  C   UNL     1       7.183   4.701  15.577  0.00  0.00    +0.000 C 
BRANCH   9  10
ATOM     10  O   UNL     1       7.633   5.388  14.503  0.00  0.00    +0.000 OA
ATOM     11  H   UNL     1       8.574   5.244  14.284  0.00  0.00    +0.000 HD
ENDBRANCH   9  10
ENDBRANCH   7   9
ENDBRANCH   1   7
TORSDOF 3
ENDMDL
MODEL 6
REMARK VINA RESULT:      -4.8      4.948      5.523
REMARK  Name = 
REMARK  3 active torsions:
REMARK  status: ('A' for Active; 'I' for Inactive)
REMARK    1  A    between atoms: C_2  and  O_3
REMARK    2  A    between atoms: C_2  and  C_4
REMARK    3  A    between atoms: C_4  and  C_5
REMARK                            x       y       z     vdW  Elec       q    Type
REMARK                         _______ _______ _______ _____ _____    ______ ____
ROOT
ATOM      1  C   UNL     1       3.079   2.890  18.962  0.00  0.00    +0.000 A 
ATOM      2  C   UNL     1       2.966   3.410  17.669  0.00  0.00    +0.000 A 
ATOM      3  C   UNL     1       4.029   4.115  17.113  0.00  0.00    +0.000 A 
ATOM      4  C   UNL     1       5.177   4.273  17.868  0.00  0.00    +0.000 A 
ATOM      5  N   UNL     1       5.327   3.773  19.113  0.00  0.00    +0.000 NA
ATOM      6  C   UNL     1       4.276   3.106  19.638  0.00  0.00    +0.000 A 
ENDROOT
BRANCH   1   7
ATOM      7  C   UNL     1       1.930   2.170  19.618  0.00  0.00    +0.000 C 
BRANCH   7   9
ATOM      8  O   UNL     1       1.521   2.569  21.953  0.00  0.00    +0.000 OA
ATOM      9  C   UNL     1       1.289   2.875  20.791  0.00  0.00    +0.000 C 
BRANCH   9  10
ATOM     10  O   UNL     1       0.496   3.926  20.483  0.00  0.00    +0.000 OA
ATOM     11  H   UNL     1       0.837   4.797  20.767  0.00  0.00    +0.000 HD
ENDBRANCH   9  10
ENDBRANCH   7   9
ENDBRANCH   1   7
TORSDOF 3
ENDMDL
MODEL 7
REMARK VINA RESULT:      -4.8      3.569      4.374
REMARK  Name = 
REMARK  3 active torsions:
REMARK  status: ('A' for Active; 'I' for Inactive)
REMARK    1  A    between atoms: C_2  and  O_3
REMARK    2  A    between atoms: C_2  and  C_4
REMARK    3  A    between atoms: C_4  and  C_5
REMARK                            x       y       z     vdW  Elec       q    Type
REMARK                         _______ _______ _______ _____ _____    ______ ____
ROOT
ATOM      1  C   UNL     1       5.128   4.691  16.846  0.00  0.00    +0.000 A 
ATOM      2  C   UNL     1       3.973   3.914  16.971  0.00  0.00    +0.000 A 
ATOM      3  C   UNL     1       3.717   3.243  18.164  0.00  0.00    +0.000 A 
ATOM      4  C   UNL     1       4.624   3.379  19.199  0.00  0.00    +0.000 A 
ATOM      5  N   UNL     1       5.742   4.132  19.120  0.00  0.00    +0.000 NA
ATOM      6  C   UNL     1       5.977   4.760  17.947  0.00  0.00    +0.000 A 
ENDROOT
BRANCH   1   7
ATOM      7  C   UNL     1       5.468   5.385  15.553  0.00  0.00    +0.000 C 
BRANCH   7   9
ATOM      8  O   UNL     1       6.381   3.741  14.056  0.00  0.00    +0.000 OA
ATOM      9  C   UNL     1       6.562   4.749  14.727  0.00  0.00    +0.000 C 
BRANCH   9  10
ATOM     10  O   UNL     1       7.742   5.408  14.706  0.00  0.00    +0.000 OA
ATOM     11  H   UNL     1       8.030   5.767  15.569  0.00  0.00    +0.000 HD
ENDBRANCH   9  10
ENDBRANCH   7   9
ENDBRANCH   1   7
TORSDOF 3
ENDMDL
MODEL 8
REMARK VINA RESULT:      -4.8      2.018      2.464
REMARK  Name = 
REMARK  3 active torsions:
REMARK  status: ('A' for Active; 'I' for Inactive)
REMARK    1  A    between atoms: C_2  and  O_3
REMARK    2  A    between atoms: C_2  and  C_4
REMARK    3  A    between atoms: C_4  and  C_5
REMARK                            x       y       z     vdW  Elec       q    Type
REMARK                         _______ _______ _______ _____ _____    ______ ____
ROOT
ATOM      1  C   UNL     1       5.494   5.146  16.917  0.00  0.00    +0.000 A 
ATOM      2  C   UNL     1       5.045   4.286  15.910  0.00  0.00    +0.000 A 
ATOM      3  C   UNL     1       5.797   4.129  14.750  0.00  0.00    +0.000 A 
ATOM      4  C   UNL     1       6.981   4.834  14.637  0.00  0.00    +0.000 A 
ATOM      5  N   UNL     1       7.453   5.661  15.594  0.00  0.00    +0.000 NA
ATOM      6  C   UNL     1       6.699   5.810  16.704  0.00  0.00    +0.000 A 
ENDROOT
BRANCH   1   7
ATOM      7  C   UNL     1       4.680   5.384  18.162  0.00  0.00    +0.000 C 
BRANCH   7   9
ATOM      8  O   UNL     1       3.431   3.916  19.598  0.00  0.00    +0.000 OA
ATOM      9  C   UNL     1       4.502   4.194  19.076  0.00  0.00    +0.000 C 
BRANCH   9  10
ATOM     10  O   UNL     1       5.586   3.398  19.223  0.00  0.00    +0.000 OA
ATOM     11  H   UNL     1       6.299   3.547  18.571  0.00  0.00    +0.000 HD
ENDBRANCH   9  10
ENDBRANCH   7   9
ENDBRANCH   1   7
TORSDOF 3
ENDMDL
MODEL 9
REMARK VINA RESULT:      -4.8      5.147      5.851
REMARK  Name = 
REMARK  3 active torsions:
REMARK  status: ('A' for Active; 'I' for Inactive)
REMARK    1  A    between atoms: C_2  and  O_3
REMARK    2  A    between atoms: C_2  and  C_4
REMARK    3  A    between atoms: C_4  and  C_5
REMARK                            x       y       z     vdW  Elec       q    Type
REMARK                         _______ _______ _______ _____ _____    ______ ____
ROOT
ATOM      1  C   UNL     1       3.114   3.088  19.420  0.00  0.00    +0.000 A 
ATOM      2  C   UNL     1       1.766   3.452  19.336  0.00  0.00    +0.000 A 
ATOM      3  C   UNL     1       0.947   3.332  20.455  0.00  0.00    +0.000 A 
ATOM      4  C   UNL     1       1.506   2.856  21.627  0.00  0.00    +0.000 A 
ATOM      5  N   UNL     1       2.805   2.510  21.750  0.00  0.00    +0.000 NA
ATOM      6  C   UNL     1       3.577   2.621  20.647  0.00  0.00    +0.000 A 
ENDROOT
BRANCH   1   7
ATOM      7  C   UNL     1       4.017   3.152  18.217  0.00  0.00    +0.000 C 
BRANCH   7   9
ATOM      8  O   UNL     1       4.730   5.434  17.964  0.00  0.00    +0.000 OA
ATOM      9  C   UNL     1       5.031   4.273  18.207  0.00  0.00    +0.000 C 
BRANCH   9  10
ATOM     10  O   UNL     1       6.289   3.931  18.566  0.00  0.00    +0.000 OA
ATOM     11  H   UNL     1       6.941   4.658  18.532  0.00  0.00    +0.000 HD
ENDBRANCH   9  10
ENDBRANCH   7   9
ENDBRANCH   1   7
TORSDOF 3
ENDMDL
