MODEL 1
REMARK VINA RESULT:      -7.6      0.000      0.000
REMARK  Name = 
REMARK  2 active torsions:
REMARK  status: ('A' for Active; 'I' for Inactive)
REMARK    1  A    between atoms: C_12  and  C_13
REMARK    2  A    between atoms: C_13  and  O_14
REMARK                            x       y       z     vdW  Elec       q    Type
REMARK                         _______ _______ _______ _____ _____    ______ ____
ROOT
ATOM      1  O   UNL     1       8.024   4.933  18.689  0.00  0.00    +0.000 OA
ATOM      2  C   UNL     1       6.895   4.633  18.324  0.00  0.00    +0.000 A 
ATOM      3  N   UNL     1       5.850   4.324  19.178  0.00  0.00    +0.000 N 
ATOM      4  C   UNL     1       4.542   3.988  18.777  0.00  0.00    +0.000 A 
ATOM      5  C   UNL     1       3.576   3.710  19.743  0.00  0.00    +0.000 A 
ATOM      6  C   UNL     1       2.279   3.381  19.344  0.00  0.00    +0.000 A 
ATOM      7  C   UNL     1       1.953   3.330  17.988  0.00  0.00    +0.000 A 
ATOM      8  C   UNL     1       2.922   3.606  17.019  0.00  0.00    +0.000 A 
ATOM      9  C   UNL     1       4.221   3.936  17.410  0.00  0.00    +0.000 A 
ATOM     10  C   UNL     1       5.283   4.240  16.468  0.00  0.00    +0.000 A 
ATOM     11  C   UNL     1       5.380   4.282  15.096  0.00  0.00    +0.000 A 
ATOM     12  C   UNL     1       6.716   4.658  14.829  0.00  0.00    +0.000 A 
ATOM     13  N   UNL     1       7.421   4.840  15.956  0.00  0.00    +0.000 NA
ATOM     14  N   UNL     1       6.535   4.569  16.957  0.00  0.00    +0.000 N 
ATOM     15  H   UNL     1       6.077   4.358  20.163  0.00  0.00    +0.000 HD
ENDROOT
BRANCH  12  16
ATOM     16  C   UNL     1       7.364   4.859  13.497  0.00  0.00    +0.000 C 
BRANCH  16  17
ATOM     17  O   UNL     1       8.433   5.803  13.556  0.00  0.00    +0.000 OA
ATOM     18  H   UNL     1       9.234   5.276  13.356  0.00  0.00    +0.000 HD
ENDBRANCH  16  17
ENDBRANCH  12  16
TORSDOF 2
ENDMDL
MODEL 2
REMARK VINA RESULT:      -7.1      1.126      1.330
REMARK  Name = 
REMARK  2 active torsions:
REMARK  status: ('A' for Active; 'I' for Inactive)
REMARK    1  A    between atoms: C_12  and  C_13
REMARK    2  A    between atoms: C_13  and  O_14
REMARK                            x       y       z     vdW  Elec       q    Type
REMARK                         _______ _______ _______ _____ _____    ______ ____
ROOT
ATOM      1  O   UNL     1       6.832   5.511  19.729  0.00  0.00    +0.000 OA
ATOM      2  C   UNL     1       5.774   5.095  19.273  0.00  0.00    +0.000 A 
ATOM      3  N   UNL     1       4.624   4.893  20.016  0.00  0.00    +0.000 N 
ATOM      4  C   UNL     1       3.396   4.426  19.506  0.00  0.00    +0.000 A 
ATOM      5  C   UNL     1       2.307   4.279  20.363  0.00  0.00    +0.000 A 
ATOM      6  C   UNL     1       1.089   3.820  19.856  0.00  0.00    +0.000 A 
ATOM      7  C   UNL     1       0.966   3.512  18.500  0.00  0.00    +0.000 A 
ATOM      8  C   UNL     1       2.058   3.657  17.641  0.00  0.00    +0.000 A 
ATOM      9  C   UNL     1       3.278   4.115  18.141  0.00  0.00    +0.000 A 
ATOM     10  C   UNL     1       4.459   4.298  17.315  0.00  0.00    +0.000 A 
ATOM     11  C   UNL     1       4.753   4.098  15.986  0.00  0.00    +0.000 A 
ATOM     12  C   UNL     1       6.105   4.486  15.842  0.00  0.00    +0.000 A 
ATOM     13  N   UNL     1       6.634   4.901  17.004  0.00  0.00    +0.000 NA
ATOM     14  N   UNL     1       5.618   4.770  17.904  0.00  0.00    +0.000 N 
ATOM     15  H   UNL     1       4.705   5.114  20.999  0.00  0.00    +0.000 HD
ENDROOT
BRANCH  12  16
ATOM     16  C   UNL     1       6.934   4.477  14.598  0.00  0.00    +0.000 C 
BRANCH  16  17
ATOM     17  O   UNL     1       7.863   5.560  14.565  0.00  0.00    +0.000 OA
ATOM     18  H   UNL     1       8.732   5.141  14.733  0.00  0.00    +0.000 HD
ENDBRANCH  16  17
ENDBRANCH  12  16
TORSDOF 2
ENDMDL
MODEL 3
REMARK VINA RESULT:      -7.0      1.696      1.760
REMARK  Name = 
REMARK  2 active torsions:
REMARK  status: ('A' for Active; 'I' for Inactive)
REMARK    1  A    between atoms: C_12  and  C_13
REMARK    2  A    between atoms: C_13  and  O_14
REMARK                            x       y       z     vdW  Elec       q    Type
REMARK                         _______ _______ _______ _____ _____    ______ ____
ROOT
ATOM      1  O   UNL     1       7.846   7.064  16.822  0.00  0.00    +0.000 OA
ATOM      2  C   UNL     1       6.878   6.320  16.908  0.00  0.00    +0.000 A 
ATOM      3  N   UNL     1       6.038   6.247  18.007  0.00  0.00    +0.000 N 
ATOM      4  C   UNL     1       4.914   5.405  18.119  0.00  0.00    +0.000 A 
ATOM      5  C   UNL     1       4.142   5.439  19.279  0.00  0.00    +0.000 A 
ATOM      6  C   UNL     1       3.026   4.607  19.386  0.00  0.00    +0.000 A 
ATOM      7  C   UNL     1       2.687   3.748  18.341  0.00  0.00    +0.000 A 
ATOM      8  C   UNL     1       3.463   3.711  17.178  0.00  0.00    +0.000 A 
ATOM      9  C   UNL     1       4.580   4.540  17.063  0.00  0.00    +0.000 A 
ATOM     10  C   UNL     1       5.434   4.567  15.889  0.00  0.00    +0.000 A 
ATOM     11  C   UNL     1       5.459   3.888  14.692  0.00  0.00    +0.000 A 
ATOM     12  C   UNL     1       6.570   4.411  13.992  0.00  0.00    +0.000 A 
ATOM     13  N   UNL     1       7.210   5.355  14.698  0.00  0.00    +0.000 NA
ATOM     14  N   UNL     1       6.511   5.435  15.866  0.00  0.00    +0.000 N 
ATOM     15  H   UNL     1       6.277   6.866  18.770  0.00  0.00    +0.000 HD
ENDROOT
BRANCH  12  16
ATOM     16  C   UNL     1       7.056   4.031  12.630  0.00  0.00    +0.000 C 
BRANCH  16  17
ATOM     17  O   UNL     1       6.504   2.791  12.188  0.00  0.00    +0.000 OA
ATOM     18  H   UNL     1       6.143   2.382  13.001  0.00  0.00    +0.000 HD
ENDBRANCH  16  17
ENDBRANCH  12  16
TORSDOF 2
ENDMDL
MODEL 4
REMARK VINA RESULT:      -6.9      2.345      2.797
REMARK  Name = 
REMARK  2 active torsions:
REMARK  status: ('A' for Active; 'I' for Inactive)
REMARK    1  A    between atoms: C_12  and  C_13
REMARK    2  A    between atoms: C_13  and  O_14
REMARK                            x       y       z     vdW  Elec       q    Type
REMARK                         _______ _______ _______ _____ _____    ______ ____
ROOT
ATOM      1  O   UNL     1       3.370   7.943  17.827  0.00  0.00    +0.000 OA
ATOM      2  C   UNL     1       3.228   6.748  18.048  0.00  0.00    +0.000 A 
ATOM      3  N   UNL     1       2.365   6.221  18.994  0.00  0.00    +0.000 N 
ATOM      4  C   UNL     1       2.181   4.849  19.255  0.00  0.00    +0.000 A 
ATOM      5  C   UNL     1       1.267   4.450  20.229  0.00  0.00    +0.000 A 
ATOM      6  C   UNL     1       1.083   3.089  20.482  0.00  0.00    +0.000 A 
ATOM      7  C   UNL     1       1.808   2.137  19.766  0.00  0.00    +0.000 A 
ATOM      8  C   UNL     1       2.727   2.536  18.790  0.00  0.00    +0.000 A 
ATOM      9  C   UNL     1       2.916   3.895  18.531  0.00  0.00    +0.000 A 
ATOM     10  C   UNL     1       3.846   4.392  17.533  0.00  0.00    +0.000 A 
ATOM     11  C   UNL     1       4.732   3.809  16.657  0.00  0.00    +0.000 A 
ATOM     12  C   UNL     1       5.327   4.884  15.958  0.00  0.00    +0.000 A 
ATOM     13  N   UNL     1       4.852   6.071  16.366  0.00  0.00    +0.000 NA
ATOM     14  N   UNL     1       3.951   5.758  17.341  0.00  0.00    +0.000 N 
ATOM     15  H   UNL     1       1.835   6.904  19.518  0.00  0.00    +0.000 HD
ENDROOT
BRANCH  12  16
ATOM     16  C   UNL     1       6.362   4.818  14.881  0.00  0.00    +0.000 C 
BRANCH  16  17
ATOM     17  O   UNL     1       7.524   5.581  15.205  0.00  0.00    +0.000 OA
ATOM     18  H   UNL     1       7.320   6.483  14.882  0.00  0.00    +0.000 HD
ENDBRANCH  16  17
ENDBRANCH  12  16
TORSDOF 2
ENDMDL
MODEL 5
REMARK VINA RESULT:      -6.8      2.846      3.019
REMARK  Name = 
REMARK  2 active torsions:
REMARK  status: ('A' for Active; 'I' for Inactive)
REMARK    1  A    between atoms: C_12  and  C_13
REMARK    2  A    between atoms: C_13  and  O_14
REMARK                            x       y       z     vdW  Elec       q    Type
REMARK                         _______ _______ _______ _____ _____    ______ ____
ROOT
ATOM      1  O   UNL     1       5.039   3.223  19.546  0.00  0.00    +0.000 OA
ATOM      2  C   UNL     1       4.572   4.266  19.107  0.00  0.00    +0.000 A 
ATOM      3  N   UNL     1       3.650   5.056  19.772  0.00  0.00    +0.000 N 
ATOM      4  C   UNL     1       3.111   6.264  19.287  0.00  0.00    +0.000 A 
ATOM      5  C   UNL     1       2.197   6.971  20.066  0.00  0.00    +0.000 A 
ATOM      6  C   UNL     1       1.667   8.171  19.586  0.00  0.00    +0.000 A 
ATOM      7  C   UNL     1       2.049   8.656  18.334  0.00  0.00    +0.000 A 
ATOM      8  C   UNL     1       2.963   7.945  17.551  0.00  0.00    +0.000 A 
ATOM      9  C   UNL     1       3.498   6.746  18.025  0.00  0.00    +0.000 A 
ATOM     10  C   UNL     1       4.456   5.950  17.277  0.00  0.00    +0.000 A 
ATOM     11  C   UNL     1       5.055   6.061  16.044  0.00  0.00    +0.000 A 
ATOM     12  C   UNL     1       5.897   4.931  15.937  0.00  0.00    +0.000 A 
ATOM     13  N   UNL     1       5.834   4.153  17.028  0.00  0.00    +0.000 NA
ATOM     14  N   UNL     1       4.937   4.782  17.841  0.00  0.00    +0.000 N 
ATOM     15  H   UNL     1       3.367   4.712  20.680  0.00  0.00    +0.000 HD
ENDROOT
BRANCH  12  16
ATOM     16  C   UNL     1       6.789   4.556  14.797  0.00  0.00    +0.000 C 
BRANCH  16  17
ATOM     17  O   UNL     1       7.803   5.533  14.564  0.00  0.00    +0.000 OA
ATOM     18  H   UNL     1       7.631   6.227  15.234  0.00  0.00    +0.000 HD
ENDBRANCH  16  17
ENDBRANCH  12  16
TORSDOF 2
ENDMDL
MODEL 6
REMARK VINA RESULT:      -6.8      3.507      5.871
REMARK  Name = 
REMARK  2 active torsions:
REMARK  status: ('A' for Active; 'I' for Inactive)
REMARK    1  A    between atoms: C_12  and  C_13
REMARK    2  A    between atoms: C_13  and  O_14
REMARK                            x       y       z     vdW  Elec       q    Type
REMARK                         _______ _______ _______ _____ _____    ______ ____
ROOT
ATOM      1  O   UNL     1       2.195   7.764  19.481  0.00  0.00    +0.000 OA
ATOM      2  C   UNL     1       2.765   6.886  18.847  0.00  0.00    +0.000 A 
ATOM      3  N   UNL     1       3.610   7.114  17.774  0.00  0.00    +0.000 N 
ATOM      4  C   UNL     1       4.283   6.118  17.040  0.00  0.00    +0.000 A 
ATOM      5  C   UNL     1       5.119   6.485  15.986  0.00  0.00    +0.000 A 
ATOM      6  C   UNL     1       5.788   5.496  15.263  0.00  0.00    +0.000 A 
ATOM      7  C   UNL     1       5.621   4.151  15.592  0.00  0.00    +0.000 A 
ATOM      8  C   UNL     1       4.781   3.781  16.647  0.00  0.00    +0.000 A 
ATOM      9  C   UNL     1       4.109   4.764  17.375  0.00  0.00    +0.000 A 
ATOM     10  C   UNL     1       3.223   4.466  18.487  0.00  0.00    +0.000 A 
ATOM     11  C   UNL     1       2.788   3.312  19.096  0.00  0.00    +0.000 A 
ATOM     12  C   UNL     1       1.929   3.741  20.134  0.00  0.00    +0.000 A 
ATOM     13  N   UNL     1       1.823   5.078  20.177  0.00  0.00    +0.000 NA
ATOM     14  N   UNL     1       2.613   5.513  19.154  0.00  0.00    +0.000 N 
ATOM     15  H   UNL     1       3.737   8.087  17.528  0.00  0.00    +0.000 HD
ENDROOT
BRANCH  12  16
ATOM     16  C   UNL     1       1.185   2.895  21.117  0.00  0.00    +0.000 C 
BRANCH  16  17
ATOM     17  O   UNL     1       1.976   2.581  22.263  0.00  0.00    +0.000 OA
ATOM     18  H   UNL     1       1.785   1.637  22.439  0.00  0.00    +0.000 HD
ENDBRANCH  16  17
ENDBRANCH  12  16
TORSDOF 2
ENDMDL
MODEL 7
REMARK VINA RESULT:      -6.6      1.723      5.024
REMARK  Name = 
REMARK  2 active torsions:
REMARK  status: ('A' for Active; 'I' for Inactive)
REMARK    1  A    between atoms: C_12  and  C_13
REMARK    2  A    between atoms: C_13  and  O_14
REMARK                            x       y       z     vdW  Elec       q    Type
REMARK                         _______ _______ _______ _____ _____    ______ ____
ROOT
ATOM      1  O   UNL     1       7.610   6.644  17.929  0.00  0.00    +0.000 OA
ATOM      2  C   UNL     1       7.089   5.980  17.042  0.00  0.00    +0.000 A 
ATOM      3  N   UNL     1       7.590   5.854  15.758  0.00  0.00    +0.000 N 
ATOM      4  C   UNL     1       7.010   5.087  14.729  0.00  0.00    +0.000 A 
ATOM      5  C   UNL     1       7.626   5.034  13.479  0.00  0.00    +0.000 A 
ATOM      6  C   UNL     1       7.052   4.269  12.462  0.00  0.00    +0.000 A 
ATOM      7  C   UNL     1       5.870   3.564  12.694  0.00  0.00    +0.000 A 
ATOM      8  C   UNL     1       5.250   3.620  13.946  0.00  0.00    +0.000 A 
ATOM      9  C   UNL     1       5.819   4.381  14.969  0.00  0.00    +0.000 A 
ATOM     10  C   UNL     1       5.241   4.488  16.297  0.00  0.00    +0.000 A 
ATOM     11  C   UNL     1       4.116   3.985  16.909  0.00  0.00    +0.000 A 
ATOM     12  C   UNL     1       4.158   4.482  18.231  0.00  0.00    +0.000 A 
ATOM     13  N   UNL     1       5.236   5.252  18.444  0.00  0.00    +0.000 NA
ATOM     14  N   UNL     1       5.889   5.258  17.246  0.00  0.00    +0.000 N 
ATOM     15  H   UNL     1       8.446   6.362  15.581  0.00  0.00    +0.000 HD
ENDROOT
BRANCH  12  16
ATOM     16  C   UNL     1       3.178   4.240  19.334  0.00  0.00    +0.000 C 
BRANCH  16  17
ATOM     17  O   UNL     1       3.154   5.311  20.276  0.00  0.00    +0.000 OA
ATOM     18  H   UNL     1       2.998   6.110  19.732  0.00  0.00    +0.000 HD
ENDBRANCH  16  17
ENDBRANCH  12  16
TORSDOF 2
ENDMDL
MODEL 8
REMARK VINA RESULT:      -6.6      2.627      3.050
REMARK  Name = 
REMARK  2 active torsions:
REMARK  status: ('A' for Active; 'I' for Inactive)
REMARK    1  A    between atoms: C_12  and  C_13
REMARK    2  A    between atoms: C_13  and  O_14
REMARK                            x       y       z     vdW  Elec       q    Type
REMARK                         _______ _______ _______ _____ _____    ______ ____
ROOT
ATOM      1  O   UNL     1       3.708   1.561  17.930  0.00  0.00    +0.000 OA
ATOM      2  C   UNL     1       3.537   2.756  18.134  0.00  0.00    +0.000 A 
ATOM      3  N   UNL     1       2.715   3.274  19.120  0.00  0.00    +0.000 N 
ATOM      4  C   UNL     1       2.514   4.644  19.377  0.00  0.00    +0.000 A 
ATOM      5  C   UNL     1       1.667   5.034  20.413  0.00  0.00    +0.000 A 
ATOM      6  C   UNL     1       1.472   6.393  20.668  0.00  0.00    +0.000 A 
ATOM      7  C   UNL     1       2.121   7.353  19.891  0.00  0.00    +0.000 A 
ATOM      8  C   UNL     1       2.969   6.963  18.850  0.00  0.00    +0.000 A 
ATOM      9  C   UNL     1       3.169   5.607  18.589  0.00  0.00    +0.000 A 
ATOM     10  C   UNL     1       4.035   5.119  17.531  0.00  0.00    +0.000 A 
ATOM     11  C   UNL     1       4.813   5.712  16.564  0.00  0.00    +0.000 A 
ATOM     12  C   UNL     1       5.408   4.642  15.857  0.00  0.00    +0.000 A 
ATOM     13  N   UNL     1       5.029   3.449  16.340  0.00  0.00    +0.000 NA
ATOM     14  N   UNL     1       4.178   3.753  17.361  0.00  0.00    +0.000 N 
ATOM     15  H   UNL     1       2.240   2.585  19.688  0.00  0.00    +0.000 HD
ENDROOT
BRANCH  12  16
ATOM     16  C   UNL     1       6.354   4.719  14.702  0.00  0.00    +0.000 C 
BRANCH  16  17
ATOM     17  O   UNL     1       7.507   5.505  15.004  0.00  0.00    +0.000 OA
ATOM     18  H   UNL     1       7.499   5.584  15.980  0.00  0.00    +0.000 HD
ENDBRANCH  16  17
ENDBRANCH  12  16
TORSDOF 2
ENDMDL
MODEL 9
REMARK VINA RESULT:      -6.6      2.065      3.661
REMARK  Name = 
REMARK  2 active torsions:
REMARK  status: ('A' for Active; 'I' for Inactive)
REMARK    1  A    between atoms: C_12  and  C_13
REMARK    2  A    between atoms: C_13  and  O_14
REMARK                            x       y       z     vdW  Elec       q    Type
REMARK                         _______ _______ _______ _____ _____    ______ ____
ROOT
ATOM      1  O   UNL     1       4.794   3.999  15.409  0.00  0.00    +0.000 OA
ATOM      2  C   UNL     1       4.323   4.004  16.539  0.00  0.00    +0.000 A 
ATOM      3  N   UNL     1       3.059   3.540  16.865  0.00  0.00    +0.000 N 
ATOM      4  C   UNL     1       2.505   3.528  18.159  0.00  0.00    +0.000 A 
ATOM      5  C   UNL     1       1.222   3.020  18.354  0.00  0.00    +0.000 A 
ATOM      6  C   UNL     1       0.676   3.004  19.639  0.00  0.00    +0.000 A 
ATOM      7  C   UNL     1       1.410   3.494  20.720  0.00  0.00    +0.000 A 
ATOM      8  C   UNL     1       2.696   4.007  20.525  0.00  0.00    +0.000 A 
ATOM      9  C   UNL     1       3.248   4.025  19.243  0.00  0.00    +0.000 A 
ATOM     10  C   UNL     1       4.578   4.536  18.957  0.00  0.00    +0.000 A 
ATOM     11  C   UNL     1       5.580   5.104  19.708  0.00  0.00    +0.000 A 
ATOM     12  C   UNL     1       6.625   5.370  18.793  0.00  0.00    +0.000 A 
ATOM     13  N   UNL     1       6.304   4.998  17.544  0.00  0.00    +0.000 NA
ATOM     14  N   UNL     1       5.040   4.497  17.654  0.00  0.00    +0.000 N 
ATOM     15  H   UNL     1       2.520   3.183  16.087  0.00  0.00    +0.000 HD
ENDROOT
BRANCH  12  16
ATOM     16  C   UNL     1       7.959   5.982  19.076  0.00  0.00    +0.000 C 
BRANCH  16  17
ATOM     17  O   UNL     1       8.615   5.354  20.177  0.00  0.00    +0.000 OA
ATOM     18  H   UNL     1       8.701   4.417  19.907  0.00  0.00    +0.000 HD
ENDBRANCH  16  17
ENDBRANCH  12  16
TORSDOF 2
ENDMDL
