MODEL 1
REMARK VINA RESULT:      -6.6      0.000      0.000
REMARK  Name = 
REMARK  9 active torsions:
REMARK  status: ('A' for Active; 'I' for Inactive)
REMARK    1  A    between atoms: C_1  and  C_2
REMARK    2  A    between atoms: C_2  and  C_3
REMARK    3  A    between atoms: C_4  and  C_5
REMARK    4  A    between atoms: C_5  and  C_6
REMARK    5  A    between atoms: C_6  and  C_7
REMARK    6  A    between atoms: C_7  and  O_8
REMARK    7  A    between atoms: N_12  and  C_13
REMARK    8  A    between atoms: C_13  and  C_14
REMARK    9  A    between atoms: C_14  and  C_15
REMARK                            x       y       z     vdW  Elec       q    Type
REMARK                         _______ _______ _______ _____ _____    ______ ____
ROOT
ATOM      1  C   UNL     1       4.279   4.256  17.711  0.00  0.00    +0.000 C 
ATOM      2  C   UNL     1       5.308   4.242  18.871  0.00  0.00    +0.000 C 
ATOM      3  C   UNL     1       6.546   5.088  18.558  0.00  0.00    +0.000 C 
ATOM      4  C   UNL     1       7.149   4.744  17.193  0.00  0.00    +0.000 C 
ATOM      5  N   UNL     1       6.141   4.804  16.115  0.00  0.00    +0.000 NA
ATOM      6  C   UNL     1       5.037   3.875  16.419  0.00  0.00    +0.000 C 
ENDROOT
BRANCH   1   7
ATOM      7  C   UNL     1       3.635   5.676  17.628  0.00  0.00    +0.000 C 
BRANCH   7  11
ATOM      8  C   UNL     1       1.733   7.788  20.313  0.00  0.00    +0.000 C 
ATOM      9  C   UNL     1       2.394   7.418  19.010  0.00  0.00    +0.000 C 
ATOM     10  C   UNL     1       2.228   8.377  17.866  0.00  0.00    +0.000 C 
ATOM     11  C   UNL     1       3.065   6.258  18.900  0.00  0.00    +0.000 C 
ENDBRANCH   7  11
ENDBRANCH   1   7
BRANCH   1  12
ATOM     12  C   UNL     1       3.163   3.215  17.966  0.00  0.00    +0.000 C 
BRANCH  12  13
ATOM     13  O   UNL     1       2.085   3.344  17.040  0.00  0.00    +0.000 OA
ATOM     14  H   UNL     1       2.468   3.420  16.150  0.00  0.00    +0.000 HD
ENDBRANCH  12  13
ENDBRANCH   1  12
BRANCH   5  15
ATOM     15  C   UNL     1       6.771   4.485  14.811  0.00  0.00    +0.000 C 
BRANCH  15  16
ATOM     16  C   UNL     1       5.812   3.942  13.742  0.00  0.00    +0.000 C 
BRANCH  16  17
ATOM     17  C   UNL     1       6.438   3.543  12.423  0.00  0.00    +0.000 C 
ATOM     18  N   UNL     1       6.142   2.304  11.944  0.00  0.00    +0.000 N 
ATOM     19  O   UNL     1       7.246   4.256  11.839  0.00  0.00    +0.000 OA
ATOM     20  H   UNL     1       5.556   1.669  12.481  0.00  0.00    +0.000 HD
ATOM     21  H   UNL     1       6.631   1.961  11.128  0.00  0.00    +0.000 HD
ENDBRANCH  16  17
ENDBRANCH  15  16
ENDBRANCH   5  15
TORSDOF 7
ENDMDL
MODEL 2
REMARK VINA RESULT:      -6.5      3.106      4.751
REMARK  Name = 
REMARK  9 active torsions:
REMARK  status: ('A' for Active; 'I' for Inactive)
REMARK    1  A    between atoms: C_1  and  C_2
REMARK    2  A    between atoms: C_2  and  C_3
REMARK    3  A    between atoms: C_4  and  C_5
REMARK    4  A    between atoms: C_5  and  C_6
REMARK    5  A    between atoms: C_6  and  C_7
REMARK    6  A    between atoms: C_7  and  O_8
REMARK    7  A    between atoms: N_12  and  C_13
REMARK    8  A    between atoms: C_13  and  C_14
REMARK    9  A    between atoms: C_14  and  C_15
REMARK                            x       y       z     vdW  Elec       q    Type
REMARK                         _______ _______ _______ _____ _____    ______ ____
ROOT
ATOM      1  C   UNL     1       3.054   5.960  18.482  0.00  0.00    +0.000 C 
ATOM      2  C   UNL     1       2.129   4.956  17.746  0.00  0.00    +0.000 C 
ATOM      3  C   UNL     1       2.835   3.630  17.445  0.00  0.00    +0.000 C 
ATOM      4  C   UNL     1       4.188   3.840  16.760  0.00  0.00    +0.000 C 
ATOM      5  N   UNL     1       5.047   4.775  17.512  0.00  0.00    +0.000 NA
ATOM      6  C   UNL     1       4.358   6.071  17.659  0.00  0.00    +0.000 C 
ENDROOT
BRANCH   1   7
ATOM      7  C   UNL     1       3.306   5.441  19.932  0.00  0.00    +0.000 C 
BRANCH   7  11
ATOM      8  C   UNL     1       1.289   2.621  21.738  0.00  0.00    +0.000 C 
ATOM      9  C   UNL     1       2.393   3.305  20.974  0.00  0.00    +0.000 C 
ATOM     10  C   UNL     1       3.654   2.519  20.750  0.00  0.00    +0.000 C 
ATOM     11  C   UNL     1       2.239   4.574  20.557  0.00  0.00    +0.000 C 
ENDBRANCH   7  11
ENDBRANCH   1   7
BRANCH   1  12
ATOM     12  C   UNL     1       2.387   7.354  18.557  0.00  0.00    +0.000 C 
BRANCH  12  13
ATOM     13  O   UNL     1       2.126   7.752  19.902  0.00  0.00    +0.000 OA
ATOM     14  H   UNL     1       2.832   8.364  20.170  0.00  0.00    +0.000 HD
ENDBRANCH  12  13
ENDBRANCH   1  12
BRANCH   5  15
ATOM     15  C   UNL     1       6.352   4.933  16.825  0.00  0.00    +0.000 C 
BRANCH  15  16
ATOM     16  C   UNL     1       7.585   4.731  17.718  0.00  0.00    +0.000 C 
BRANCH  16  17
ATOM     17  C   UNL     1       7.873   5.830  18.718  0.00  0.00    +0.000 C 
ATOM     18  N   UNL     1       8.009   5.463  20.022  0.00  0.00    +0.000 N 
ATOM     19  O   UNL     1       7.899   7.013  18.402  0.00  0.00    +0.000 OA
ATOM     20  H   UNL     1       7.880   4.494  20.302  0.00  0.00    +0.000 HD
ATOM     21  H   UNL     1       8.087   6.181  20.730  0.00  0.00    +0.000 HD
ENDBRANCH  16  17
ENDBRANCH  15  16
ENDBRANCH   5  15
TORSDOF 7
ENDMDL
MODEL 3
REMARK VINA RESULT:      -6.5      2.158      2.963
REMARK  Name = 
REMARK  9 active torsions:
REMARK  status: ('A' for Active; 'I' for Inactive)
REMARK    1  A    between atoms: C_1  and  C_2
REMARK    2  A    between atoms: C_2  and  C_3
REMARK    3  A    between atoms: C_4  and  C_5
REMARK    4  A    between atoms: C_5  and  C_6
REMARK    5  A    between atoms: C_6  and  C_7
REMARK    6  A    between atoms: C_7  and  O_8
REMARK    7  A    between atoms: N_12  and  C_13
REMARK    8  A    between atoms: C_13  and  C_14
REMARK    9  A    between atoms: C_14  and  C_15
REMARK                            x       y       z     vdW  Elec       q    Type
REMARK                         _______ _______ _______ _____ _____    ______ ____
ROOT
ATOM      1  C   UNL     1       4.591   5.285  17.960  0.00  0.00    +0.000 C 
ATOM      2  C   UNL     1       5.087   6.702  17.571  0.00  0.00    +0.000 C 
ATOM      3  C   UNL     1       4.993   6.956  16.063  0.00  0.00    +0.000 C 
ATOM      4  C   UNL     1       5.636   5.831  15.248  0.00  0.00    +0.000 C 
ATOM      5  N   UNL     1       5.110   4.505  15.628  0.00  0.00    +0.000 NA
ATOM      6  C   UNL     1       5.344   4.273  17.065  0.00  0.00    +0.000 C 
ENDROOT
BRANCH   1   7
ATOM      7  C   UNL     1       3.044   5.222  17.762  0.00  0.00    +0.000 C 
BRANCH   7  11
ATOM      8  C   UNL     1       0.819   2.192  18.835  0.00  0.00    +0.000 C 
ATOM      9  C   UNL     1       1.549   3.508  18.907  0.00  0.00    +0.000 C 
ATOM     10  C   UNL     1       1.272   4.376  20.101  0.00  0.00    +0.000 C 
ATOM     11  C   UNL     1       2.377   3.875  17.913  0.00  0.00    +0.000 C 
ENDBRANCH   7  11
ENDBRANCH   1   7
BRANCH   1  12
ATOM     12  C   UNL     1       4.919   4.987  19.442  0.00  0.00    +0.000 C 
BRANCH  12  13
ATOM     13  O   UNL     1       6.316   5.084  19.714  0.00  0.00    +0.000 OA
ATOM     14  H   UNL     1       6.423   5.180  20.675  0.00  0.00    +0.000 HD
ENDBRANCH  12  13
ENDBRANCH   1  12
BRANCH   5  15
ATOM     15  C   UNL     1       5.743   3.450  14.802  0.00  0.00    +0.000 C 
BRANCH  15  16
ATOM     16  C   UNL     1       6.197   3.901  13.406  0.00  0.00    +0.000 C 
BRANCH  16  17
ATOM     17  C   UNL     1       5.675   3.093  12.238  0.00  0.00    +0.000 C 
ATOM     18  N   UNL     1       6.481   2.109  11.753  0.00  0.00    +0.000 N 
ATOM     19  O   UNL     1       4.613   3.353  11.684  0.00  0.00    +0.000 OA
ATOM     20  H   UNL     1       7.408   1.962  12.144  0.00  0.00    +0.000 HD
ATOM     21  H   UNL     1       6.215   1.627  10.905  0.00  0.00    +0.000 HD
ENDBRANCH  16  17
ENDBRANCH  15  16
ENDBRANCH   5  15
TORSDOF 7
ENDMDL
MODEL 4
REMARK VINA RESULT:      -6.4      2.465      3.584
REMARK  Name = 
REMARK  9 active torsions:
REMARK  status: ('A' for Active; 'I' for Inactive)
REMARK    1  A    between atoms: C_1  and  C_2
REMARK    2  A    between atoms: C_2  and  C_3
REMARK    3  A    between atoms: C_4  and  C_5
REMARK    4  A    between atoms: C_5  and  C_6
REMARK    5  A    between atoms: C_6  and  C_7
REMARK    6  A    between atoms: C_7  and  O_8
REMARK    7  A    between atoms: N_12  and  C_13
REMARK    8  A    between atoms: C_13  and  C_14
REMARK    9  A    between atoms: C_14  and  C_15
REMARK                            x       y       z     vdW  Elec       q    Type
REMARK                         _______ _______ _______ _____ _____    ______ ____
ROOT
ATOM      1  C   UNL     1       6.474   5.572  18.042  0.00  0.00    +0.000 C 
ATOM      2  C   UNL     1       6.226   6.965  17.407  0.00  0.00    +0.000 C 
ATOM      3  C   UNL     1       5.192   6.913  16.279  0.00  0.00    +0.000 C 
ATOM      4  C   UNL     1       5.507   5.816  15.258  0.00  0.00    +0.000 C 
ATOM      5  N   UNL     1       5.700   4.502  15.904  0.00  0.00    +0.000 NA
ATOM      6  C   UNL     1       6.793   4.592  16.890  0.00  0.00    +0.000 C 
ENDROOT
BRANCH   1   7
ATOM      7  C   UNL     1       5.203   5.154  18.847  0.00  0.00    +0.000 C 
BRANCH   7  11
ATOM      8  C   UNL     1       3.565   1.645  18.311  0.00  0.00    +0.000 C 
ATOM      9  C   UNL     1       3.712   3.143  18.381  0.00  0.00    +0.000 C 
ATOM     10  C   UNL     1       2.571   3.964  17.853  0.00  0.00    +0.000 C 
ATOM     11  C   UNL     1       4.841   3.687  18.866  0.00  0.00    +0.000 C 
ENDBRANCH   7  11
ENDBRANCH   1   7
BRANCH   1  12
ATOM     12  C   UNL     1       7.682   5.625  19.007  0.00  0.00    +0.000 C 
BRANCH  12  13
ATOM     13  O   UNL     1       8.339   6.892  18.976  0.00  0.00    +0.000 OA
ATOM     14  H   UNL     1       9.258   6.754  19.261  0.00  0.00    +0.000 HD
ENDBRANCH  12  13
ENDBRANCH   1  12
BRANCH   5  15
ATOM     15  C   UNL     1       5.982   3.468  14.880  0.00  0.00    +0.000 C 
BRANCH  15  16
ATOM     16  C   UNL     1       6.242   4.008  13.466  0.00  0.00    +0.000 C 
BRANCH  16  17
ATOM     17  C   UNL     1       5.688   3.185  12.323  0.00  0.00    +0.000 C 
ATOM     18  N   UNL     1       6.468   2.177  11.847  0.00  0.00    +0.000 N 
ATOM     19  O   UNL     1       4.623   3.453  11.779  0.00  0.00    +0.000 OA
ATOM     20  H   UNL     1       7.398   2.021  12.227  0.00  0.00    +0.000 HD
ATOM     21  H   UNL     1       6.180   1.683  11.013  0.00  0.00    +0.000 HD
ENDBRANCH  16  17
ENDBRANCH  15  16
ENDBRANCH   5  15
TORSDOF 7
ENDMDL
MODEL 5
REMARK VINA RESULT:      -6.4      3.449      4.758
REMARK  Name = 
REMARK  9 active torsions:
REMARK  status: ('A' for Active; 'I' for Inactive)
REMARK    1  A    between atoms: C_1  and  C_2
REMARK    2  A    between atoms: C_2  and  C_3
REMARK    3  A    between atoms: C_4  and  C_5
REMARK    4  A    between atoms: C_5  and  C_6
REMARK    5  A    between atoms: C_6  and  C_7
REMARK    6  A    between atoms: C_7  and  O_8
REMARK    7  A    between atoms: N_12  and  C_13
REMARK    8  A    between atoms: C_13  and  C_14
REMARK    9  A    between atoms: C_14  and  C_15
REMARK                            x       y       z     vdW  Elec       q    Type
REMARK                         _______ _______ _______ _____ _____    ______ ____
ROOT
ATOM      1  C   UNL     1       2.877   6.310  18.723  0.00  0.00    +0.000 C 
ATOM      2  C   UNL     1       2.255   5.264  17.761  0.00  0.00    +0.000 C 
ATOM      3  C   UNL     1       3.300   4.286  17.214  0.00  0.00    +0.000 C 
ATOM      4  C   UNL     1       4.520   5.009  16.636  0.00  0.00    +0.000 C 
ATOM      5  N   UNL     1       5.098   5.968  17.599  0.00  0.00    +0.000 NA
ATOM      6  C   UNL     1       4.074   6.955  17.989  0.00  0.00    +0.000 C 
ENDROOT
BRANCH   1   7
ATOM      7  C   UNL     1       3.302   5.589  20.041  0.00  0.00    +0.000 C 
BRANCH   7  11
ATOM      8  C   UNL     1       1.407   2.621  21.738  0.00  0.00    +0.000 C 
ATOM      9  C   UNL     1       2.427   3.363  20.915  0.00  0.00    +0.000 C 
ATOM     10  C   UNL     1       3.595   2.570  20.402  0.00  0.00    +0.000 C 
ATOM     11  C   UNL     1       2.288   4.683  20.698  0.00  0.00    +0.000 C 
ENDBRANCH   7  11
ENDBRANCH   1   7
BRANCH   1  12
ATOM     12  C   UNL     1       1.844   7.410  19.065  0.00  0.00    +0.000 C 
BRANCH  12  13
ATOM     13  O   UNL     1       1.995   8.564  18.240  0.00  0.00    +0.000 OA
ATOM     14  H   UNL     1       2.489   9.228  18.751  0.00  0.00    +0.000 HD
ENDBRANCH  12  13
ENDBRANCH   1  12
BRANCH   5  15
ATOM     15  C   UNL     1       6.286   6.628  17.008  0.00  0.00    +0.000 C 
BRANCH  15  16
ATOM     16  C   UNL     1       7.521   6.681  17.919  0.00  0.00    +0.000 C 
BRANCH  16  17
ATOM     17  C   UNL     1       7.752   5.475  18.803  0.00  0.00    +0.000 C 
ATOM     18  N   UNL     1       7.885   4.269  18.187  0.00  0.00    +0.000 N 
ATOM     19  O   UNL     1       7.737   5.548  20.027  0.00  0.00    +0.000 OA
ATOM     20  H   UNL     1       7.791   4.192  17.178  0.00  0.00    +0.000 HD
ATOM     21  H   UNL     1       7.925   3.430  18.751  0.00  0.00    +0.000 HD
ENDBRANCH  16  17
ENDBRANCH  15  16
ENDBRANCH   5  15
TORSDOF 7
ENDMDL
MODEL 6
REMARK VINA RESULT:      -6.3      2.277      3.613
REMARK  Name = 
REMARK  9 active torsions:
REMARK  status: ('A' for Active; 'I' for Inactive)
REMARK    1  A    between atoms: C_1  and  C_2
REMARK    2  A    between atoms: C_2  and  C_3
REMARK    3  A    between atoms: C_4  and  C_5
REMARK    4  A    between atoms: C_5  and  C_6
REMARK    5  A    between atoms: C_6  and  C_7
REMARK    6  A    between atoms: C_7  and  O_8
REMARK    7  A    between atoms: N_12  and  C_13
REMARK    8  A    between atoms: C_13  and  C_14
REMARK    9  A    between atoms: C_14  and  C_15
REMARK                            x       y       z     vdW  Elec       q    Type
REMARK                         _______ _______ _______ _____ _____    ______ ____
ROOT
ATOM      1  C   UNL     1       2.994   6.144  18.612  0.00  0.00    +0.000 C 
ATOM      2  C   UNL     1       2.144   5.128  17.805  0.00  0.00    +0.000 C 
ATOM      3  C   UNL     1       2.969   3.924  17.338  0.00  0.00    +0.000 C 
ATOM      4  C   UNL     1       4.260   4.348  16.633  0.00  0.00    +0.000 C 
ATOM      5  N   UNL     1       5.052   5.287  17.453  0.00  0.00    +0.000 NA
ATOM      6  C   UNL     1       4.241   6.479  17.763  0.00  0.00    +0.000 C 
ENDROOT
BRANCH   1   7
ATOM      7  C   UNL     1       3.363   5.507  19.989  0.00  0.00    +0.000 C 
BRANCH   7  11
ATOM      8  C   UNL     1       1.394   2.657  21.801  0.00  0.00    +0.000 C 
ATOM      9  C   UNL     1       2.452   3.344  20.977  0.00  0.00    +0.000 C 
ATOM     10  C   UNL     1       3.645   2.523  20.578  0.00  0.00    +0.000 C 
ATOM     11  C   UNL     1       2.320   4.644  20.660  0.00  0.00    +0.000 C 
ENDBRANCH   7  11
ENDBRANCH   1   7
BRANCH   1  12
ATOM     12  C   UNL     1       2.190   7.442  18.861  0.00  0.00    +0.000 C 
BRANCH  12  13
ATOM     13  O   UNL     1       2.369   8.394  17.813  0.00  0.00    +0.000 OA
ATOM     14  H   UNL     1       1.964   9.229  18.101  0.00  0.00    +0.000 HD
ENDBRANCH  12  13
ENDBRANCH   1  12
BRANCH   5  15
ATOM     15  C   UNL     1       6.301   5.654  16.743  0.00  0.00    +0.000 C 
BRANCH  15  16
ATOM     16  C   UNL     1       6.989   4.501  16.000  0.00  0.00    +0.000 C 
BRANCH  16  17
ATOM     17  C   UNL     1       7.088   4.638  14.496  0.00  0.00    +0.000 C 
ATOM     18  N   UNL     1       6.434   3.712  13.743  0.00  0.00    +0.000 N 
ATOM     19  O   UNL     1       7.790   5.487  13.961  0.00  0.00    +0.000 OA
ATOM     20  H   UNL     1       5.938   2.943  14.187  0.00  0.00    +0.000 HD
ATOM     21  H   UNL     1       6.572   3.705  12.741  0.00  0.00    +0.000 HD
ENDBRANCH  16  17
ENDBRANCH  15  16
ENDBRANCH   5  15
TORSDOF 7
ENDMDL
MODEL 7
REMARK VINA RESULT:      -6.3      2.637      5.991
REMARK  Name = 
REMARK  9 active torsions:
REMARK  status: ('A' for Active; 'I' for Inactive)
REMARK    1  A    between atoms: C_1  and  C_2
REMARK    2  A    between atoms: C_2  and  C_3
REMARK    3  A    between atoms: C_4  and  C_5
REMARK    4  A    between atoms: C_5  and  C_6
REMARK    5  A    between atoms: C_6  and  C_7
REMARK    6  A    between atoms: C_7  and  O_8
REMARK    7  A    between atoms: N_12  and  C_13
REMARK    8  A    between atoms: C_13  and  C_14
REMARK    9  A    between atoms: C_14  and  C_15
REMARK                            x       y       z     vdW  Elec       q    Type
REMARK                         _______ _______ _______ _____ _____    ______ ____
ROOT
ATOM      1  C   UNL     1       5.796   4.758  15.947  0.00  0.00    +0.000 C 
ATOM      2  C   UNL     1       5.057   6.116  15.824  0.00  0.00    +0.000 C 
ATOM      3  C   UNL     1       4.393   6.536  17.138  0.00  0.00    +0.000 C 
ATOM      4  C   UNL     1       3.534   5.416  17.734  0.00  0.00    +0.000 C 
ATOM      5  N   UNL     1       4.289   4.154  17.865  0.00  0.00    +0.000 NA
ATOM      6  C   UNL     1       4.795   3.742  16.542  0.00  0.00    +0.000 C 
ENDROOT
BRANCH   1   7
ATOM      7  C   UNL     1       7.057   4.952  16.847  0.00  0.00    +0.000 C 
BRANCH   7  11
ATOM      8  C   UNL     1       8.429   8.203  18.530  0.00  0.00    +0.000 C 
ATOM      9  C   UNL     1       7.900   6.800  18.383  0.00  0.00    +0.000 C 
ATOM     10  C   UNL     1       7.936   5.928  19.605  0.00  0.00    +0.000 C 
ATOM     11  C   UNL     1       7.457   6.368  17.189  0.00  0.00    +0.000 C 
ENDBRANCH   7  11
ENDBRANCH   1   7
BRANCH   1  12
ATOM     12  C   UNL     1       6.249   4.261  14.553  0.00  0.00    +0.000 C 
BRANCH  12  13
ATOM     13  O   UNL     1       7.145   5.176  13.922  0.00  0.00    +0.000 OA
ATOM     14  H   UNL     1       7.810   4.653  13.443  0.00  0.00    +0.000 HD
ENDBRANCH  12  13
ENDBRANCH   1  12
BRANCH   5  15
ATOM     15  C   UNL     1       3.428   3.106  18.463  0.00  0.00    +0.000 C 
BRANCH  15  16
ATOM     16  C   UNL     1       3.501   3.000  19.993  0.00  0.00    +0.000 C 
BRANCH  16  17
ATOM     17  C   UNL     1       2.271   3.446  20.754  0.00  0.00    +0.000 C 
ATOM     18  N   UNL     1       2.080   2.916  21.993  0.00  0.00    +0.000 N 
ATOM     19  O   UNL     1       1.426   4.183  20.259  0.00  0.00    +0.000 OA
ATOM     20  H   UNL     1       2.725   2.220  22.361  0.00  0.00    +0.000 HD
ATOM     21  H   UNL     1       1.214   3.101  22.481  0.00  0.00    +0.000 HD
ENDBRANCH  16  17
ENDBRANCH  15  16
ENDBRANCH   5  15
TORSDOF 7
ENDMDL
MODEL 8
REMARK VINA RESULT:      -6.3      2.383      3.993
REMARK  Name = 
REMARK  9 active torsions:
REMARK  status: ('A' for Active; 'I' for Inactive)
REMARK    1  A    between atoms: C_1  and  C_2
REMARK    2  A    between atoms: C_2  and  C_3
REMARK    3  A    between atoms: C_4  and  C_5
REMARK    4  A    between atoms: C_5  and  C_6
REMARK    5  A    between atoms: C_6  and  C_7
REMARK    6  A    between atoms: C_7  and  O_8
REMARK    7  A    between atoms: N_12  and  C_13
REMARK    8  A    between atoms: C_13  and  C_14
REMARK    9  A    between atoms: C_14  and  C_15
REMARK                            x       y       z     vdW  Elec       q    Type
REMARK                         _______ _______ _______ _____ _____    ______ ____
ROOT
ATOM      1  C   UNL     1       3.104   5.992  18.763  0.00  0.00    +0.000 C 
ATOM      2  C   UNL     1       3.121   7.407  18.127  0.00  0.00    +0.000 C 
ATOM      3  C   UNL     1       4.183   7.539  17.032  0.00  0.00    +0.000 C 
ATOM      4  C   UNL     1       5.559   7.057  17.502  0.00  0.00    +0.000 C 
ATOM      5  N   UNL     1       5.501   5.694  18.067  0.00  0.00    +0.000 NA
ATOM      6  C   UNL     1       4.552   5.666  19.195  0.00  0.00    +0.000 C 
ENDROOT
BRANCH   1   7
ATOM      7  C   UNL     1       2.552   4.977  17.713  0.00  0.00    +0.000 C 
BRANCH   7  11
ATOM      8  C   UNL     1       0.619   1.832  19.001  0.00  0.00    +0.000 C 
ATOM      9  C   UNL     1       1.698   2.667  18.361  0.00  0.00    +0.000 C 
ATOM     10  C   UNL     1       2.971   1.964  17.986  0.00  0.00    +0.000 C 
ATOM     11  C   UNL     1       1.513   3.987  18.182  0.00  0.00    +0.000 C 
ENDBRANCH   7  11
ENDBRANCH   1   7
BRANCH   1  12
ATOM     12  C   UNL     1       2.189   5.971  20.010  0.00  0.00    +0.000 C 
BRANCH  12  13
ATOM     13  O   UNL     1       2.122   7.245  20.649  0.00  0.00    +0.000 OA
ATOM     14  H   UNL     1       1.206   7.379  20.944  0.00  0.00    +0.000 HD
ENDBRANCH  12  13
ENDBRANCH   1  12
BRANCH   5  15
ATOM     15  C   UNL     1       6.854   5.260  18.489  0.00  0.00    +0.000 C 
BRANCH  15  16
ATOM     16  C   UNL     1       7.660   4.511  17.418  0.00  0.00    +0.000 C 
BRANCH  16  17
ATOM     17  C   UNL     1       7.059   4.477  16.030  0.00  0.00    +0.000 C 
ATOM     18  N   UNL     1       6.080   3.560  15.798  0.00  0.00    +0.000 N 
ATOM     19  O   UNL     1       7.480   5.176  15.116  0.00  0.00    +0.000 OA
ATOM     20  H   UNL     1       5.803   2.905  16.526  0.00  0.00    +0.000 HD
ATOM     21  H   UNL     1       5.738   3.432  14.855  0.00  0.00    +0.000 HD
ENDBRANCH  16  17
ENDBRANCH  15  16
ENDBRANCH   5  15
TORSDOF 7
ENDMDL
MODEL 9
REMARK VINA RESULT:      -6.3      2.438      5.343
REMARK  Name = 
REMARK  9 active torsions:
REMARK  status: ('A' for Active; 'I' for Inactive)
REMARK    1  A    between atoms: C_1  and  C_2
REMARK    2  A    between atoms: C_2  and  C_3
REMARK    3  A    between atoms: C_4  and  C_5
REMARK    4  A    between atoms: C_5  and  C_6
REMARK    5  A    between atoms: C_6  and  C_7
REMARK    6  A    between atoms: C_7  and  O_8
REMARK    7  A    between atoms: N_12  and  C_13
REMARK    8  A    between atoms: C_13  and  C_14
REMARK    9  A    between atoms: C_14  and  C_15
REMARK                            x       y       z     vdW  Elec       q    Type
REMARK                         _______ _______ _______ _____ _____    ______ ____
ROOT
ATOM      1  C   UNL     1       5.651   5.027  15.872  0.00  0.00    +0.000 C 
ATOM      2  C   UNL     1       4.853   6.347  16.029  0.00  0.00    +0.000 C 
ATOM      3  C   UNL     1       4.504   6.644  17.491  0.00  0.00    +0.000 C 
ATOM      4  C   UNL     1       3.854   5.443  18.183  0.00  0.00    +0.000 C 
ATOM      5  N   UNL     1       4.665   4.218  18.038  0.00  0.00    +0.000 NA
ATOM      6  C   UNL     1       4.859   3.921  16.606  0.00  0.00    +0.000 C 
ENDROOT
BRANCH   1   7
ATOM      7  C   UNL     1       7.081   5.230  16.465  0.00  0.00    +0.000 C 
BRANCH   7  11
ATOM      8  C   UNL     1       8.374   8.359  18.419  0.00  0.00    +0.000 C 
ATOM      9  C   UNL     1       7.869   6.965  18.154  0.00  0.00    +0.000 C 
ATOM     10  C   UNL     1       7.897   6.001  19.306  0.00  0.00    +0.000 C 
ATOM     11  C   UNL     1       7.454   6.620  16.923  0.00  0.00    +0.000 C 
ENDBRANCH   7  11
ENDBRANCH   1   7
BRANCH   1  12
ATOM     12  C   UNL     1       5.778   4.647  14.377  0.00  0.00    +0.000 C 
BRANCH  12  13
ATOM     13  O   UNL     1       6.283   3.324  14.200  0.00  0.00    +0.000 OA
ATOM     14  H   UNL     1       6.297   3.140  13.246  0.00  0.00    +0.000 HD
ENDBRANCH  12  13
ENDBRANCH   1  12
BRANCH   5  15
ATOM     15  C   UNL     1       4.010   3.088  18.739  0.00  0.00    +0.000 C 
BRANCH  15  16
ATOM     16  C   UNL     1       2.846   2.437  17.978  0.00  0.00    +0.000 C 
BRANCH  16  17
ATOM     17  C   UNL     1       1.477   3.040  18.208  0.00  0.00    +0.000 C 
ATOM     18  N   UNL     1       0.781   2.606  19.293  0.00  0.00    +0.000 N 
ATOM     19  O   UNL     1       0.964   3.821  17.415  0.00  0.00    +0.000 OA
ATOM     20  H   UNL     1       1.161   1.877  19.893  0.00  0.00    +0.000 HD
ATOM     21  H   UNL     1      -0.180   2.900  19.413  0.00  0.00    +0.000 HD
ENDBRANCH  16  17
ENDBRANCH  15  16
ENDBRANCH   5  15
TORSDOF 7
ENDMDL
