MODEL 1
REMARK VINA RESULT:      -7.4      0.000      0.000
REMARK  Name = 
REMARK  7 active torsions:
REMARK  status: ('A' for Active; 'I' for Inactive)
REMARK    1  A    between atoms: C_1  and  N_2
REMARK    2  A    between atoms: C_3  and  C_4
REMARK    3  A    between atoms: C_4  and  N_5
REMARK    4  A    between atoms: C_7  and  C_8
REMARK    5  A    between atoms: C_8  and  C_9
REMARK    6  A    between atoms: C_15  and  O_16
REMARK    7  A    between atoms: N_21  and  C_22
REMARK                            x       y       z     vdW  Elec       q    Type
REMARK                         _______ _______ _______ _____ _____    ______ ____
ROOT
ATOM      1  N   UNL     1       5.558   3.965  16.573  0.00  0.00    +0.000 NA
ATOM      2  C   UNL     1       5.347   4.150  15.126  0.00  0.00    +0.000 C 
ATOM      3  C   UNL     1       6.455   5.072  14.571  0.00  0.00    +0.000 C 
ATOM      4  C   UNL     1       7.409   5.289  15.748  0.00  0.00    +0.000 C 
ATOM      5  C   UNL     1       6.988   4.256  16.792  0.00  0.00    +0.000 C 
ENDROOT
BRANCH   4   6
ATOM      6  O   UNL     1       7.284   6.614  16.270  0.00  0.00    +0.000 OA
ATOM      7  H   UNL     1       7.596   6.616  17.189  0.00  0.00    +0.000 HD
ENDBRANCH   4   6
BRANCH   1   8
ATOM      8  C   UNL     1       4.664   4.797  17.399  0.00  0.00    +0.000 C 
BRANCH   8  11
ATOM      9  C   UNL     1       1.711   4.992  17.809  0.00  0.00    +0.000 C 
ATOM     10  N   UNL     1       2.569   4.305  18.763  0.00  0.00    +0.000 N 
ATOM     11  C   UNL     1       3.932   4.082  18.543  0.00  0.00    +0.000 A 
ATOM     12  C   UNL     1       4.593   3.280  19.387  0.00  0.00    +0.000 A 
ATOM     13  C   UNL     1       3.913   2.622  20.517  0.00  0.00    +0.000 A 
ATOM     14  O   UNL     1       4.540   1.816  21.201  0.00  0.00    +0.000 OA
ATOM     15  N   UNL     1       2.602   2.977  20.727  0.00  0.00    +0.000 N 
ATOM     16  C   UNL     1       1.882   2.404  21.853  0.00  0.00    +0.000 C 
ATOM     17  C   UNL     1       1.884   3.805  19.881  0.00  0.00    +0.000 A 
ATOM     18  O   UNL     1       0.696   4.069  20.088  0.00  0.00    +0.000 OA
ENDBRANCH   8  11
ENDBRANCH   1   8
BRANCH   3  19
ATOM     19  C   UNL     1       7.141   4.401  13.364  0.00  0.00    +0.000 C 
BRANCH  19  20
ATOM     20  C   UNL     1       6.231   3.591  12.468  0.00  0.00    +0.000 A 
ATOM     21  C   UNL     1       6.657   2.355  11.957  0.00  0.00    +0.000 A 
ATOM     22  C   UNL     1       5.812   1.578  11.163  0.00  0.00    +0.000 A 
ATOM     23  C   UNL     1       4.523   2.025  10.874  0.00  0.00    +0.000 A 
ATOM     24  C   UNL     1       4.085   3.248  11.377  0.00  0.00    +0.000 A 
ATOM     25  C   UNL     1       4.932   4.025  12.172  0.00  0.00    +0.000 A 
ENDBRANCH  19  20
ENDBRANCH   3  19
TORSDOF 5
ENDMDL
MODEL 2
REMARK VINA RESULT:      -7.2      1.632      2.093
REMARK  Name = 
REMARK  7 active torsions:
REMARK  status: ('A' for Active; 'I' for Inactive)
REMARK    1  A    between atoms: C_1  and  N_2
REMARK    2  A    between atoms: C_3  and  C_4
REMARK    3  A    between atoms: C_4  and  N_5
REMARK    4  A    between atoms: C_7  and  C_8
REMARK    5  A    between atoms: C_8  and  C_9
REMARK    6  A    between atoms: C_15  and  O_16
REMARK    7  A    between atoms: N_21  and  C_22
REMARK                            x       y       z     vdW  Elec       q    Type
REMARK                         _______ _______ _______ _____ _____    ______ ____
ROOT
ATOM      1  N   UNL     1       7.070   4.968  18.648  0.00  0.00    +0.000 NA
ATOM      2  C   UNL     1       6.703   4.434  17.325  0.00  0.00    +0.000 C 
ATOM      3  C   UNL     1       6.684   5.593  16.304  0.00  0.00    +0.000 C 
ATOM      4  C   UNL     1       7.207   6.805  17.077  0.00  0.00    +0.000 C 
ATOM      5  C   UNL     1       7.786   6.228  18.369  0.00  0.00    +0.000 C 
ENDROOT
BRANCH   4   6
ATOM      6  O   UNL     1       6.151   7.724  17.366  0.00  0.00    +0.000 OA
ATOM      7  H   UNL     1       6.336   8.561  16.913  0.00  0.00    +0.000 HD
ENDBRANCH   4   6
BRANCH   1   8
ATOM      8  C   UNL     1       5.911   5.147  19.542  0.00  0.00    +0.000 C 
BRANCH   8  11
ATOM      9  C   UNL     1       3.322   6.385  18.713  0.00  0.00    +0.000 C 
ATOM     10  N   UNL     1       3.441   4.954  18.948  0.00  0.00    +0.000 N 
ATOM     11  C   UNL     1       4.660   4.322  19.210  0.00  0.00    +0.000 A 
ATOM     12  C   UNL     1       4.696   2.983  19.224  0.00  0.00    +0.000 A 
ATOM     13  C   UNL     1       3.493   2.176  18.951  0.00  0.00    +0.000 A 
ATOM     14  O   UNL     1       3.601   0.955  18.875  0.00  0.00    +0.000 OA
ATOM     15  N   UNL     1       2.315   2.871  18.809  0.00  0.00    +0.000 N 
ATOM     16  C   UNL     1       1.080   2.138  18.587  0.00  0.00    +0.000 C 
ATOM     17  C   UNL     1       2.235   4.254  18.793  0.00  0.00    +0.000 A 
ATOM     18  O   UNL     1       1.160   4.837  18.626  0.00  0.00    +0.000 OA
ENDBRANCH   8  11
ENDBRANCH   1   8
BRANCH   3  19
ATOM     19  C   UNL     1       7.563   5.238  15.088  0.00  0.00    +0.000 C 
BRANCH  19  20
ATOM     20  C   UNL     1       6.841   4.570  13.939  0.00  0.00    +0.000 A 
ATOM     21  C   UNL     1       7.508   4.331  12.727  0.00  0.00    +0.000 A 
ATOM     22  C   UNL     1       6.867   3.678  11.672  0.00  0.00    +0.000 A 
ATOM     23  C   UNL     1       5.549   3.249  11.818  0.00  0.00    +0.000 A 
ATOM     24  C   UNL     1       4.875   3.476  13.017  0.00  0.00    +0.000 A 
ATOM     25  C   UNL     1       5.518   4.129  14.072  0.00  0.00    +0.000 A 
ENDBRANCH  19  20
ENDBRANCH   3  19
TORSDOF 5
ENDMDL
MODEL 3
REMARK VINA RESULT:      -7.1      1.609      2.172
REMARK  Name = 
REMARK  7 active torsions:
REMARK  status: ('A' for Active; 'I' for Inactive)
REMARK    1  A    between atoms: C_1  and  N_2
REMARK    2  A    between atoms: C_3  and  C_4
REMARK    3  A    between atoms: C_4  and  N_5
REMARK    4  A    between atoms: C_7  and  C_8
REMARK    5  A    between atoms: C_8  and  C_9
REMARK    6  A    between atoms: C_15  and  O_16
REMARK    7  A    between atoms: N_21  and  C_22
REMARK                            x       y       z     vdW  Elec       q    Type
REMARK                         _______ _______ _______ _____ _____    ______ ____
ROOT
ATOM      1  N   UNL     1       6.872   4.950  18.652  0.00  0.00    +0.000 NA
ATOM      2  C   UNL     1       6.514   4.497  17.296  0.00  0.00    +0.000 C 
ATOM      3  C   UNL     1       6.696   5.672  16.311  0.00  0.00    +0.000 C 
ATOM      4  C   UNL     1       7.325   6.789  17.145  0.00  0.00    +0.000 C 
ATOM      5  C   UNL     1       7.756   6.114  18.447  0.00  0.00    +0.000 C 
ENDROOT
BRANCH   4   6
ATOM      6  O   UNL     1       6.380   7.829  17.406  0.00  0.00    +0.000 OA
ATOM      7  H   UNL     1       6.672   8.326  18.186  0.00  0.00    +0.000 HD
ENDBRANCH   4   6
BRANCH   1   8
ATOM      8  C   UNL     1       5.699   5.254  19.490  0.00  0.00    +0.000 C 
BRANCH   8  11
ATOM      9  C   UNL     1       2.903   6.306  19.555  0.00  0.00    +0.000 C 
ATOM     10  N   UNL     1       3.178   4.881  19.452  0.00  0.00    +0.000 N 
ATOM     11  C   UNL     1       4.466   4.361  19.290  0.00  0.00    +0.000 A 
ATOM     12  C   UNL     1       4.600   3.058  19.015  0.00  0.00    +0.000 A 
ATOM     13  C   UNL     1       3.428   2.177  18.864  0.00  0.00    +0.000 A 
ATOM     14  O   UNL     1       3.600   1.012  18.511  0.00  0.00    +0.000 OA
ATOM     15  N   UNL     1       2.206   2.740  19.144  0.00  0.00    +0.000 N 
ATOM     16  C   UNL     1       1.009   1.918  19.063  0.00  0.00    +0.000 C 
ATOM     17  C   UNL     1       2.025   4.082  19.435  0.00  0.00    +0.000 A 
ATOM     18  O   UNL     1       0.904   4.553  19.645  0.00  0.00    +0.000 OA
ENDBRANCH   8  11
ENDBRANCH   1   8
BRANCH   3  19
ATOM     19  C   UNL     1       7.587   5.235  15.131  0.00  0.00    +0.000 C 
BRANCH  19  20
ATOM     20  C   UNL     1       6.869   4.533  14.000  0.00  0.00    +0.000 A 
ATOM     21  C   UNL     1       5.533   4.130  14.152  0.00  0.00    +0.000 A 
ATOM     22  C   UNL     1       4.844   3.520  13.103  0.00  0.00    +0.000 A 
ATOM     23  C   UNL     1       5.482   3.309  11.881  0.00  0.00    +0.000 A 
ATOM     24  C   UNL     1       6.807   3.708  11.714  0.00  0.00    +0.000 A 
ATOM     25  C   UNL     1       7.495   4.319  12.765  0.00  0.00    +0.000 A 
ENDBRANCH  19  20
ENDBRANCH   3  19
TORSDOF 5
ENDMDL
MODEL 4
REMARK VINA RESULT:      -7.1      1.129      1.526
REMARK  Name = 
REMARK  7 active torsions:
REMARK  status: ('A' for Active; 'I' for Inactive)
REMARK    1  A    between atoms: C_1  and  N_2
REMARK    2  A    between atoms: C_3  and  C_4
REMARK    3  A    between atoms: C_4  and  N_5
REMARK    4  A    between atoms: C_7  and  C_8
REMARK    5  A    between atoms: C_8  and  C_9
REMARK    6  A    between atoms: C_15  and  O_16
REMARK    7  A    between atoms: N_21  and  C_22
REMARK                            x       y       z     vdW  Elec       q    Type
REMARK                         _______ _______ _______ _____ _____    ______ ____
ROOT
ATOM      1  N   UNL     1       5.237   4.205  16.143  0.00  0.00    +0.000 NA
ATOM      2  C   UNL     1       5.225   4.524  14.704  0.00  0.00    +0.000 C 
ATOM      3  C   UNL     1       6.560   5.207  14.331  0.00  0.00    +0.000 C 
ATOM      4  C   UNL     1       7.407   5.129  15.602  0.00  0.00    +0.000 C 
ATOM      5  C   UNL     1       6.664   4.153  16.513  0.00  0.00    +0.000 C 
ENDROOT
BRANCH   4   6
ATOM      6  O   UNL     1       7.518   6.412  16.223  0.00  0.00    +0.000 OA
ATOM      7  H   UNL     1       6.778   6.524  16.839  0.00  0.00    +0.000 HD
ENDBRANCH   4   6
BRANCH   1   8
ATOM      8  C   UNL     1       4.462   5.162  16.954  0.00  0.00    +0.000 C 
BRANCH   8  11
ATOM      9  C   UNL     1       2.826   6.832  18.815  0.00  0.00    +0.000 C 
ATOM     10  N   UNL     1       2.889   5.384  18.946  0.00  0.00    +0.000 N 
ATOM     11  C   UNL     1       3.537   4.560  18.021  0.00  0.00    +0.000 A 
ATOM     12  C   UNL     1       3.380   3.235  18.125  0.00  0.00    +0.000 A 
ATOM     13  C   UNL     1       2.531   2.638  19.172  0.00  0.00    +0.000 A 
ATOM     14  O   UNL     1       2.338   1.425  19.163  0.00  0.00    +0.000 OA
ATOM     15  N   UNL     1       2.017   3.508  20.105  0.00  0.00    +0.000 N 
ATOM     16  C   UNL     1       1.211   2.985  21.195  0.00  0.00    +0.000 C 
ATOM     17  C   UNL     1       2.160   4.884  20.035  0.00  0.00    +0.000 A 
ATOM     18  O   UNL     1       1.651   5.630  20.876  0.00  0.00    +0.000 OA
ENDBRANCH   8  11
ENDBRANCH   1   8
BRANCH   3  19
ATOM     19  C   UNL     1       7.208   4.477  13.138  0.00  0.00    +0.000 C 
BRANCH  19  20
ATOM     20  C   UNL     1       6.291   3.555  12.365  0.00  0.00    +0.000 A 
ATOM     21  C   UNL     1       4.991   3.968  12.031  0.00  0.00    +0.000 A 
ATOM     22  C   UNL     1       4.148   3.145  11.281  0.00  0.00    +0.000 A 
ATOM     23  C   UNL     1       4.597   1.898  10.850  0.00  0.00    +0.000 A 
ATOM     24  C   UNL     1       5.886   1.477  11.170  0.00  0.00    +0.000 A 
ATOM     25  C   UNL     1       6.729   2.302  11.920  0.00  0.00    +0.000 A 
ENDBRANCH  19  20
ENDBRANCH   3  19
TORSDOF 5
ENDMDL
MODEL 5
REMARK VINA RESULT:      -7.0      4.089      6.746
REMARK  Name = 
REMARK  7 active torsions:
REMARK  status: ('A' for Active; 'I' for Inactive)
REMARK    1  A    between atoms: C_1  and  N_2
REMARK    2  A    between atoms: C_3  and  C_4
REMARK    3  A    between atoms: C_4  and  N_5
REMARK    4  A    between atoms: C_7  and  C_8
REMARK    5  A    between atoms: C_8  and  C_9
REMARK    6  A    between atoms: C_15  and  O_16
REMARK    7  A    between atoms: N_21  and  C_22
REMARK                            x       y       z     vdW  Elec       q    Type
REMARK                         _______ _______ _______ _____ _____    ______ ____
ROOT
ATOM      1  N   UNL     1       1.745   5.777  19.678  0.00  0.00    +0.000 NA
ATOM      2  C   UNL     1       3.148   5.531  19.304  0.00  0.00    +0.000 C 
ATOM      3  C   UNL     1       3.622   4.220  19.969  0.00  0.00    +0.000 C 
ATOM      4  C   UNL     1       2.369   3.640  20.627  0.00  0.00    +0.000 C 
ATOM      5  C   UNL     1       1.210   4.455  20.054  0.00  0.00    +0.000 C 
ENDROOT
BRANCH   4   6
ATOM      6  O   UNL     1       2.426   3.777  22.049  0.00  0.00    +0.000 OA
ATOM      7  H   UNL     1       2.217   2.921  22.452  0.00  0.00    +0.000 HD
ENDBRANCH   4   6
BRANCH   1   8
ATOM      8  C   UNL     1       1.598   6.785  20.744  0.00  0.00    +0.000 C 
BRANCH   8  11
ATOM      9  C   UNL     1       1.043   9.037  22.628  0.00  0.00    +0.000 C 
ATOM     10  N   UNL     1       1.123   9.249  21.191  0.00  0.00    +0.000 N 
ATOM     11  C   UNL     1       1.507   8.249  20.291  0.00  0.00    +0.000 A 
ATOM     12  C   UNL     1       1.733   8.589  19.016  0.00  0.00    +0.000 A 
ATOM     13  C   UNL     1       1.606   9.983  18.555  0.00  0.00    +0.000 A 
ATOM     14  O   UNL     1       1.923  10.260  17.401  0.00  0.00    +0.000 OA
ATOM     15  N   UNL     1       1.122  10.884  19.474  0.00  0.00    +0.000 N 
ATOM     16  C   UNL     1       0.925  12.268  19.076  0.00  0.00    +0.000 C 
ATOM     17  C   UNL     1       0.872  10.573  20.800  0.00  0.00    +0.000 A 
ATOM     18  O   UNL     1       0.472  11.423  21.600  0.00  0.00    +0.000 OA
ENDBRANCH   8  11
ENDBRANCH   1   8
BRANCH   3  19
ATOM     19  C   UNL     1       4.226   3.280  18.906  0.00  0.00    +0.000 C 
BRANCH  19  20
ATOM     20  C   UNL     1       5.116   3.947  17.881  0.00  0.00    +0.000 A 
ATOM     21  C   UNL     1       6.340   4.514  18.268  0.00  0.00    +0.000 A 
ATOM     22  C   UNL     1       7.191   5.095  17.326  0.00  0.00    +0.000 A 
ATOM     23  C   UNL     1       6.830   5.112  15.980  0.00  0.00    +0.000 A 
ATOM     24  C   UNL     1       5.619   4.550  15.580  0.00  0.00    +0.000 A 
ATOM     25  C   UNL     1       4.769   3.968  16.524  0.00  0.00    +0.000 A 
ENDBRANCH  19  20
ENDBRANCH   3  19
TORSDOF 5
ENDMDL
MODEL 6
REMARK VINA RESULT:      -7.0      5.249      8.986
REMARK  Name = 
REMARK  7 active torsions:
REMARK  status: ('A' for Active; 'I' for Inactive)
REMARK    1  A    between atoms: C_1  and  N_2
REMARK    2  A    between atoms: C_3  and  C_4
REMARK    3  A    between atoms: C_4  and  N_5
REMARK    4  A    between atoms: C_7  and  C_8
REMARK    5  A    between atoms: C_8  and  C_9
REMARK    6  A    between atoms: C_15  and  O_16
REMARK    7  A    between atoms: N_21  and  C_22
REMARK                            x       y       z     vdW  Elec       q    Type
REMARK                         _______ _______ _______ _____ _____    ______ ____
ROOT
ATOM      1  N   UNL     1       1.914   8.852  18.970  0.00  0.00    +0.000 NA
ATOM      2  C   UNL     1       0.809   9.228  18.071  0.00  0.00    +0.000 C 
ATOM      3  C   UNL     1      -0.362   9.776  18.918  0.00  0.00    +0.000 C 
ATOM      4  C   UNL     1       0.184   9.838  20.346  0.00  0.00    +0.000 C 
ATOM      5  C   UNL     1       1.692   9.634  20.201  0.00  0.00    +0.000 C 
ENDROOT
BRANCH   4   6
ATOM      6  O   UNL     1      -0.387   8.810  21.158  0.00  0.00    +0.000 OA
ATOM      7  H   UNL     1      -0.222   9.023  22.090  0.00  0.00    +0.000 HD
ENDBRANCH   4   6
BRANCH   1   8
ATOM      8  C   UNL     1       1.994   7.400  19.214  0.00  0.00    +0.000 C 
BRANCH   8  11
ATOM      9  C   UNL     1       3.006   4.783  20.241  0.00  0.00    +0.000 C 
ATOM     10  N   UNL     1       3.704   5.511  19.193  0.00  0.00    +0.000 N 
ATOM     11  C   UNL     1       3.195   6.670  18.598  0.00  0.00    +0.000 A 
ATOM     12  C   UNL     1       3.815   7.159  17.517  0.00  0.00    +0.000 A 
ATOM     13  C   UNL     1       4.998   6.494  16.939  0.00  0.00    +0.000 A 
ATOM     14  O   UNL     1       5.468   6.924  15.889  0.00  0.00    +0.000 OA
ATOM     15  N   UNL     1       5.498   5.425  17.644  0.00  0.00    +0.000 N 
ATOM     16  C   UNL     1       6.691   4.750  17.160  0.00  0.00    +0.000 C 
ATOM     17  C   UNL     1       4.889   4.891  18.767  0.00  0.00    +0.000 A 
ATOM     18  O   UNL     1       5.353   3.906  19.349  0.00  0.00    +0.000 OA
ENDBRANCH   8  11
ENDBRANCH   1   8
BRANCH   3  19
ATOM     19  C   UNL     1      -0.795  11.156  18.385  0.00  0.00    +0.000 C 
BRANCH  19  20
ATOM     20  C   UNL     1      -2.199  11.225  17.828  0.00  0.00    +0.000 A 
ATOM     21  C   UNL     1      -3.254  11.698  18.625  0.00  0.00    +0.000 A 
ATOM     22  C   UNL     1      -4.547  11.807  18.111  0.00  0.00    +0.000 A 
ATOM     23  C   UNL     1      -4.803  11.450  16.788  0.00  0.00    +0.000 A 
ATOM     24  C   UNL     1      -3.765  10.983  15.984  0.00  0.00    +0.000 A 
ATOM     25  C   UNL     1      -2.470  10.875  16.499  0.00  0.00    +0.000 A 
ENDBRANCH  19  20
ENDBRANCH   3  19
TORSDOF 5
ENDMDL
MODEL 7
REMARK VINA RESULT:      -7.0      6.124     10.330
REMARK  Name = 
REMARK  7 active torsions:
REMARK  status: ('A' for Active; 'I' for Inactive)
REMARK    1  A    between atoms: C_1  and  N_2
REMARK    2  A    between atoms: C_3  and  C_4
REMARK    3  A    between atoms: C_4  and  N_5
REMARK    4  A    between atoms: C_7  and  C_8
REMARK    5  A    between atoms: C_8  and  C_9
REMARK    6  A    between atoms: C_15  and  O_16
REMARK    7  A    between atoms: N_21  and  C_22
REMARK                            x       y       z     vdW  Elec       q    Type
REMARK                         _______ _______ _______ _____ _____    ______ ____
ROOT
ATOM      1  N   UNL     1       1.592   8.642  20.870  0.00  0.00    +0.000 NA
ATOM      2  C   UNL     1       0.676   9.518  20.120  0.00  0.00    +0.000 C 
ATOM      3  C   UNL     1      -0.428  10.025  21.075  0.00  0.00    +0.000 C 
ATOM      4  C   UNL     1      -0.014   9.515  22.456  0.00  0.00    +0.000 C 
ATOM      5  C   UNL     1       1.426   9.032  22.283  0.00  0.00    +0.000 C 
ENDROOT
BRANCH   4   6
ATOM      6  O   UNL     1      -0.857   8.442  22.881  0.00  0.00    +0.000 OA
ATOM      7  H   UNL     1      -1.270   8.044  22.099  0.00  0.00    +0.000 HD
ENDBRANCH   4   6
BRANCH   1   8
ATOM      8  C   UNL     1       1.346   7.208  20.632  0.00  0.00    +0.000 C 
BRANCH   8  11
ATOM      9  C   UNL     1       2.149   4.367  21.096  0.00  0.00    +0.000 C 
ATOM     10  N   UNL     1       2.802   5.189  20.088  0.00  0.00    +0.000 N 
ATOM     11  C   UNL     1       2.371   6.476  19.754  0.00  0.00    +0.000 A 
ATOM     12  C   UNL     1       2.914   7.077  18.688  0.00  0.00    +0.000 A 
ATOM     13  C   UNL     1       3.932   6.405  17.860  0.00  0.00    +0.000 A 
ATOM     14  O   UNL     1       4.325   6.957  16.835  0.00  0.00    +0.000 OA
ATOM     15  N   UNL     1       4.379   5.187  18.316  0.00  0.00    +0.000 N 
ATOM     16  C   UNL     1       5.418   4.489  17.577  0.00  0.00    +0.000 C 
ATOM     17  C   UNL     1       3.846   4.535  19.416  0.00  0.00    +0.000 A 
ATOM     18  O   UNL     1       4.254   3.425  19.769  0.00  0.00    +0.000 OA
ENDBRANCH   8  11
ENDBRANCH   1   8
BRANCH   3  19
ATOM     19  C   UNL     1      -0.514  11.563  21.009  0.00  0.00    +0.000 C 
BRANCH  19  20
ATOM     20  C   UNL     1      -1.877  12.150  21.303  0.00  0.00    +0.000 A 
ATOM     21  C   UNL     1      -2.714  12.556  20.253  0.00  0.00    +0.000 A 
ATOM     22  C   UNL     1      -3.991  13.060  20.508  0.00  0.00    +0.000 A 
ATOM     23  C   UNL     1      -4.451  13.158  21.820  0.00  0.00    +0.000 A 
ATOM     24  C   UNL     1      -3.632  12.755  22.873  0.00  0.00    +0.000 A 
ATOM     25  C   UNL     1      -2.354  12.250  22.616  0.00  0.00    +0.000 A 
ENDBRANCH  19  20
ENDBRANCH   3  19
TORSDOF 5
ENDMDL
MODEL 8
REMARK VINA RESULT:      -6.9      5.011      8.742
REMARK  Name = 
REMARK  7 active torsions:
REMARK  status: ('A' for Active; 'I' for Inactive)
REMARK    1  A    between atoms: C_1  and  N_2
REMARK    2  A    between atoms: C_3  and  C_4
REMARK    3  A    between atoms: C_4  and  N_5
REMARK    4  A    between atoms: C_7  and  C_8
REMARK    5  A    between atoms: C_8  and  C_9
REMARK    6  A    between atoms: C_15  and  O_16
REMARK    7  A    between atoms: N_21  and  C_22
REMARK                            x       y       z     vdW  Elec       q    Type
REMARK                         _______ _______ _______ _____ _____    ______ ____
ROOT
ATOM      1  N   UNL     1       1.783   8.487  20.207  0.00  0.00    +0.000 NA
ATOM      2  C   UNL     1       0.840   8.924  19.162  0.00  0.00    +0.000 C 
ATOM      3  C   UNL     1      -0.466   9.403  19.834  0.00  0.00    +0.000 C 
ATOM      4  C   UNL     1      -0.172   9.362  21.335  0.00  0.00    +0.000 C 
ATOM      5  C   UNL     1       1.342   9.175  21.435  0.00  0.00    +0.000 C 
ENDROOT
BRANCH   4   6
ATOM      6  O   UNL     1      -0.855   8.274  21.961  0.00  0.00    +0.000 OA
ATOM      7  H   UNL     1      -0.265   7.504  21.977  0.00  0.00    +0.000 HD
ENDBRANCH   4   6
BRANCH   1   8
ATOM      8  C   UNL     1       1.844   7.021  20.355  0.00  0.00    +0.000 C 
BRANCH   8  11
ATOM      9  C   UNL     1       1.442   4.103  19.854  0.00  0.00    +0.000 C 
ATOM     10  N   UNL     1       2.454   4.866  19.139  0.00  0.00    +0.000 N 
ATOM     11  C   UNL     1       2.586   6.254  19.251  0.00  0.00    +0.000 A 
ATOM     12  C   UNL     1       3.417   6.888  18.414  0.00  0.00    +0.000 A 
ATOM     13  C   UNL     1       4.170   6.159  17.378  0.00  0.00    +0.000 A 
ATOM     14  O   UNL     1       4.840   6.797  16.570  0.00  0.00    +0.000 OA
ATOM     15  N   UNL     1       4.068   4.788  17.403  0.00  0.00    +0.000 N 
ATOM     16  C   UNL     1       4.822   4.001  16.442  0.00  0.00    +0.000 C 
ATOM     17  C   UNL     1       3.223   4.095  18.255  0.00  0.00    +0.000 A 
ATOM     18  O   UNL     1       3.136   2.865  18.219  0.00  0.00    +0.000 OA
ENDBRANCH   8  11
ENDBRANCH   1   8
BRANCH   3  19
ATOM     19  C   UNL     1      -0.825  10.818  19.336  0.00  0.00    +0.000 C 
BRANCH  19  20
ATOM     20  C   UNL     1      -1.951  10.884  18.330  0.00  0.00    +0.000 A 
ATOM     21  C   UNL     1      -1.893  10.125  17.150  0.00  0.00    +0.000 A 
ATOM     22  C   UNL     1      -2.945  10.144  16.232  0.00  0.00    +0.000 A 
ATOM     23  C   UNL     1      -4.075  10.920  16.485  0.00  0.00    +0.000 A 
ATOM     24  C   UNL     1      -4.149  11.676  17.654  0.00  0.00    +0.000 A 
ATOM     25  C   UNL     1      -3.095  11.655  18.572  0.00  0.00    +0.000 A 
ENDBRANCH  19  20
ENDBRANCH   3  19
TORSDOF 5
ENDMDL
MODEL 9
REMARK VINA RESULT:      -6.9      3.884      5.752
REMARK  Name = 
REMARK  7 active torsions:
REMARK  status: ('A' for Active; 'I' for Inactive)
REMARK    1  A    between atoms: C_1  and  N_2
REMARK    2  A    between atoms: C_3  and  C_4
REMARK    3  A    between atoms: C_4  and  N_5
REMARK    4  A    between atoms: C_7  and  C_8
REMARK    5  A    between atoms: C_8  and  C_9
REMARK    6  A    between atoms: C_15  and  O_16
REMARK    7  A    between atoms: N_21  and  C_22
REMARK                            x       y       z     vdW  Elec       q    Type
REMARK                         _______ _______ _______ _____ _____    ______ ____
ROOT
ATOM      1  N   UNL     1       2.237   6.065  18.633  0.00  0.00    +0.000 NA
ATOM      2  C   UNL     1       3.385   5.849  17.734  0.00  0.00    +0.000 C 
ATOM      3  C   UNL     1       3.984   4.453  18.014  0.00  0.00    +0.000 C 
ATOM      4  C   UNL     1       3.027   3.810  19.019  0.00  0.00    +0.000 C 
ATOM      5  C   UNL     1       1.794   4.712  19.022  0.00  0.00    +0.000 C 
ENDROOT
BRANCH   4   6
ATOM      6  O   UNL     1       3.614   3.754  20.321  0.00  0.00    +0.000 OA
ATOM      7  H   UNL     1       3.468   2.869  20.690  0.00  0.00    +0.000 HD
ENDBRANCH   4   6
BRANCH   1   8
ATOM      8  C   UNL     1       2.560   6.923  19.788  0.00  0.00    +0.000 C 
BRANCH   8  11
ATOM      9  C   UNL     1       1.927   9.122  17.867  0.00  0.00    +0.000 C 
ATOM     10  N   UNL     1       1.395   9.117  19.221  0.00  0.00    +0.000 N 
ATOM     11  C   UNL     1       1.562   8.046  20.104  0.00  0.00    +0.000 A 
ATOM     12  C   UNL     1       0.877   8.053  21.255  0.00  0.00    +0.000 A 
ATOM     13  C   UNL     1      -0.051   9.146  21.593  0.00  0.00    +0.000 A 
ATOM     14  O   UNL     1      -0.731   9.056  22.613  0.00  0.00    +0.000 OA
ATOM     15  N   UNL     1      -0.077  10.211  20.724  0.00  0.00    +0.000 N 
ATOM     16  C   UNL     1      -0.934  11.348  21.019  0.00  0.00    +0.000 C 
ATOM     17  C   UNL     1       0.617  10.244  19.526  0.00  0.00    +0.000 A 
ATOM     18  O   UNL     1       0.536  11.207  18.758  0.00  0.00    +0.000 OA
ENDBRANCH   8  11
ENDBRANCH   1   8
BRANCH   3  19
ATOM     19  C   UNL     1       4.091   3.655  16.698  0.00  0.00    +0.000 C 
BRANCH  19  20
ATOM     20  C   UNL     1       5.262   4.017  15.813  0.00  0.00    +0.000 A 
ATOM     21  C   UNL     1       5.197   3.797  14.428  0.00  0.00    +0.000 A 
ATOM     22  C   UNL     1       6.254   4.166  13.593  0.00  0.00    +0.000 A 
ATOM     23  C   UNL     1       7.390   4.766  14.133  0.00  0.00    +0.000 A 
ATOM     24  C   UNL     1       7.467   4.995  15.506  0.00  0.00    +0.000 A 
ATOM     25  C   UNL     1       6.408   4.626  16.340  0.00  0.00    +0.000 A 
ENDBRANCH  19  20
ENDBRANCH   3  19
TORSDOF 5
ENDMDL
