MODEL 1
REMARK VINA RESULT:      -8.5      0.000      0.000
REMARK  Name = 
REMARK  8 active torsions:
REMARK  status: ('A' for Active; 'I' for Inactive)
REMARK    1  A    between atoms: C_1  and  C_2
REMARK    2  A    between atoms: C_5  and  S_6
REMARK    3  A    between atoms: S_6  and  N_9
REMARK    4  A    between atoms: C_13  and  C_14
REMARK    5  A    between atoms: C_14  and  O_16
REMARK    6  A    between atoms: O_16  and  C_17
REMARK    7  A    between atoms: C_17  and  C_18
REMARK    8  A    between atoms: C_18  and  C_20
REMARK                            x       y       z     vdW  Elec       q    Type
REMARK                         _______ _______ _______ _____ _____    ______ ____
ROOT
ATOM      1  C   UNL     1       2.546   5.948  19.402  0.00  0.00    +0.000 C 
ATOM      2  O   UNL     1       2.325   5.459  20.508  0.00  0.00    +0.000 OA
ENDROOT
BRANCH   1   7
ATOM      3  N   UNL     1       3.863   4.382  17.895  0.00  0.00    +0.000 NA
ATOM      4  C   UNL     1       3.633   3.006  18.330  0.00  0.00    +0.000 C 
ATOM      5  C   UNL     1       2.248   2.771  17.746  0.00  0.00    +0.000 C 
ATOM      6  C   UNL     1       1.521   4.082  18.052  0.00  0.00    +0.000 C 
ATOM      7  C   UNL     1       2.627   5.170  18.094  0.00  0.00    +0.000 C 
BRANCH   3   8
ATOM      8  S   UNL     1       5.368   5.071  17.786  0.00  0.00    +0.000 S 
ATOM      9  O   UNL     1       6.246   4.350  18.697  0.00  0.00    +0.000 OA
ATOM     10  O   UNL     1       5.197   6.498  17.898  0.00  0.00    +0.000 OA
BRANCH   8  15
ATOM     11  C   UNL     1       7.072   4.059  12.035  0.00  0.00    +0.000 C 
ATOM     12  C   UNL     1       6.653   4.275  13.460  0.00  0.00    +0.000 A 
ATOM     13  C   UNL     1       5.387   3.889  13.920  0.00  0.00    +0.000 A 
ATOM     14  C   UNL     1       5.009   4.126  15.246  0.00  0.00    +0.000 A 
ATOM     15  C   UNL     1       5.908   4.725  16.130  0.00  0.00    +0.000 A 
ATOM     16  C   UNL     1       7.176   5.108  15.682  0.00  0.00    +0.000 A 
ATOM     17  C   UNL     1       7.542   4.884  14.352  0.00  0.00    +0.000 A 
ENDBRANCH   8  15
ENDBRANCH   3   8
ENDBRANCH   1   7
BRANCH   1  18
ATOM     18  O   UNL     1       2.662   7.290  19.169  0.00  0.00    +0.000 OA
BRANCH  18  19
ATOM     19  C   UNL     1       1.700   7.816  18.242  0.00  0.00    +0.000 C 
BRANCH  19  20
ATOM     20  C   UNL     1       1.668   9.349  18.228  0.00  0.00    +0.000 C 
ATOM     21  O   UNL     1       2.411   9.982  17.467  0.00  0.00    +0.000 OA
BRANCH  20  22
ATOM     22  C   UNL     1       0.728  10.051  19.105  0.00  0.00    +0.000 A 
ATOM     23  C   UNL     1      -0.099  11.077  18.670  0.00  0.00    +0.000 A 
ATOM     24  N   UNL     1      -0.864  11.499  19.718  0.00  0.00    +0.000 N 
ATOM     25  C   UNL     1      -0.536  10.804  20.857  0.00  0.00    +0.000 A 
ATOM     26  C   UNL     1      -1.027  10.939  22.162  0.00  0.00    +0.000 A 
ATOM     27  C   UNL     1      -0.479  10.124  23.154  0.00  0.00    +0.000 A 
ATOM     28  C   UNL     1       0.516   9.204  22.848  0.00  0.00    +0.000 A 
ATOM     29  C   UNL     1       0.988   9.074  21.538  0.00  0.00    +0.000 A 
ATOM     30  C   UNL     1       0.463   9.886  20.509  0.00  0.00    +0.000 A 
ATOM     31  H   UNL     1      -1.551  12.244  19.680  0.00  0.00    +0.000 HD
ENDBRANCH  20  22
ENDBRANCH  19  20
ENDBRANCH  18  19
ENDBRANCH   1  18
TORSDOF 7
ENDMDL
MODEL 2
REMARK VINA RESULT:      -8.5      1.172      1.474
REMARK  Name = 
REMARK  8 active torsions:
REMARK  status: ('A' for Active; 'I' for Inactive)
REMARK    1  A    between atoms: C_1  and  C_2
REMARK    2  A    between atoms: C_5  and  S_6
REMARK    3  A    between atoms: S_6  and  N_9
REMARK    4  A    between atoms: C_13  and  C_14
REMARK    5  A    between atoms: C_14  and  O_16
REMARK    6  A    between atoms: O_16  and  C_17
REMARK    7  A    between atoms: C_17  and  C_18
REMARK    8  A    between atoms: C_18  and  C_20
REMARK                            x       y       z     vdW  Elec       q    Type
REMARK                         _______ _______ _______ _____ _____    ______ ____
ROOT
ATOM      1  C   UNL     1       1.910   4.814  20.538  0.00  0.00    +0.000 C 
ATOM      2  O   UNL     1       2.301   4.187  21.521  0.00  0.00    +0.000 OA
ENDROOT
BRANCH   1   7
ATOM      3  N   UNL     1       3.385   3.694  18.797  0.00  0.00    +0.000 NA
ATOM      4  C   UNL     1       3.161   2.251  18.849  0.00  0.00    +0.000 C 
ATOM      5  C   UNL     1       1.833   2.163  18.112  0.00  0.00    +0.000 C 
ATOM      6  C   UNL     1       1.048   3.347  18.679  0.00  0.00    +0.000 C 
ATOM      7  C   UNL     1       2.116   4.396  19.087  0.00  0.00    +0.000 C 
BRANCH   3   8
ATOM      8  S   UNL     1       4.874   4.400  18.992  0.00  0.00    +0.000 S 
ATOM      9  O   UNL     1       5.683   3.500  19.801  0.00  0.00    +0.000 OA
ATOM     10  O   UNL     1       4.653   5.765  19.399  0.00  0.00    +0.000 OA
BRANCH   8  15
ATOM     11  C   UNL     1       7.174   4.735  13.370  0.00  0.00    +0.000 C 
ATOM     12  C   UNL     1       6.602   4.619  14.753  0.00  0.00    +0.000 A 
ATOM     13  C   UNL     1       5.241   4.361  14.966  0.00  0.00    +0.000 A 
ATOM     14  C   UNL     1       4.726   4.284  16.264  0.00  0.00    +0.000 A 
ATOM     15  C   UNL     1       5.576   4.436  17.361  0.00  0.00    +0.000 A 
ATOM     16  C   UNL     1       6.937   4.687  17.158  0.00  0.00    +0.000 A 
ATOM     17  C   UNL     1       7.443   4.779  15.859  0.00  0.00    +0.000 A 
ENDBRANCH   8  15
ENDBRANCH   3   8
ENDBRANCH   1   7
BRANCH   1  18
ATOM     18  O   UNL     1       1.147   5.946  20.608  0.00  0.00    +0.000 OA
BRANCH  18  19
ATOM     19  C   UNL     1       1.896   7.153  20.816  0.00  0.00    +0.000 C 
BRANCH  19  20
ATOM     20  C   UNL     1       1.741   8.152  19.663  0.00  0.00    +0.000 C 
ATOM     21  O   UNL     1       2.287   7.939  18.573  0.00  0.00    +0.000 OA
BRANCH  20  22
ATOM     22  C   UNL     1       0.915   9.346  19.860  0.00  0.00    +0.000 A 
ATOM     23  C   UNL     1       0.698  10.294  18.872  0.00  0.00    +0.000 A 
ATOM     24  N   UNL     1      -0.128  11.263  19.364  0.00  0.00    +0.000 N 
ATOM     25  C   UNL     1      -0.435  11.002  20.678  0.00  0.00    +0.000 A 
ATOM     26  C   UNL     1      -1.203  11.745  21.583  0.00  0.00    +0.000 A 
ATOM     27  C   UNL     1      -1.319  11.267  22.889  0.00  0.00    +0.000 A 
ATOM     28  C   UNL     1      -0.695  10.086  23.271  0.00  0.00    +0.000 A 
ATOM     29  C   UNL     1       0.060   9.350  22.353  0.00  0.00    +0.000 A 
ATOM     30  C   UNL     1       0.205   9.805  21.023  0.00  0.00    +0.000 A 
ATOM     31  H   UNL     1      -0.444  12.080  18.854  0.00  0.00    +0.000 HD
ENDBRANCH  20  22
ENDBRANCH  19  20
ENDBRANCH  18  19
ENDBRANCH   1  18
TORSDOF 7
ENDMDL
MODEL 3
REMARK VINA RESULT:      -8.4      2.443      3.454
REMARK  Name = 
REMARK  8 active torsions:
REMARK  status: ('A' for Active; 'I' for Inactive)
REMARK    1  A    between atoms: C_1  and  C_2
REMARK    2  A    between atoms: C_5  and  S_6
REMARK    3  A    between atoms: S_6  and  N_9
REMARK    4  A    between atoms: C_13  and  C_14
REMARK    5  A    between atoms: C_14  and  O_16
REMARK    6  A    between atoms: O_16  and  C_17
REMARK    7  A    between atoms: C_17  and  C_18
REMARK    8  A    between atoms: C_18  and  C_20
REMARK                            x       y       z     vdW  Elec       q    Type
REMARK                         _______ _______ _______ _____ _____    ______ ____
ROOT
ATOM      1  C   UNL     1       2.471   5.782  19.535  0.00  0.00    +0.000 C 
ATOM      2  O   UNL     1       3.468   5.965  20.231  0.00  0.00    +0.000 OA
ENDROOT
BRANCH   1   7
ATOM      3  N   UNL     1       2.491   3.282  19.077  0.00  0.00    +0.000 NA
ATOM      4  C   UNL     1       2.889   2.583  20.297  0.00  0.00    +0.000 C 
ATOM      5  C   UNL     1       1.589   2.659  21.083  0.00  0.00    +0.000 C 
ATOM      6  C   UNL     1       1.118   4.092  20.826  0.00  0.00    +0.000 C 
ATOM      7  C   UNL     1       1.694   4.475  19.437  0.00  0.00    +0.000 C 
BRANCH   3   8
ATOM      8  S   UNL     1       3.285   3.127  17.628  0.00  0.00    +0.000 S 
ATOM      9  O   UNL     1       2.336   3.454  16.573  0.00  0.00    +0.000 OA
ATOM     10  O   UNL     1       3.966   1.858  17.644  0.00  0.00    +0.000 OA
BRANCH   8  15
ATOM     11  C   UNL     1       7.679   7.334  17.596  0.00  0.00    +0.000 C 
ATOM     12  C   UNL     1       6.585   6.306  17.636  0.00  0.00    +0.000 A 
ATOM     13  C   UNL     1       6.649   5.198  18.490  0.00  0.00    +0.000 A 
ATOM     14  C   UNL     1       5.629   4.239  18.489  0.00  0.00    +0.000 A 
ATOM     15  C   UNL     1       4.524   4.399  17.651  0.00  0.00    +0.000 A 
ATOM     16  C   UNL     1       4.449   5.505  16.800  0.00  0.00    +0.000 A 
ATOM     17  C   UNL     1       5.478   6.451  16.793  0.00  0.00    +0.000 A 
ENDBRANCH   8  15
ENDBRANCH   3   8
ENDBRANCH   1   7
BRANCH   1  18
ATOM     18  O   UNL     1       1.856   6.762  18.809  0.00  0.00    +0.000 OA
BRANCH  18  19
ATOM     19  C   UNL     1       1.954   8.074  19.382  0.00  0.00    +0.000 C 
BRANCH  19  20
ATOM     20  C   UNL     1       1.488   9.176  18.423  0.00  0.00    +0.000 C 
ATOM     21  O   UNL     1       2.007   9.291  17.305  0.00  0.00    +0.000 OA
BRANCH  20  22
ATOM     22  C   UNL     1       0.403  10.070  18.836  0.00  0.00    +0.000 A 
ATOM     23  C   UNL     1       0.465  10.870  19.967  0.00  0.00    +0.000 A 
ATOM     24  N   UNL     1      -0.688  11.594  20.058  0.00  0.00    +0.000 N 
ATOM     25  C   UNL     1      -1.539  11.262  19.031  0.00  0.00    +0.000 A 
ATOM     26  C   UNL     1      -2.836  11.717  18.760  0.00  0.00    +0.000 A 
ATOM     27  C   UNL     1      -3.502  11.174  17.660  0.00  0.00    +0.000 A 
ATOM     28  C   UNL     1      -2.888  10.219  16.858  0.00  0.00    +0.000 A 
ATOM     29  C   UNL     1      -1.589   9.784  17.136  0.00  0.00    +0.000 A 
ATOM     30  C   UNL     1      -0.886  10.306  18.244  0.00  0.00    +0.000 A 
ATOM     31  H   UNL     1      -0.910  12.255  20.794  0.00  0.00    +0.000 HD
ENDBRANCH  20  22
ENDBRANCH  19  20
ENDBRANCH  18  19
ENDBRANCH   1  18
TORSDOF 7
ENDMDL
MODEL 4
REMARK VINA RESULT:      -8.4      2.277      3.408
REMARK  Name = 
REMARK  8 active torsions:
REMARK  status: ('A' for Active; 'I' for Inactive)
REMARK    1  A    between atoms: C_1  and  C_2
REMARK    2  A    between atoms: C_5  and  S_6
REMARK    3  A    between atoms: S_6  and  N_9
REMARK    4  A    between atoms: C_13  and  C_14
REMARK    5  A    between atoms: C_14  and  O_16
REMARK    6  A    between atoms: O_16  and  C_17
REMARK    7  A    between atoms: C_17  and  C_18
REMARK    8  A    between atoms: C_18  and  C_20
REMARK                            x       y       z     vdW  Elec       q    Type
REMARK                         _______ _______ _______ _____ _____    ______ ____
ROOT
ATOM      1  C   UNL     1       1.610   3.628  17.895  0.00  0.00    +0.000 C 
ATOM      2  O   UNL     1       1.936   3.384  16.734  0.00  0.00    +0.000 OA
ENDROOT
BRANCH   1   7
ATOM      3  N   UNL     1       2.846   2.563  19.844  0.00  0.00    +0.000 NA
ATOM      4  C   UNL     1       2.697   3.418  21.019  0.00  0.00    +0.000 C 
ATOM      5  C   UNL     1       1.277   3.061  21.429  0.00  0.00    +0.000 C 
ATOM      6  C   UNL     1       0.537   3.013  20.091  0.00  0.00    +0.000 C 
ATOM      7  C   UNL     1       1.607   2.621  19.038  0.00  0.00    +0.000 C 
BRANCH   3   8
ATOM      8  S   UNL     1       4.314   2.113  19.214  0.00  0.00    +0.000 S 
ATOM      9  O   UNL     1       4.053   1.251  18.070  0.00  0.00    +0.000 OA
ATOM     10  O   UNL     1       5.132   1.661  20.310  0.00  0.00    +0.000 OA
BRANCH   8  15
ATOM     11  C   UNL     1       6.970   7.187  17.164  0.00  0.00    +0.000 C 
ATOM     12  C   UNL     1       6.290   5.954  17.684  0.00  0.00    +0.000 A 
ATOM     13  C   UNL     1       6.236   5.667  19.053  0.00  0.00    +0.000 A 
ATOM     14  C   UNL     1       5.619   4.497  19.512  0.00  0.00    +0.000 A 
ATOM     15  C   UNL     1       5.026   3.620  18.601  0.00  0.00    +0.000 A 
ATOM     16  C   UNL     1       5.070   3.902  17.232  0.00  0.00    +0.000 A 
ATOM     17  C   UNL     1       5.701   5.064  16.780  0.00  0.00    +0.000 A 
ENDBRANCH   8  15
ENDBRANCH   3   8
ENDBRANCH   1   7
BRANCH   1  18
ATOM     18  O   UNL     1       1.285   4.874  18.352  0.00  0.00    +0.000 OA
BRANCH  18  19
ATOM     19  C   UNL     1       2.229   5.897  18.003  0.00  0.00    +0.000 C 
BRANCH  19  20
ATOM     20  C   UNL     1       2.415   6.936  19.116  0.00  0.00    +0.000 C 
ATOM     21  O   UNL     1       3.006   6.632  20.161  0.00  0.00    +0.000 OA
BRANCH  20  22
ATOM     22  C   UNL     1       1.911   8.296  18.913  0.00  0.00    +0.000 A 
ATOM     23  C   UNL     1       2.181   9.048  17.779  0.00  0.00    +0.000 A 
ATOM     24  N   UNL     1       1.551  10.253  17.889  0.00  0.00    +0.000 N 
ATOM     25  C   UNL     1       0.898  10.339  19.096  0.00  0.00    +0.000 A 
ATOM     26  C   UNL     1       0.171  11.401  19.646  0.00  0.00    +0.000 A 
ATOM     27  C   UNL     1      -0.359  11.237  20.927  0.00  0.00    +0.000 A 
ATOM     28  C   UNL     1      -0.171  10.050  21.626  0.00  0.00    +0.000 A 
ATOM     29  C   UNL     1       0.550   8.995  21.058  0.00  0.00    +0.000 A 
ATOM     30  C   UNL     1       1.105   9.127  19.766  0.00  0.00    +0.000 A 
ATOM     31  H   UNL     1       1.586  10.998  17.203  0.00  0.00    +0.000 HD
ENDBRANCH  20  22
ENDBRANCH  19  20
ENDBRANCH  18  19
ENDBRANCH   1  18
TORSDOF 7
ENDMDL
MODEL 5
REMARK VINA RESULT:      -8.3      2.135      2.682
REMARK  Name = 
REMARK  8 active torsions:
REMARK  status: ('A' for Active; 'I' for Inactive)
REMARK    1  A    between atoms: C_1  and  C_2
REMARK    2  A    between atoms: C_5  and  S_6
REMARK    3  A    between atoms: S_6  and  N_9
REMARK    4  A    between atoms: C_13  and  C_14
REMARK    5  A    between atoms: C_14  and  O_16
REMARK    6  A    between atoms: O_16  and  C_17
REMARK    7  A    between atoms: C_17  and  C_18
REMARK    8  A    between atoms: C_18  and  C_20
REMARK                            x       y       z     vdW  Elec       q    Type
REMARK                         _______ _______ _______ _____ _____    ______ ____
ROOT
ATOM      1  C   UNL     1       2.543   5.743  19.443  0.00  0.00    +0.000 C 
ATOM      2  O   UNL     1       3.467   5.963  20.225  0.00  0.00    +0.000 OA
ENDROOT
BRANCH   1   7
ATOM      3  N   UNL     1       2.451   3.226  19.104  0.00  0.00    +0.000 NA
ATOM      4  C   UNL     1       2.815   2.569  20.357  0.00  0.00    +0.000 C 
ATOM      5  C   UNL     1       1.518   2.740  21.133  0.00  0.00    +0.000 C 
ATOM      6  C   UNL     1       1.112   4.178  20.806  0.00  0.00    +0.000 C 
ATOM      7  C   UNL     1       1.708   4.469  19.403  0.00  0.00    +0.000 C 
BRANCH   3   8
ATOM      8  S   UNL     1       3.240   2.967  17.668  0.00  0.00    +0.000 S 
ATOM      9  O   UNL     1       2.315   3.300  16.594  0.00  0.00    +0.000 OA
ATOM     10  O   UNL     1       3.851   1.664  17.741  0.00  0.00    +0.000 OA
BRANCH   8  15
ATOM     11  C   UNL     1       7.564   7.246  17.669  0.00  0.00    +0.000 C 
ATOM     12  C   UNL     1       6.511   6.177  17.640  0.00  0.00    +0.000 A 
ATOM     13  C   UNL     1       5.493   6.175  16.677  0.00  0.00    +0.000 A 
ATOM     14  C   UNL     1       4.506   5.183  16.687  0.00  0.00    +0.000 A 
ATOM     15  C   UNL     1       4.548   4.169  17.645  0.00  0.00    +0.000 A 
ATOM     16  C   UNL     1       5.563   4.159  18.606  0.00  0.00    +0.000 A 
ATOM     17  C   UNL     1       6.537   5.162  18.602  0.00  0.00    +0.000 A 
ENDBRANCH   8  15
ENDBRANCH   3   8
ENDBRANCH   1   7
BRANCH   1  18
ATOM     18  O   UNL     1       2.068   6.656  18.545  0.00  0.00    +0.000 OA
BRANCH  18  19
ATOM     19  C   UNL     1       2.491   8.006  18.792  0.00  0.00    +0.000 C 
BRANCH  19  20
ATOM     20  C   UNL     1       1.475   9.044  18.303  0.00  0.00    +0.000 C 
ATOM     21  O   UNL     1       1.088   9.034  17.126  0.00  0.00    +0.000 OA
BRANCH  20  22
ATOM     22  C   UNL     1       0.948  10.028  19.251  0.00  0.00    +0.000 A 
ATOM     23  C   UNL     1       0.951  11.395  19.012  0.00  0.00    +0.000 A 
ATOM     24  N   UNL     1       0.373  12.029  20.073  0.00  0.00    +0.000 N 
ATOM     25  C   UNL     1       0.021  11.115  21.038  0.00  0.00    +0.000 A 
ATOM     26  C   UNL     1      -0.550  11.321  22.300  0.00  0.00    +0.000 A 
ATOM     27  C   UNL     1      -0.767  10.204  23.109  0.00  0.00    +0.000 A 
ATOM     28  C   UNL     1      -0.430   8.931  22.667  0.00  0.00    +0.000 A 
ATOM     29  C   UNL     1       0.130   8.741  21.400  0.00  0.00    +0.000 A 
ATOM     30  C   UNL     1       0.369   9.848  20.555  0.00  0.00    +0.000 A 
ATOM     31  H   UNL     1       0.252  13.031  20.163  0.00  0.00    +0.000 HD
ENDBRANCH  20  22
ENDBRANCH  19  20
ENDBRANCH  18  19
ENDBRANCH   1  18
TORSDOF 7
ENDMDL
MODEL 6
REMARK VINA RESULT:      -8.3      1.283      2.166
REMARK  Name = 
REMARK  8 active torsions:
REMARK  status: ('A' for Active; 'I' for Inactive)
REMARK    1  A    between atoms: C_1  and  C_2
REMARK    2  A    between atoms: C_5  and  S_6
REMARK    3  A    between atoms: S_6  and  N_9
REMARK    4  A    between atoms: C_13  and  C_14
REMARK    5  A    between atoms: C_14  and  O_16
REMARK    6  A    between atoms: O_16  and  C_17
REMARK    7  A    between atoms: C_17  and  C_18
REMARK    8  A    between atoms: C_18  and  C_20
REMARK                            x       y       z     vdW  Elec       q    Type
REMARK                         _______ _______ _______ _____ _____    ______ ____
ROOT
ATOM      1  C   UNL     1       2.488   5.495  19.452  0.00  0.00    +0.000 C 
ATOM      2  O   UNL     1       3.063   5.156  20.485  0.00  0.00    +0.000 OA
ENDROOT
BRANCH   1   7
ATOM      3  N   UNL     1       3.902   4.137  17.833  0.00  0.00    +0.000 NA
ATOM      4  C   UNL     1       3.828   2.728  18.211  0.00  0.00    +0.000 C 
ATOM      5  C   UNL     1       2.454   2.377  17.661  0.00  0.00    +0.000 C 
ATOM      6  C   UNL     1       1.610   3.592  18.050  0.00  0.00    +0.000 C 
ATOM      7  C   UNL     1       2.601   4.785  18.108  0.00  0.00    +0.000 C 
BRANCH   3   8
ATOM      8  S   UNL     1       5.325   4.982  17.709  0.00  0.00    +0.000 S 
ATOM      9  O   UNL     1       6.281   4.365  18.617  0.00  0.00    +0.000 OA
ATOM     10  O   UNL     1       5.004   6.383  17.812  0.00  0.00    +0.000 OA
BRANCH   8  15
ATOM     11  C   UNL     1       7.104   4.133  11.954  0.00  0.00    +0.000 C 
ATOM     12  C   UNL     1       6.666   4.309  13.379  0.00  0.00    +0.000 A 
ATOM     13  C   UNL     1       5.400   3.897  13.815  0.00  0.00    +0.000 A 
ATOM     14  C   UNL     1       5.005   4.096  15.142  0.00  0.00    +0.000 A 
ATOM     15  C   UNL     1       5.887   4.684  16.050  0.00  0.00    +0.000 A 
ATOM     16  C   UNL     1       7.155   5.093  15.626  0.00  0.00    +0.000 A 
ATOM     17  C   UNL     1       7.538   4.906  14.295  0.00  0.00    +0.000 A 
ENDBRANCH   8  15
ENDBRANCH   3   8
ENDBRANCH   1   7
BRANCH   1  18
ATOM     18  O   UNL     1       1.584   6.517  19.380  0.00  0.00    +0.000 OA
BRANCH  18  19
ATOM     19  C   UNL     1       2.143   7.819  19.610  0.00  0.00    +0.000 C 
BRANCH  19  20
ATOM     20  C   UNL     1       1.713   8.843  18.553  0.00  0.00    +0.000 C 
ATOM     21  O   UNL     1       2.153   8.772  17.398  0.00  0.00    +0.000 OA
BRANCH  20  22
ATOM     22  C   UNL     1       0.754   9.888  18.921  0.00  0.00    +0.000 A 
ATOM     23  C   UNL     1       0.940  10.748  19.994  0.00  0.00    +0.000 A 
ATOM     24  N   UNL     1      -0.116  11.612  20.053  0.00  0.00    +0.000 N 
ATOM     25  C   UNL     1      -1.025  11.318  19.065  0.00  0.00    +0.000 A 
ATOM     26  C   UNL     1      -2.264  11.908  18.785  0.00  0.00    +0.000 A 
ATOM     27  C   UNL     1      -3.018  11.379  17.735  0.00  0.00    +0.000 A 
ATOM     28  C   UNL     1      -2.543  10.305  16.991  0.00  0.00    +0.000 A 
ATOM     29  C   UNL     1      -1.299   9.734  17.278  0.00  0.00    +0.000 A 
ATOM     30  C   UNL     1      -0.511  10.239  18.336  0.00  0.00    +0.000 A 
ATOM     31  H   UNL     1      -0.238  12.342  20.745  0.00  0.00    +0.000 HD
ENDBRANCH  20  22
ENDBRANCH  19  20
ENDBRANCH  18  19
ENDBRANCH   1  18
TORSDOF 7
ENDMDL
MODEL 7
REMARK VINA RESULT:      -8.1      2.237      3.223
REMARK  Name = 
REMARK  8 active torsions:
REMARK  status: ('A' for Active; 'I' for Inactive)
REMARK    1  A    between atoms: C_1  and  C_2
REMARK    2  A    between atoms: C_5  and  S_6
REMARK    3  A    between atoms: S_6  and  N_9
REMARK    4  A    between atoms: C_13  and  C_14
REMARK    5  A    between atoms: C_14  and  O_16
REMARK    6  A    between atoms: O_16  and  C_17
REMARK    7  A    between atoms: C_17  and  C_18
REMARK    8  A    between atoms: C_18  and  C_20
REMARK                            x       y       z     vdW  Elec       q    Type
REMARK                         _______ _______ _______ _____ _____    ______ ____
ROOT
ATOM      1  C   UNL     1       1.679   5.095  18.910  0.00  0.00    +0.000 C 
ATOM      2  O   UNL     1       1.888   5.427  17.745  0.00  0.00    +0.000 OA
ENDROOT
BRANCH   1   7
ATOM      3  N   UNL     1       2.492   2.745  19.437  0.00  0.00    +0.000 NA
ATOM      4  C   UNL     1       3.032   2.728  20.794  0.00  0.00    +0.000 C 
ATOM      5  C   UNL     1       1.739   2.704  21.594  0.00  0.00    +0.000 C 
ATOM      6  C   UNL     1       0.859   3.711  20.850  0.00  0.00    +0.000 C 
ATOM      7  C   UNL     1       1.350   3.683  19.379  0.00  0.00    +0.000 C 
BRANCH   3   8
ATOM      8  S   UNL     1       3.359   2.291  18.097  0.00  0.00    +0.000 S 
ATOM      9  O   UNL     1       2.461   2.354  16.953  0.00  0.00    +0.000 OA
ATOM     10  O   UNL     1       4.054   1.073  18.426  0.00  0.00    +0.000 OA
BRANCH   8  15
ATOM     11  C   UNL     1       7.369   6.803  17.342  0.00  0.00    +0.000 C 
ATOM     12  C   UNL     1       6.403   5.668  17.515  0.00  0.00    +0.000 A 
ATOM     13  C   UNL     1       5.780   5.059  16.417  0.00  0.00    +0.000 A 
ATOM     14  C   UNL     1       4.862   4.021  16.605  0.00  0.00    +0.000 A 
ATOM     15  C   UNL     1       4.581   3.564  17.894  0.00  0.00    +0.000 A 
ATOM     16  C   UNL     1       5.202   4.161  18.995  0.00  0.00    +0.000 A 
ATOM     17  C   UNL     1       6.106   5.209  18.802  0.00  0.00    +0.000 A 
ENDBRANCH   8  15
ENDBRANCH   3   8
ENDBRANCH   1   7
BRANCH   1  18
ATOM     18  O   UNL     1       1.801   5.939  19.978  0.00  0.00    +0.000 OA
BRANCH  18  19
ATOM     19  C   UNL     1       2.564   7.125  19.711  0.00  0.00    +0.000 C 
BRANCH  19  20
ATOM     20  C   UNL     1       1.681   8.359  19.488  0.00  0.00    +0.000 C 
ATOM     21  O   UNL     1       1.473   8.780  18.342  0.00  0.00    +0.000 OA
BRANCH  20  22
ATOM     22  C   UNL     1       1.065   9.014  20.645  0.00  0.00    +0.000 A 
ATOM     23  C   UNL     1       1.316   8.638  21.956  0.00  0.00    +0.000 A 
ATOM     24  N   UNL     1       0.610   9.455  22.791  0.00  0.00    +0.000 N 
ATOM     25  C   UNL     1      -0.143  10.344  22.061  0.00  0.00    +0.000 A 
ATOM     26  C   UNL     1      -1.044  11.322  22.497  0.00  0.00    +0.000 A 
ATOM     27  C   UNL     1      -1.717  12.069  21.529  0.00  0.00    +0.000 A 
ATOM     28  C   UNL     1      -1.489  11.848  20.176  0.00  0.00    +0.000 A 
ATOM     29  C   UNL     1      -0.577  10.873  19.757  0.00  0.00    +0.000 A 
ATOM     30  C   UNL     1       0.118  10.095  20.709  0.00  0.00    +0.000 A 
ATOM     31  H   UNL     1       0.605   9.396  23.803  0.00  0.00    +0.000 HD
ENDBRANCH  20  22
ENDBRANCH  19  20
ENDBRANCH  18  19
ENDBRANCH   1  18
TORSDOF 7
ENDMDL
MODEL 8
REMARK VINA RESULT:      -8.1      2.262      3.401
REMARK  Name = 
REMARK  8 active torsions:
REMARK  status: ('A' for Active; 'I' for Inactive)
REMARK    1  A    between atoms: C_1  and  C_2
REMARK    2  A    between atoms: C_5  and  S_6
REMARK    3  A    between atoms: S_6  and  N_9
REMARK    4  A    between atoms: C_13  and  C_14
REMARK    5  A    between atoms: C_14  and  O_16
REMARK    6  A    between atoms: O_16  and  C_17
REMARK    7  A    between atoms: C_17  and  C_18
REMARK    8  A    between atoms: C_18  and  C_20
REMARK                            x       y       z     vdW  Elec       q    Type
REMARK                         _______ _______ _______ _____ _____    ______ ____
ROOT
ATOM      1  C   UNL     1       1.636   4.281  18.213  0.00  0.00    +0.000 C 
ATOM      2  O   UNL     1       1.743   4.173  16.992  0.00  0.00    +0.000 OA
ENDROOT
BRANCH   1   7
ATOM      3  N   UNL     1       2.818   2.756  19.867  0.00  0.00    +0.000 NA
ATOM      4  C   UNL     1       2.888   3.430  21.161  0.00  0.00    +0.000 C 
ATOM      5  C   UNL     1       1.460   3.224  21.644  0.00  0.00    +0.000 C 
ATOM      6  C   UNL     1       0.632   3.495  20.387  0.00  0.00    +0.000 C 
ATOM      7  C   UNL     1       1.551   3.119  19.195  0.00  0.00    +0.000 C 
BRANCH   3   8
ATOM      8  S   UNL     1       4.149   2.200  19.047  0.00  0.00    +0.000 S 
ATOM      9  O   UNL     1       3.673   1.515  17.853  0.00  0.00    +0.000 OA
ATOM     10  O   UNL     1       4.991   1.525  20.001  0.00  0.00    +0.000 OA
BRANCH   8  15
ATOM     11  C   UNL     1       7.284   7.112  17.303  0.00  0.00    +0.000 C 
ATOM     12  C   UNL     1       6.487   5.921  17.746  0.00  0.00    +0.000 A 
ATOM     13  C   UNL     1       6.354   5.589  19.101  0.00  0.00    +0.000 A 
ATOM     14  C   UNL     1       5.627   4.457  19.488  0.00  0.00    +0.000 A 
ATOM     15  C   UNL     1       5.004   3.666  18.522  0.00  0.00    +0.000 A 
ATOM     16  C   UNL     1       5.126   3.992  17.168  0.00  0.00    +0.000 A 
ATOM     17  C   UNL     1       5.866   5.114  16.786  0.00  0.00    +0.000 A 
ENDBRANCH   8  15
ENDBRANCH   3   8
ENDBRANCH   1   7
BRANCH   1  18
ATOM     18  O   UNL     1       1.666   5.473  18.880  0.00  0.00    +0.000 OA
BRANCH  18  19
ATOM     19  C   UNL     1       2.717   6.358  18.464  0.00  0.00    +0.000 C 
BRANCH  19  20
ATOM     20  C   UNL     1       2.256   7.817  18.361  0.00  0.00    +0.000 C 
ATOM     21  O   UNL     1       2.434   8.456  17.315  0.00  0.00    +0.000 OA
BRANCH  20  22
ATOM     22  C   UNL     1       1.579   8.433  19.504  0.00  0.00    +0.000 A 
ATOM     23  C   UNL     1       1.708   7.971  20.806  0.00  0.00    +0.000 A 
ATOM     24  N   UNL     1       0.973   8.771  21.632  0.00  0.00    +0.000 N 
ATOM     25  C   UNL     1       0.320   9.735  20.902  0.00  0.00    +0.000 A 
ATOM     26  C   UNL     1      -0.571  10.729  21.326  0.00  0.00    +0.000 A 
ATOM     27  C   UNL     1      -1.132  11.561  20.356  0.00  0.00    +0.000 A 
ATOM     28  C   UNL     1      -0.806  11.408  19.014  0.00  0.00    +0.000 A 
ATOM     29  C   UNL     1       0.094  10.416  18.608  0.00  0.00    +0.000 A 
ATOM     30  C   UNL     1       0.677   9.552  19.561  0.00  0.00    +0.000 A 
ATOM     31  H   UNL     1       0.885   8.655  22.635  0.00  0.00    +0.000 HD
ENDBRANCH  20  22
ENDBRANCH  19  20
ENDBRANCH  18  19
ENDBRANCH   1  18
TORSDOF 7
ENDMDL
MODEL 9
REMARK VINA RESULT:      -8.1      3.206      9.849
REMARK  Name = 
REMARK  8 active torsions:
REMARK  status: ('A' for Active; 'I' for Inactive)
REMARK    1  A    between atoms: C_1  and  C_2
REMARK    2  A    between atoms: C_5  and  S_6
REMARK    3  A    between atoms: S_6  and  N_9
REMARK    4  A    between atoms: C_13  and  C_14
REMARK    5  A    between atoms: C_14  and  O_16
REMARK    6  A    between atoms: O_16  and  C_17
REMARK    7  A    between atoms: C_17  and  C_18
REMARK    8  A    between atoms: C_18  and  C_20
REMARK                            x       y       z     vdW  Elec       q    Type
REMARK                         _______ _______ _______ _____ _____    ______ ____
ROOT
ATOM      1  C   UNL     1       1.144  10.130  18.295  0.00  0.00    +0.000 C 
ATOM      2  O   UNL     1       2.010  10.999  18.203  0.00  0.00    +0.000 OA
ENDROOT
BRANCH   1   7
ATOM      3  N   UNL     1      -0.408  11.586  19.685  0.00  0.00    +0.000 NA
ATOM      4  C   UNL     1      -1.092  12.525  18.799  0.00  0.00    +0.000 C 
ATOM      5  C   UNL     1      -2.135  11.601  18.189  0.00  0.00    +0.000 C 
ATOM      6  C   UNL     1      -1.341  10.321  17.917  0.00  0.00    +0.000 C 
ATOM      7  C   UNL     1      -0.208  10.303  18.977  0.00  0.00    +0.000 C 
BRANCH   3   8
ATOM      8  S   UNL     1       0.510  12.054  20.986  0.00  0.00    +0.000 S 
ATOM      9  O   UNL     1       1.370  13.142  20.546  0.00  0.00    +0.000 OA
ATOM     10  O   UNL     1       1.066  10.860  21.571  0.00  0.00    +0.000 OA
BRANCH   8  15
ATOM     11  C   UNL     1      -3.559  14.497  24.791  0.00  0.00    +0.000 C 
ATOM     12  C   UNL     1      -2.533  13.892  23.878  0.00  0.00    +0.000 A 
ATOM     13  C   UNL     1      -1.383  14.595  23.497  0.00  0.00    +0.000 A 
ATOM     14  C   UNL     1      -0.453  14.020  22.624  0.00  0.00    +0.000 A 
ATOM     15  C   UNL     1      -0.656  12.724  22.147  0.00  0.00    +0.000 A 
ATOM     16  C   UNL     1      -1.798  12.012  22.526  0.00  0.00    +0.000 A 
ATOM     17  C   UNL     1      -2.731  12.598  23.386  0.00  0.00    +0.000 A 
ENDBRANCH   8  15
ENDBRANCH   3   8
ENDBRANCH   1   7
BRANCH   1  18
ATOM     18  O   UNL     1       1.234   8.897  17.713  0.00  0.00    +0.000 OA
BRANCH  18  19
ATOM     19  C   UNL     1       2.529   8.287  17.816  0.00  0.00    +0.000 C 
BRANCH  19  20
ATOM     20  C   UNL     1       2.556   7.118  18.808  0.00  0.00    +0.000 C 
ATOM     21  O   UNL     1       2.255   7.299  19.995  0.00  0.00    +0.000 OA
BRANCH  20  22
ATOM     22  C   UNL     1       2.915   5.782  18.326  0.00  0.00    +0.000 A 
ATOM     23  C   UNL     1       3.939   5.549  17.420  0.00  0.00    +0.000 A 
ATOM     24  N   UNL     1       4.031   4.205  17.196  0.00  0.00    +0.000 N 
ATOM     25  C   UNL     1       3.060   3.538  17.903  0.00  0.00    +0.000 A 
ATOM     26  C   UNL     1       2.755   2.172  17.936  0.00  0.00    +0.000 A 
ATOM     27  C   UNL     1       1.673   1.762  18.716  0.00  0.00    +0.000 A 
ATOM     28  C   UNL     1       0.930   2.686  19.442  0.00  0.00    +0.000 A 
ATOM     29  C   UNL     1       1.254   4.046  19.407  0.00  0.00    +0.000 A 
ATOM     30  C   UNL     1       2.339   4.498  18.624  0.00  0.00    +0.000 A 
ATOM     31  H   UNL     1       4.692   3.759  16.570  0.00  0.00    +0.000 HD
ENDBRANCH  20  22
ENDBRANCH  19  20
ENDBRANCH  18  19
ENDBRANCH   1  18
TORSDOF 7
ENDMDL
