MODEL 1
REMARK VINA RESULT:      -6.5      0.000      0.000
REMARK  Name = 
REMARK  3 active torsions:
REMARK  status: ('A' for Active; 'I' for Inactive)
REMARK    1  A    between atoms: N_3  and  C_4
REMARK    2  A    between atoms: C_7  and  O_8
REMARK    3  A    between atoms: N_11  and  C_12
REMARK                            x       y       z     vdW  Elec       q    Type
REMARK                         _______ _______ _______ _____ _____    ______ ____
ROOT
ATOM      1  O   UNL     1       7.548   9.710  17.480  0.00  0.00    +0.000 OA
ATOM      2  C   UNL     1       8.369   9.288  18.281  0.00  0.00    +0.000 C 
ATOM      3  N   UNL     1       8.531   7.981  18.703  0.00  0.00    +0.000 N 
ATOM      4  N   UNL     1       9.272  10.103  18.934  0.00  0.00    +0.000 N 
ATOM      5  H   UNL     1       9.131   7.860  19.504  0.00  0.00    +0.000 HD
ATOM      6  H   UNL     1      10.119   9.644  19.232  0.00  0.00    +0.000 HD
ENDROOT
BRANCH   3   7
ATOM      7  C   UNL     1       7.812   6.844  18.292  0.00  0.00    +0.000 A 
ATOM      8  C   UNL     1       7.498   5.778  19.136  0.00  0.00    +0.000 A 
ATOM      9  C   UNL     1       6.806   4.664  18.646  0.00  0.00    +0.000 A 
ATOM     10  C   UNL     1       6.430   4.622  17.307  0.00  0.00    +0.000 A 
ATOM     11  C   UNL     1       6.713   5.683  16.459  0.00  0.00    +0.000 A 
ATOM     12  C   UNL     1       7.398   6.796  16.952  0.00  0.00    +0.000 A 
BRANCH  10  13
ATOM     13  O   UNL     1       5.781   3.544  16.785  0.00  0.00    +0.000 OA
ATOM     14  H   UNL     1       5.590   3.725  15.850  0.00  0.00    +0.000 HD
ENDBRANCH  10  13
ENDBRANCH   3   7
BRANCH   4  15
ATOM     15  C   UNL     1       9.367  11.545  18.705  0.00  0.00    +0.000 C 
ATOM     16  C   UNL     1       9.482  12.349  20.010  0.00  0.00    +0.000 C 
ATOM     17  C   UNL     1      10.757  11.995  20.775  0.00  0.00    +0.000 C 
ATOM     18  C   UNL     1      12.006  12.184  19.916  0.00  0.00    +0.000 C 
ATOM     19  C   UNL     1      11.901  11.502  18.554  0.00  0.00    +0.000 C 
ATOM     20  C   UNL     1      10.595  11.842  17.831  0.00  0.00    +0.000 C 
ENDBRANCH   4  15
TORSDOF 3
ENDMDL
MODEL 2
REMARK VINA RESULT:      -6.5      0.275      1.196
REMARK  Name = 
REMARK  3 active torsions:
REMARK  status: ('A' for Active; 'I' for Inactive)
REMARK    1  A    between atoms: N_3  and  C_4
REMARK    2  A    between atoms: C_7  and  O_8
REMARK    3  A    between atoms: N_11  and  C_12
REMARK                            x       y       z     vdW  Elec       q    Type
REMARK                         _______ _______ _______ _____ _____    ______ ____
ROOT
ATOM      1  O   UNL     1       7.473   9.663  17.454  0.00  0.00    +0.000 OA
ATOM      2  C   UNL     1       8.318   9.222  18.220  0.00  0.00    +0.000 C 
ATOM      3  N   UNL     1       8.473   7.911  18.630  0.00  0.00    +0.000 N 
ATOM      4  N   UNL     1       9.260  10.018  18.840  0.00  0.00    +0.000 N 
ATOM      5  H   UNL     1       9.102   7.775  19.406  0.00  0.00    +0.000 HD
ATOM      6  H   UNL     1      10.110   9.543  19.103  0.00  0.00    +0.000 HD
ENDROOT
BRANCH   3   7
ATOM      7  C   UNL     1       7.718   6.788  18.242  0.00  0.00    +0.000 A 
ATOM      8  C   UNL     1       7.305   6.548  16.931  0.00  0.00    +0.000 A 
ATOM      9  C   UNL     1       6.529   5.424  16.626  0.00  0.00    +0.000 A 
ATOM     10  C   UNL     1       6.166   4.542  17.640  0.00  0.00    +0.000 A 
ATOM     11  C   UNL     1       6.589   4.753  18.944  0.00  0.00    +0.000 A 
ATOM     12  C   UNL     1       7.369   5.872  19.245  0.00  0.00    +0.000 A 
BRANCH  10  13
ATOM     13  O   UNL     1       5.389   3.452  17.390  0.00  0.00    +0.000 OA
ATOM     14  H   UNL     1       5.125   3.471  16.456  0.00  0.00    +0.000 HD
ENDBRANCH  10  13
ENDBRANCH   3   7
BRANCH   4  15
ATOM     15  C   UNL     1       9.371  11.459  18.615  0.00  0.00    +0.000 C 
ATOM     16  C   UNL     1       9.383  12.267  19.922  0.00  0.00    +0.000 C 
ATOM     17  C   UNL     1      10.594  11.918  20.786  0.00  0.00    +0.000 C 
ATOM     18  C   UNL     1      11.906  12.105  20.027  0.00  0.00    +0.000 C 
ATOM     19  C   UNL     1      11.910  11.419  18.663  0.00  0.00    +0.000 C 
ATOM     20  C   UNL     1      10.664  11.755  17.839  0.00  0.00    +0.000 C 
ENDBRANCH   4  15
TORSDOF 3
ENDMDL
MODEL 3
REMARK VINA RESULT:      -6.4      5.972      8.488
REMARK  Name = 
REMARK  3 active torsions:
REMARK  status: ('A' for Active; 'I' for Inactive)
REMARK    1  A    between atoms: N_3  and  C_4
REMARK    2  A    between atoms: C_7  and  O_8
REMARK    3  A    between atoms: N_11  and  C_12
REMARK                            x       y       z     vdW  Elec       q    Type
REMARK                         _______ _______ _______ _____ _____    ______ ____
ROOT
ATOM      1  O   UNL     1       3.094   5.621  17.449  0.00  0.00    +0.000 OA
ATOM      2  C   UNL     1       3.328   4.429  17.592  0.00  0.00    +0.000 C 
ATOM      3  N   UNL     1       4.366   3.708  17.033  0.00  0.00    +0.000 N 
ATOM      4  N   UNL     1       2.528   3.590  18.341  0.00  0.00    +0.000 N 
ATOM      5  H   UNL     1       4.285   2.706  17.112  0.00  0.00    +0.000 HD
ATOM      6  H   UNL     1       2.997   2.780  18.716  0.00  0.00    +0.000 HD
ENDROOT
BRANCH   3   7
ATOM      7  C   UNL     1       5.398   4.180  16.201  0.00  0.00    +0.000 A 
ATOM      8  C   UNL     1       6.506   4.889  16.667  0.00  0.00    +0.000 A 
ATOM      9  C   UNL     1       7.478   5.354  15.773  0.00  0.00    +0.000 A 
ATOM     10  C   UNL     1       7.336   5.107  14.411  0.00  0.00    +0.000 A 
ATOM     11  C   UNL     1       6.253   4.384  13.934  0.00  0.00    +0.000 A 
ATOM     12  C   UNL     1       5.288   3.914  14.828  0.00  0.00    +0.000 A 
BRANCH  10  13
ATOM     13  O   UNL     1       8.244   5.567  13.507  0.00  0.00    +0.000 OA
ATOM     14  H   UNL     1       9.029   5.874  13.989  0.00  0.00    +0.000 HD
ENDBRANCH  10  13
ENDBRANCH   3   7
BRANCH   4  15
ATOM     15  C   UNL     1       1.345   4.045  19.072  0.00  0.00    +0.000 C 
ATOM     16  C   UNL     1       0.616   2.902  19.797  0.00  0.00    +0.000 C 
ATOM     17  C   UNL     1       1.503   2.257  20.861  0.00  0.00    +0.000 C 
ATOM     18  C   UNL     1       2.023   3.284  21.865  0.00  0.00    +0.000 C 
ATOM     19  C   UNL     1       2.656   4.503  21.198  0.00  0.00    +0.000 C 
ATOM     20  C   UNL     1       1.763   5.100  20.108  0.00  0.00    +0.000 C 
ENDBRANCH   4  15
TORSDOF 3
ENDMDL
MODEL 4
REMARK VINA RESULT:      -6.3      5.949      8.535
REMARK  Name = 
REMARK  3 active torsions:
REMARK  status: ('A' for Active; 'I' for Inactive)
REMARK    1  A    between atoms: N_3  and  C_4
REMARK    2  A    between atoms: C_7  and  O_8
REMARK    3  A    between atoms: N_11  and  C_12
REMARK                            x       y       z     vdW  Elec       q    Type
REMARK                         _______ _______ _______ _____ _____    ______ ____
ROOT
ATOM      1  O   UNL     1       3.017   5.672  17.432  0.00  0.00    +0.000 OA
ATOM      2  C   UNL     1       3.262   4.484  17.588  0.00  0.00    +0.000 C 
ATOM      3  N   UNL     1       4.276   3.755  16.997  0.00  0.00    +0.000 N 
ATOM      4  N   UNL     1       2.499   3.658  18.389  0.00  0.00    +0.000 N 
ATOM      5  H   UNL     1       4.202   2.754  17.100  0.00  0.00    +0.000 HD
ATOM      6  H   UNL     1       2.988   2.857  18.758  0.00  0.00    +0.000 HD
ENDROOT
BRANCH   3   7
ATOM      7  C   UNL     1       5.269   4.213  16.110  0.00  0.00    +0.000 A 
ATOM      8  C   UNL     1       5.264   3.950  14.741  0.00  0.00    +0.000 A 
ATOM      9  C   UNL     1       6.304   4.413  13.925  0.00  0.00    +0.000 A 
ATOM     10  C   UNL     1       7.348   5.140  14.488  0.00  0.00    +0.000 A 
ATOM     11  C   UNL     1       7.356   5.430  15.845  0.00  0.00    +0.000 A 
ATOM     12  C   UNL     1       6.314   4.973  16.655  0.00  0.00    +0.000 A 
BRANCH  10  13
ATOM     13  O   UNL     1       8.392   5.584  13.735  0.00  0.00    +0.000 OA
ATOM     14  H   UNL     1       8.063   5.787  12.844  0.00  0.00    +0.000 HD
ENDBRANCH  10  13
ENDBRANCH   3   7
BRANCH   4  15
ATOM     15  C   UNL     1       1.349   4.125  19.163  0.00  0.00    +0.000 C 
ATOM     16  C   UNL     1       0.585   2.978  19.844  0.00  0.00    +0.000 C 
ATOM     17  C   UNL     1       1.460   2.245  20.859  0.00  0.00    +0.000 C 
ATOM     18  C   UNL     1       2.040   3.198  21.902  0.00  0.00    +0.000 C 
ATOM     19  C   UNL     1       2.713   4.422  21.284  0.00  0.00    +0.000 C 
ATOM     20  C   UNL     1       1.827   5.109  20.241  0.00  0.00    +0.000 C 
ENDBRANCH   4  15
TORSDOF 3
ENDMDL
MODEL 5
REMARK VINA RESULT:      -6.1      5.902      8.192
REMARK  Name = 
REMARK  3 active torsions:
REMARK  status: ('A' for Active; 'I' for Inactive)
REMARK    1  A    between atoms: N_3  and  C_4
REMARK    2  A    between atoms: C_7  and  O_8
REMARK    3  A    between atoms: N_11  and  C_12
REMARK                            x       y       z     vdW  Elec       q    Type
REMARK                         _______ _______ _______ _____ _____    ______ ____
ROOT
ATOM      1  O   UNL     1       2.160   5.526  18.723  0.00  0.00    +0.000 OA
ATOM      2  C   UNL     1       2.925   6.304  18.169  0.00  0.00    +0.000 C 
ATOM      3  N   UNL     1       2.840   7.683  18.142  0.00  0.00    +0.000 N 
ATOM      4  N   UNL     1       4.014   5.889  17.429  0.00  0.00    +0.000 N 
ATOM      5  H   UNL     1       3.449   8.138  17.480  0.00  0.00    +0.000 HD
ATOM      6  H   UNL     1       4.764   6.559  17.368  0.00  0.00    +0.000 HD
ENDROOT
BRANCH   3   7
ATOM      7  C   UNL     1       1.879   8.503  18.761  0.00  0.00    +0.000 A 
ATOM      8  C   UNL     1       1.602   8.475  20.128  0.00  0.00    +0.000 A 
ATOM      9  C   UNL     1       0.608   9.300  20.669  0.00  0.00    +0.000 A 
ATOM     10  C   UNL     1      -0.108  10.153  19.834  0.00  0.00    +0.000 A 
ATOM     11  C   UNL     1       0.171  10.211  18.476  0.00  0.00    +0.000 A 
ATOM     12  C   UNL     1       1.168   9.392  17.940  0.00  0.00    +0.000 A 
BRANCH  10  13
ATOM     13  O   UNL     1      -1.101  10.951  20.315  0.00  0.00    +0.000 OA
ATOM     14  H   UNL     1      -0.769  11.413  21.102  0.00  0.00    +0.000 HD
ENDBRANCH  10  13
ENDBRANCH   3   7
BRANCH   4  15
ATOM     15  C   UNL     1       4.388   4.484  17.264  0.00  0.00    +0.000 C 
ATOM     16  C   UNL     1       5.061   4.202  15.912  0.00  0.00    +0.000 C 
ATOM     17  C   UNL     1       6.374   4.970  15.767  0.00  0.00    +0.000 C 
ATOM     18  C   UNL     1       7.335   4.675  16.916  0.00  0.00    +0.000 C 
ATOM     19  C   UNL     1       6.685   4.826  18.291  0.00  0.00    +0.000 C 
ATOM     20  C   UNL     1       5.352   4.080  18.390  0.00  0.00    +0.000 C 
ENDBRANCH   4  15
TORSDOF 3
ENDMDL
MODEL 6
REMARK VINA RESULT:      -6.1      6.746      9.522
REMARK  Name = 
REMARK  3 active torsions:
REMARK  status: ('A' for Active; 'I' for Inactive)
REMARK    1  A    between atoms: N_3  and  C_4
REMARK    2  A    between atoms: C_7  and  O_8
REMARK    3  A    between atoms: N_11  and  C_12
REMARK                            x       y       z     vdW  Elec       q    Type
REMARK                         _______ _______ _______ _____ _____    ______ ____
ROOT
ATOM      1  O   UNL     1       1.759   8.036  20.306  0.00  0.00    +0.000 OA
ATOM      2  C   UNL     1       2.020   7.983  19.112  0.00  0.00    +0.000 C 
ATOM      3  N   UNL     1       1.699   8.916  18.144  0.00  0.00    +0.000 N 
ATOM      4  N   UNL     1       2.675   6.916  18.531  0.00  0.00    +0.000 N 
ATOM      5  H   UNL     1       1.830   8.610  17.193  0.00  0.00    +0.000 HD
ATOM      6  H   UNL     1       3.179   7.136  17.687  0.00  0.00    +0.000 HD
ENDROOT
BRANCH   3   7
ATOM      7  C   UNL     1       1.027  10.141  18.312  0.00  0.00    +0.000 A 
ATOM      8  C   UNL     1       1.674  11.349  18.574  0.00  0.00    +0.000 A 
ATOM      9  C   UNL     1       0.935  12.524  18.761  0.00  0.00    +0.000 A 
ATOM     10  C   UNL     1      -0.454  12.483  18.684  0.00  0.00    +0.000 A 
ATOM     11  C   UNL     1      -1.111  11.295  18.401  0.00  0.00    +0.000 A 
ATOM     12  C   UNL     1      -0.372  10.126  18.208  0.00  0.00    +0.000 A 
BRANCH  10  13
ATOM     13  O   UNL     1      -1.210  13.598  18.887  0.00  0.00    +0.000 OA
ATOM     14  H   UNL     1      -0.615  14.340  19.086  0.00  0.00    +0.000 HD
ENDBRANCH  10  13
ENDBRANCH   3   7
BRANCH   4  15
ATOM     15  C   UNL     1       3.158   5.760  19.287  0.00  0.00    +0.000 C 
ATOM     16  C   UNL     1       2.092   4.665  19.448  0.00  0.00    +0.000 C 
ATOM     17  C   UNL     1       1.668   4.092  18.096  0.00  0.00    +0.000 C 
ATOM     18  C   UNL     1       2.863   3.566  17.303  0.00  0.00    +0.000 C 
ATOM     19  C   UNL     1       4.007   4.573  17.209  0.00  0.00    +0.000 C 
ATOM     20  C   UNL     1       4.379   5.160  18.573  0.00  0.00    +0.000 C 
ENDBRANCH   4  15
TORSDOF 3
ENDMDL
MODEL 7
REMARK VINA RESULT:      -6.1      5.847      8.243
REMARK  Name = 
REMARK  3 active torsions:
REMARK  status: ('A' for Active; 'I' for Inactive)
REMARK    1  A    between atoms: N_3  and  C_4
REMARK    2  A    between atoms: C_7  and  O_8
REMARK    3  A    between atoms: N_11  and  C_12
REMARK                            x       y       z     vdW  Elec       q    Type
REMARK                         _______ _______ _______ _____ _____    ______ ____
ROOT
ATOM      1  O   UNL     1       2.196   5.541  18.796  0.00  0.00    +0.000 OA
ATOM      2  C   UNL     1       2.938   6.304  18.194  0.00  0.00    +0.000 C 
ATOM      3  N   UNL     1       2.823   7.678  18.094  0.00  0.00    +0.000 N 
ATOM      4  N   UNL     1       4.029   5.874  17.464  0.00  0.00    +0.000 N 
ATOM      5  H   UNL     1       3.416   8.110  17.403  0.00  0.00    +0.000 HD
ATOM      6  H   UNL     1       4.764   6.555  17.359  0.00  0.00    +0.000 HD
ENDROOT
BRANCH   3   7
ATOM      7  C   UNL     1       1.851   8.509  18.681  0.00  0.00    +0.000 A 
ATOM      8  C   UNL     1       1.088   9.433  17.966  0.00  0.00    +0.000 A 
ATOM      9  C   UNL     1       0.161  10.249  18.624  0.00  0.00    +0.000 A 
ATOM     10  C   UNL     1       0.001  10.137  20.002  0.00  0.00    +0.000 A 
ATOM     11  C   UNL     1       0.734   9.207  20.725  0.00  0.00    +0.000 A 
ATOM     12  C   UNL     1       1.654   8.389  20.065  0.00  0.00    +0.000 A 
BRANCH  10  13
ATOM     13  O   UNL     1      -0.870  10.932  20.683  0.00  0.00    +0.000 OA
ATOM     14  H   UNL     1      -1.186  10.444  21.461  0.00  0.00    +0.000 HD
ENDBRANCH  10  13
ENDBRANCH   3   7
BRANCH   4  15
ATOM     15  C   UNL     1       4.432   4.470  17.370  0.00  0.00    +0.000 C 
ATOM     16  C   UNL     1       5.124   4.138  16.039  0.00  0.00    +0.000 C 
ATOM     17  C   UNL     1       6.423   4.924  15.870  0.00  0.00    +0.000 C 
ATOM     18  C   UNL     1       7.378   4.702  17.042  0.00  0.00    +0.000 C 
ATOM     19  C   UNL     1       6.711   4.905  18.401  0.00  0.00    +0.000 C 
ATOM     20  C   UNL     1       5.391   4.139  18.523  0.00  0.00    +0.000 C 
ENDBRANCH   4  15
TORSDOF 3
ENDMDL
MODEL 8
REMARK VINA RESULT:      -6.1      6.777      9.535
REMARK  Name = 
REMARK  3 active torsions:
REMARK  status: ('A' for Active; 'I' for Inactive)
REMARK    1  A    between atoms: N_3  and  C_4
REMARK    2  A    between atoms: C_7  and  O_8
REMARK    3  A    between atoms: N_11  and  C_12
REMARK                            x       y       z     vdW  Elec       q    Type
REMARK                         _______ _______ _______ _____ _____    ______ ____
ROOT
ATOM      1  O   UNL     1       1.506   8.143  20.380  0.00  0.00    +0.000 OA
ATOM      2  C   UNL     1       1.879   8.139  19.215  0.00  0.00    +0.000 C 
ATOM      3  N   UNL     1       1.627   9.099  18.253  0.00  0.00    +0.000 N 
ATOM      4  N   UNL     1       2.611   7.107  18.663  0.00  0.00    +0.000 N 
ATOM      5  H   UNL     1       1.854   8.830  17.308  0.00  0.00    +0.000 HD
ATOM      6  H   UNL     1       3.186   7.368  17.877  0.00  0.00    +0.000 HD
ENDROOT
BRANCH   3   7
ATOM      7  C   UNL     1       0.914  10.303  18.398  0.00  0.00    +0.000 A 
ATOM      8  C   UNL     1      -0.478  10.387  18.371  0.00  0.00    +0.000 A 
ATOM      9  C   UNL     1      -1.118  11.627  18.491  0.00  0.00    +0.000 A 
ATOM     10  C   UNL     1      -0.356  12.783  18.637  0.00  0.00    +0.000 A 
ATOM     11  C   UNL     1       1.028  12.714  18.690  0.00  0.00    +0.000 A 
ATOM     12  C   UNL     1       1.664  11.475  18.578  0.00  0.00    +0.000 A 
BRANCH  10  13
ATOM     13  O   UNL     1      -0.938  14.010  18.729  0.00  0.00    +0.000 OA
ATOM     14  H   UNL     1      -0.270  14.644  19.038  0.00  0.00    +0.000 HD
ENDBRANCH  10  13
ENDBRANCH   3   7
BRANCH   4  15
ATOM     15  C   UNL     1       3.049   5.935  19.421  0.00  0.00    +0.000 C 
ATOM     16  C   UNL     1       2.005   4.807  19.431  0.00  0.00    +0.000 C 
ATOM     17  C   UNL     1       1.738   4.278  18.022  0.00  0.00    +0.000 C 
ATOM     18  C   UNL     1       3.022   3.814  17.337  0.00  0.00    +0.000 C 
ATOM     19  C   UNL     1       4.140   4.854  17.399  0.00  0.00    +0.000 C 
ATOM     20  C   UNL     1       4.353   5.395  18.815  0.00  0.00    +0.000 C 
ENDBRANCH   4  15
TORSDOF 3
ENDMDL
MODEL 9
REMARK VINA RESULT:      -6.1      5.915      8.369
REMARK  Name = 
REMARK  3 active torsions:
REMARK  status: ('A' for Active; 'I' for Inactive)
REMARK    1  A    between atoms: N_3  and  C_4
REMARK    2  A    between atoms: C_7  and  O_8
REMARK    3  A    between atoms: N_11  and  C_12
REMARK                            x       y       z     vdW  Elec       q    Type
REMARK                         _______ _______ _______ _____ _____    ______ ____
ROOT
ATOM      1  O   UNL     1       3.385   5.753  17.568  0.00  0.00    +0.000 OA
ATOM      2  C   UNL     1       3.997   4.860  18.137  0.00  0.00    +0.000 C 
ATOM      3  N   UNL     1       5.116   4.190  17.678  0.00  0.00    +0.000 N 
ATOM      4  N   UNL     1       3.617   4.348  19.361  0.00  0.00    +0.000 N 
ATOM      5  H   UNL     1       5.364   3.362  18.198  0.00  0.00    +0.000 HD
ATOM      6  H   UNL     1       4.364   3.941  19.901  0.00  0.00    +0.000 HD
ENDROOT
BRANCH   3   7
ATOM      7  C   UNL     1       5.817   4.397  16.476  0.00  0.00    +0.000 A 
ATOM      8  C   UNL     1       7.035   5.072  16.396  0.00  0.00    +0.000 A 
ATOM      9  C   UNL     1       7.659   5.268  15.158  0.00  0.00    +0.000 A 
ATOM     10  C   UNL     1       7.056   4.786  14.000  0.00  0.00    +0.000 A 
ATOM     11  C   UNL     1       5.857   4.091  14.064  0.00  0.00    +0.000 A 
ATOM     12  C   UNL     1       5.240   3.891  15.301  0.00  0.00    +0.000 A 
BRANCH  10  13
ATOM     13  O   UNL     1       7.616   4.979  12.774  0.00  0.00    +0.000 OA
ATOM     14  H   UNL     1       7.217   5.770  12.376  0.00  0.00    +0.000 HD
ENDBRANCH  10  13
ENDBRANCH   3   7
BRANCH   4  15
ATOM     15  C   UNL     1       2.470   4.846  20.121  0.00  0.00    +0.000 C 
ATOM     16  C   UNL     1       1.124   4.408  19.524  0.00  0.00    +0.000 C 
ATOM     17  C   UNL     1       0.969   2.888  19.545  0.00  0.00    +0.000 C 
ATOM     18  C   UNL     1       1.143   2.319  20.952  0.00  0.00    +0.000 C 
ATOM     19  C   UNL     1       2.412   2.815  21.643  0.00  0.00    +0.000 C 
ATOM     20  C   UNL     1       2.559   4.337  21.568  0.00  0.00    +0.000 C 
ENDBRANCH   4  15
TORSDOF 3
ENDMDL
