MODEL 1
REMARK VINA RESULT:      -7.4      0.000      0.000
REMARK  Name = 
REMARK  12 active torsions:
REMARK  status: ('A' for Active; 'I' for Inactive)
REMARK    1  A    between atoms: C_1  and  O_2
REMARK    2  A    between atoms: O_2  and  C_3
REMARK    3  A    between atoms: C_5  and  C_6
REMARK    4  A    between atoms: N_7  and  N_8
REMARK    5  A    between atoms: C_9  and  C_11
REMARK    6  A    between atoms: C_11  and  S_12
REMARK    7  A    between atoms: S_12  and  C_13
REMARK    8  A    between atoms: C_16  and  C_17
REMARK    9  A    between atoms: C_26  and  O_27
REMARK   10  A    between atoms: O_27  and  C_28
REMARK   11  A    between atoms: C_29  and  O_30
REMARK   12  A    between atoms: O_30  and  C_31
REMARK                            x       y       z     vdW  Elec       q    Type
REMARK                         _______ _______ _______ _____ _____    ______ ____
ROOT
ATOM      1  N   UNL     1       7.360   7.993  17.250  0.00  0.00    +0.000 N 
ATOM      2  C   UNL     1       7.498   6.724  17.805  0.00  0.00    +0.000 C 
ATOM      3  O   UNL     1       7.856   6.508  18.963  0.00  0.00    +0.000 OA
ATOM      4  H   UNL     1       7.169   8.089  16.258  0.00  0.00    +0.000 HD
ENDROOT
BRANCH   1   6
ATOM      5  C   UNL     1       8.900   9.604  17.707  0.00  0.00    +0.000 C 
ATOM      6  N   UNL     1       7.747   9.080  17.977  0.00  0.00    +0.000 NA
BRANCH   5   9
ATOM      7  C   UNL     1       9.661  11.806  20.683  0.00  0.00    +0.000 A 
ATOM      8  C   UNL     1       9.070  10.838  19.858  0.00  0.00    +0.000 A 
ATOM      9  C   UNL     1       9.411  10.739  18.511  0.00  0.00    +0.000 A 
ATOM     10  C   UNL     1      10.285  11.667  17.956  0.00  0.00    +0.000 A 
ATOM     11  C   UNL     1      10.841  12.691  18.749  0.00  0.00    +0.000 A 
ATOM     12  C   UNL     1      10.538  12.767  20.131  0.00  0.00    +0.000 A 
BRANCH   7  14
ATOM     13  C   UNL     1       8.199  12.582  22.382  0.00  0.00    +0.000 C 
ATOM     14  O   UNL     1       9.369  11.843  22.024  0.00  0.00    +0.000 OA
ENDBRANCH   7  14
BRANCH  11  15
ATOM     15  O   UNL     1      11.670  13.501  18.010  0.00  0.00    +0.000 OA
ATOM     16  C   UNL     1      11.143  14.218  16.899  0.00  0.00    +0.000 C 
ENDBRANCH  11  15
BRANCH  12  17
ATOM     17  O   UNL     1      11.115  13.801  20.818  0.00  0.00    +0.000 OA
ATOM     18  C   UNL     1      10.524  15.090  20.824  0.00  0.00    +0.000 C 
ENDBRANCH  12  17
ENDBRANCH   5   9
ENDBRANCH   1   6
BRANCH   2  19
ATOM     19  C   UNL     1       7.055   5.571  16.910  0.00  0.00    +0.000 C 
BRANCH  19  20
ATOM     20  S   UNL     1       5.873   4.450  17.736  0.00  0.00    +0.000 S 
BRANCH  20  21
ATOM     21  C   UNL     1       4.540   5.574  18.130  0.00  0.00    +0.000 A 
ATOM     22  C   UNL     1       3.862   5.525  19.346  0.00  0.00    +0.000 A 
ATOM     23  C   UNL     1       2.885   6.485  19.658  0.00  0.00    +0.000 A 
ATOM     24  C   UNL     1       2.566   7.533  18.777  0.00  0.00    +0.000 A 
ATOM     25  C   UNL     1       3.255   7.561  17.554  0.00  0.00    +0.000 A 
ATOM     26  C   UNL     1       4.226   6.599  17.235  0.00  0.00    +0.000 A 
BRANCH  24  27
ATOM     27  C   UNL     1       1.552   8.559  19.136  0.00  0.00    +0.000 A 
ATOM     28  C   UNL     1       1.025   9.436  18.167  0.00  0.00    +0.000 A 
ATOM     29  C   UNL     1       0.099  10.431  18.500  0.00  0.00    +0.000 A 
ATOM     30  C   UNL     1      -0.337  10.566  19.811  0.00  0.00    +0.000 A 
ATOM     31  C   UNL     1       0.146   9.700  20.788  0.00  0.00    +0.000 A 
ATOM     32  C   UNL     1       1.081   8.711  20.453  0.00  0.00    +0.000 A 
ENDBRANCH  24  27
ENDBRANCH  20  21
ENDBRANCH  19  20
ENDBRANCH   2  19
TORSDOF 9
ENDMDL
MODEL 2
REMARK VINA RESULT:      -7.2      1.331      1.638
REMARK  Name = 
REMARK  12 active torsions:
REMARK  status: ('A' for Active; 'I' for Inactive)
REMARK    1  A    between atoms: C_1  and  O_2
REMARK    2  A    between atoms: O_2  and  C_3
REMARK    3  A    between atoms: C_5  and  C_6
REMARK    4  A    between atoms: N_7  and  N_8
REMARK    5  A    between atoms: C_9  and  C_11
REMARK    6  A    between atoms: C_11  and  S_12
REMARK    7  A    between atoms: S_12  and  C_13
REMARK    8  A    between atoms: C_16  and  C_17
REMARK    9  A    between atoms: C_26  and  O_27
REMARK   10  A    between atoms: O_27  and  C_28
REMARK   11  A    between atoms: C_29  and  O_30
REMARK   12  A    between atoms: O_30  and  C_31
REMARK                            x       y       z     vdW  Elec       q    Type
REMARK                         _______ _______ _______ _____ _____    ______ ____
ROOT
ATOM      1  N   UNL     1       8.410   7.918  18.790  0.00  0.00    +0.000 N 
ATOM      2  C   UNL     1       7.768   7.157  17.818  0.00  0.00    +0.000 C 
ATOM      3  O   UNL     1       7.476   7.568  16.695  0.00  0.00    +0.000 OA
ATOM      4  H   UNL     1       8.517   7.547  19.728  0.00  0.00    +0.000 HD
ENDROOT
BRANCH   1   6
ATOM      5  C   UNL     1       9.437   9.867  19.358  0.00  0.00    +0.000 C 
ATOM      6  N   UNL     1       8.641   9.241  18.550  0.00  0.00    +0.000 NA
BRANCH   5   9
ATOM      7  C   UNL     1       9.047  13.604  19.759  0.00  0.00    +0.000 A 
ATOM      8  C   UNL     1       8.774  12.229  19.756  0.00  0.00    +0.000 A 
ATOM      9  C   UNL     1       9.671  11.322  19.197  0.00  0.00    +0.000 A 
ATOM     10  C   UNL     1      10.812  11.792  18.557  0.00  0.00    +0.000 A 
ATOM     11  C   UNL     1      11.076  13.174  18.488  0.00  0.00    +0.000 A 
ATOM     12  C   UNL     1      10.193  14.101  19.099  0.00  0.00    +0.000 A 
BRANCH   7  14
ATOM     13  C   UNL     1       7.653  14.036  21.629  0.00  0.00    +0.000 C 
ATOM     14  O   UNL     1       8.188  14.478  20.380  0.00  0.00    +0.000 OA
ENDBRANCH   7  14
BRANCH  11  15
ATOM     15  O   UNL     1      12.245  13.427  17.810  0.00  0.00    +0.000 OA
ATOM     16  C   UNL     1      12.305  13.203  16.407  0.00  0.00    +0.000 C 
ENDBRANCH  11  15
BRANCH  12  17
ATOM     17  O   UNL     1      10.526  15.422  18.970  0.00  0.00    +0.000 OA
ATOM     18  C   UNL     1      11.327  16.070  19.946  0.00  0.00    +0.000 C 
ENDBRANCH  12  17
ENDBRANCH   5   9
ENDBRANCH   1   6
BRANCH   2  19
ATOM     19  C   UNL     1       7.538   5.694  18.183  0.00  0.00    +0.000 C 
BRANCH  19  20
ATOM     20  S   UNL     1       6.148   4.946  17.263  0.00  0.00    +0.000 S 
BRANCH  20  21
ATOM     21  C   UNL     1       4.756   5.833  17.950  0.00  0.00    +0.000 A 
ATOM     22  C   UNL     1       4.224   5.526  19.200  0.00  0.00    +0.000 A 
ATOM     23  C   UNL     1       3.192   6.306  19.748  0.00  0.00    +0.000 A 
ATOM     24  C   UNL     1       2.669   7.424  19.075  0.00  0.00    +0.000 A 
ATOM     25  C   UNL     1       3.214   7.712  17.813  0.00  0.00    +0.000 A 
ATOM     26  C   UNL     1       4.240   6.930  17.259  0.00  0.00    +0.000 A 
BRANCH  24  27
ATOM     27  C   UNL     1       1.599   8.257  19.683  0.00  0.00    +0.000 A 
ATOM     28  C   UNL     1       1.132   8.009  20.988  0.00  0.00    +0.000 A 
ATOM     29  C   UNL     1       0.098   8.762  21.557  0.00  0.00    +0.000 A 
ATOM     30  C   UNL     1      -0.487   9.795  20.837  0.00  0.00    +0.000 A 
ATOM     31  C   UNL     1      -0.033  10.082  19.554  0.00  0.00    +0.000 A 
ATOM     32  C   UNL     1       0.996   9.320  18.984  0.00  0.00    +0.000 A 
ENDBRANCH  24  27
ENDBRANCH  20  21
ENDBRANCH  19  20
ENDBRANCH   2  19
TORSDOF 9
ENDMDL
MODEL 3
REMARK VINA RESULT:      -7.1      1.474      1.784
REMARK  Name = 
REMARK  12 active torsions:
REMARK  status: ('A' for Active; 'I' for Inactive)
REMARK    1  A    between atoms: C_1  and  O_2
REMARK    2  A    between atoms: O_2  and  C_3
REMARK    3  A    between atoms: C_5  and  C_6
REMARK    4  A    between atoms: N_7  and  N_8
REMARK    5  A    between atoms: C_9  and  C_11
REMARK    6  A    between atoms: C_11  and  S_12
REMARK    7  A    between atoms: S_12  and  C_13
REMARK    8  A    between atoms: C_16  and  C_17
REMARK    9  A    between atoms: C_26  and  O_27
REMARK   10  A    between atoms: O_27  and  C_28
REMARK   11  A    between atoms: C_29  and  O_30
REMARK   12  A    between atoms: O_30  and  C_31
REMARK                            x       y       z     vdW  Elec       q    Type
REMARK                         _______ _______ _______ _____ _____    ______ ____
ROOT
ATOM      1  N   UNL     1       7.602   7.030  16.943  0.00  0.00    +0.000 N 
ATOM      2  C   UNL     1       7.497   6.064  17.939  0.00  0.00    +0.000 C 
ATOM      3  O   UNL     1       7.345   6.314  19.135  0.00  0.00    +0.000 OA
ATOM      4  H   UNL     1       7.837   6.751  15.996  0.00  0.00    +0.000 HD
ENDROOT
BRANCH   1   6
ATOM      5  C   UNL     1       8.663   8.737  18.006  0.00  0.00    +0.000 C 
ATOM      6  N   UNL     1       7.653   8.345  17.298  0.00  0.00    +0.000 NA
BRANCH   5   9
ATOM      7  C   UNL     1       9.564  11.730  20.131  0.00  0.00    +0.000 A 
ATOM      8  C   UNL     1       9.334  10.410  19.718  0.00  0.00    +0.000 A 
ATOM      9  C   UNL     1       8.740  10.137  18.489  0.00  0.00    +0.000 A 
ATOM     10  C   UNL     1       8.289  11.187  17.697  0.00  0.00    +0.000 A 
ATOM     11  C   UNL     1       8.448  12.522  18.120  0.00  0.00    +0.000 A 
ATOM     12  C   UNL     1       9.098  12.809  19.347  0.00  0.00    +0.000 A 
BRANCH   7  14
ATOM     13  C   UNL     1       9.388  12.385  22.403  0.00  0.00    +0.000 C 
ATOM     14  O   UNL     1      10.218  11.981  21.312  0.00  0.00    +0.000 OA
ENDBRANCH   7  14
BRANCH  11  15
ATOM     15  O   UNL     1       7.932  13.403  17.199  0.00  0.00    +0.000 OA
ATOM     16  C   UNL     1       6.829  14.226  17.558  0.00  0.00    +0.000 C 
ENDBRANCH  11  15
BRANCH  12  17
ATOM     17  O   UNL     1       9.196  14.133  19.680  0.00  0.00    +0.000 OA
ATOM     18  C   UNL     1      10.357  14.881  19.356  0.00  0.00    +0.000 C 
ENDBRANCH  12  17
ENDBRANCH   5   9
ENDBRANCH   1   6
BRANCH   2  19
ATOM     19  C   UNL     1       7.464   4.621  17.446  0.00  0.00    +0.000 C 
BRANCH  19  20
ATOM     20  S   UNL     1       5.984   4.251  16.442  0.00  0.00    +0.000 S 
BRANCH  20  21
ATOM     21  C   UNL     1       4.753   5.270  17.245  0.00  0.00    +0.000 A 
ATOM     22  C   UNL     1       4.144   4.895  18.440  0.00  0.00    +0.000 A 
ATOM     23  C   UNL     1       3.252   5.764  19.090  0.00  0.00    +0.000 A 
ATOM     24  C   UNL     1       2.953   7.039  18.580  0.00  0.00    +0.000 A 
ATOM     25  C   UNL     1       3.572   7.396  17.370  0.00  0.00    +0.000 A 
ATOM     26  C   UNL     1       4.457   6.526  16.713  0.00  0.00    +0.000 A 
BRANCH  24  27
ATOM     27  C   UNL     1       2.031   7.959  19.296  0.00  0.00    +0.000 A 
ATOM     28  C   UNL     1       1.633   7.707  20.624  0.00  0.00    +0.000 A 
ATOM     29  C   UNL     1       0.736   8.545  21.296  0.00  0.00    +0.000 A 
ATOM     30  C   UNL     1       0.224   9.668  20.661  0.00  0.00    +0.000 A 
ATOM     31  C   UNL     1       0.616   9.960  19.358  0.00  0.00    +0.000 A 
ATOM     32  C   UNL     1       1.507   9.113  18.685  0.00  0.00    +0.000 A 
ENDBRANCH  24  27
ENDBRANCH  20  21
ENDBRANCH  19  20
ENDBRANCH   2  19
TORSDOF 9
ENDMDL
MODEL 4
REMARK VINA RESULT:      -7.1      1.047      1.141
REMARK  Name = 
REMARK  12 active torsions:
REMARK  status: ('A' for Active; 'I' for Inactive)
REMARK    1  A    between atoms: C_1  and  O_2
REMARK    2  A    between atoms: O_2  and  C_3
REMARK    3  A    between atoms: C_5  and  C_6
REMARK    4  A    between atoms: N_7  and  N_8
REMARK    5  A    between atoms: C_9  and  C_11
REMARK    6  A    between atoms: C_11  and  S_12
REMARK    7  A    between atoms: S_12  and  C_13
REMARK    8  A    between atoms: C_16  and  C_17
REMARK    9  A    between atoms: C_26  and  O_27
REMARK   10  A    between atoms: O_27  and  C_28
REMARK   11  A    between atoms: C_29  and  O_30
REMARK   12  A    between atoms: O_30  and  C_31
REMARK                            x       y       z     vdW  Elec       q    Type
REMARK                         _______ _______ _______ _____ _____    ______ ____
ROOT
ATOM      1  N   UNL     1       7.738   7.190  17.258  0.00  0.00    +0.000 N 
ATOM      2  C   UNL     1       7.449   6.033  17.975  0.00  0.00    +0.000 C 
ATOM      3  O   UNL     1       7.121   6.015  19.161  0.00  0.00    +0.000 OA
ATOM      4  H   UNL     1       8.109   7.117  16.316  0.00  0.00    +0.000 HD
ENDROOT
BRANCH   1   6
ATOM      5  C   UNL     1       8.840   9.111  17.778  0.00  0.00    +0.000 C 
ATOM      6  N   UNL     1       7.777   8.384  17.915  0.00  0.00    +0.000 NA
BRANCH   5   9
ATOM      7  C   UNL     1       9.283  11.527  20.650  0.00  0.00    +0.000 A 
ATOM      8  C   UNL     1       8.997  10.366  19.918  0.00  0.00    +0.000 A 
ATOM      9  C   UNL     1       8.977  10.384  18.525  0.00  0.00    +0.000 A 
ATOM     10  C   UNL     1       9.155  11.587  17.852  0.00  0.00    +0.000 A 
ATOM     11  C   UNL     1       9.377  12.781  18.568  0.00  0.00    +0.000 A 
ATOM     12  C   UNL     1       9.450  12.762  19.983  0.00  0.00    +0.000 A 
BRANCH   7  14
ATOM     13  C   UNL     1       8.143  11.657  22.726  0.00  0.00    +0.000 C 
ATOM     14  O   UNL     1       9.372  11.477  22.020  0.00  0.00    +0.000 OA
ENDBRANCH   7  14
BRANCH  11  15
ATOM     15  O   UNL     1       9.522  13.853  17.719  0.00  0.00    +0.000 OA
ATOM     16  C   UNL     1      10.826  14.278  17.342  0.00  0.00    +0.000 C 
ENDBRANCH  11  15
BRANCH  12  17
ATOM     17  O   UNL     1       9.657  13.971  20.592  0.00  0.00    +0.000 OA
ATOM     18  C   UNL     1       8.579  14.863  20.824  0.00  0.00    +0.000 C 
ENDBRANCH  12  17
ENDBRANCH   5   9
ENDBRANCH   1   6
BRANCH   2  19
ATOM     19  C   UNL     1       7.445   4.745  17.158  0.00  0.00    +0.000 C 
BRANCH  19  20
ATOM     20  S   UNL     1       6.040   4.651  15.994  0.00  0.00    +0.000 S 
BRANCH  20  21
ATOM     21  C   UNL     1       4.784   5.554  16.888  0.00  0.00    +0.000 A 
ATOM     22  C   UNL     1       4.067   4.986  17.939  0.00  0.00    +0.000 A 
ATOM     23  C   UNL     1       3.155   5.756  18.680  0.00  0.00    +0.000 A 
ATOM     24  C   UNL     1       2.941   7.119  18.408  0.00  0.00    +0.000 A 
ATOM     25  C   UNL     1       3.667   7.671  17.340  0.00  0.00    +0.000 A 
ATOM     26  C   UNL     1       4.573   6.902  16.592  0.00  0.00    +0.000 A 
BRANCH  24  27
ATOM     27  C   UNL     1       1.995   7.927  19.221  0.00  0.00    +0.000 A 
ATOM     28  C   UNL     1       1.378   9.079  18.695  0.00  0.00    +0.000 A 
ATOM     29  C   UNL     1       0.516   9.870  19.464  0.00  0.00    +0.000 A 
ATOM     30  C   UNL     1       0.237   9.520  20.778  0.00  0.00    +0.000 A 
ATOM     31  C   UNL     1       0.811   8.374  21.321  0.00  0.00    +0.000 A 
ATOM     32  C   UNL     1       1.681   7.590  20.552  0.00  0.00    +0.000 A 
ENDBRANCH  24  27
ENDBRANCH  20  21
ENDBRANCH  19  20
ENDBRANCH   2  19
TORSDOF 9
ENDMDL
MODEL 5
REMARK VINA RESULT:      -7.1      6.128      9.382
REMARK  Name = 
REMARK  12 active torsions:
REMARK  status: ('A' for Active; 'I' for Inactive)
REMARK    1  A    between atoms: C_1  and  O_2
REMARK    2  A    between atoms: O_2  and  C_3
REMARK    3  A    between atoms: C_5  and  C_6
REMARK    4  A    between atoms: N_7  and  N_8
REMARK    5  A    between atoms: C_9  and  C_11
REMARK    6  A    between atoms: C_11  and  S_12
REMARK    7  A    between atoms: S_12  and  C_13
REMARK    8  A    between atoms: C_16  and  C_17
REMARK    9  A    between atoms: C_26  and  O_27
REMARK   10  A    between atoms: O_27  and  C_28
REMARK   11  A    between atoms: C_29  and  O_30
REMARK   12  A    between atoms: O_30  and  C_31
REMARK                            x       y       z     vdW  Elec       q    Type
REMARK                         _______ _______ _______ _____ _____    ______ ____
ROOT
ATOM      1  N   UNL     1       1.512   7.514  21.134  0.00  0.00    +0.000 N 
ATOM      2  C   UNL     1       1.941   7.145  19.863  0.00  0.00    +0.000 C 
ATOM      3  O   UNL     1       2.269   7.941  18.983  0.00  0.00    +0.000 OA
ATOM      4  H   UNL     1       1.152   6.807  21.767  0.00  0.00    +0.000 HD
ENDROOT
BRANCH   1   6
ATOM      5  C   UNL     1       0.122   9.238  21.654  0.00  0.00    +0.000 C 
ATOM      6  N   UNL     1       1.329   8.836  21.415  0.00  0.00    +0.000 NA
BRANCH   5   9
ATOM      7  C   UNL     1       0.190  12.994  21.244  0.00  0.00    +0.000 A 
ATOM      8  C   UNL     1       0.537  11.638  21.159  0.00  0.00    +0.000 A 
ATOM      9  C   UNL     1      -0.154  10.675  21.890  0.00  0.00    +0.000 A 
ATOM     10  C   UNL     1      -1.145  11.071  22.782  0.00  0.00    +0.000 A 
ATOM     11  C   UNL     1      -1.467  12.434  22.935  0.00  0.00    +0.000 A 
ATOM     12  C   UNL     1      -0.803  13.416  22.157  0.00  0.00    +0.000 A 
BRANCH   7  14
ATOM     13  C   UNL     1       0.190  14.236  19.224  0.00  0.00    +0.000 C 
ATOM     14  O   UNL     1       0.832  13.922  20.461  0.00  0.00    +0.000 OA
ENDBRANCH   7  14
BRANCH  11  15
ATOM     15  O   UNL     1      -2.464  12.611  23.865  0.00  0.00    +0.000 OA
ATOM     16  C   UNL     1      -3.823  12.617  23.444  0.00  0.00    +0.000 C 
ENDBRANCH  11  15
BRANCH  12  17
ATOM     17  O   UNL     1      -1.174  14.714  22.382  0.00  0.00    +0.000 OA
ATOM     18  C   UNL     1      -0.497  15.508  23.343  0.00  0.00    +0.000 C 
ENDBRANCH  12  17
ENDBRANCH   5   9
ENDBRANCH   1   6
BRANCH   2  19
ATOM     19  C   UNL     1       2.099   5.644  19.639  0.00  0.00    +0.000 C 
BRANCH  19  20
ATOM     20  S   UNL     1       3.809   5.065  19.920  0.00  0.00    +0.000 S 
BRANCH  20  21
ATOM     21  C   UNL     1       4.417   4.944  18.244  0.00  0.00    +0.000 A 
ATOM     22  C   UNL     1       5.050   6.007  17.604  0.00  0.00    +0.000 A 
ATOM     23  C   UNL     1       5.599   5.845  16.322  0.00  0.00    +0.000 A 
ATOM     24  C   UNL     1       5.550   4.614  15.643  0.00  0.00    +0.000 A 
ATOM     25  C   UNL     1       4.902   3.557  16.301  0.00  0.00    +0.000 A 
ATOM     26  C   UNL     1       4.344   3.718  17.580  0.00  0.00    +0.000 A 
BRANCH  24  27
ATOM     27  C   UNL     1       6.163   4.450  14.299  0.00  0.00    +0.000 A 
ATOM     28  C   UNL     1       7.279   5.216  13.907  0.00  0.00    +0.000 A 
ATOM     29  C   UNL     1       7.841   5.099  12.631  0.00  0.00    +0.000 A 
ATOM     30  C   UNL     1       7.310   4.199  11.716  0.00  0.00    +0.000 A 
ATOM     31  C   UNL     1       6.223   3.409  12.080  0.00  0.00    +0.000 A 
ATOM     32  C   UNL     1       5.657   3.537  13.356  0.00  0.00    +0.000 A 
ENDBRANCH  24  27
ENDBRANCH  20  21
ENDBRANCH  19  20
ENDBRANCH   2  19
TORSDOF 9
ENDMDL
MODEL 6
REMARK VINA RESULT:      -7.0      6.243      9.050
REMARK  Name = 
REMARK  12 active torsions:
REMARK  status: ('A' for Active; 'I' for Inactive)
REMARK    1  A    between atoms: C_1  and  O_2
REMARK    2  A    between atoms: O_2  and  C_3
REMARK    3  A    between atoms: C_5  and  C_6
REMARK    4  A    between atoms: N_7  and  N_8
REMARK    5  A    between atoms: C_9  and  C_11
REMARK    6  A    between atoms: C_11  and  S_12
REMARK    7  A    between atoms: S_12  and  C_13
REMARK    8  A    between atoms: C_16  and  C_17
REMARK    9  A    between atoms: C_26  and  O_27
REMARK   10  A    between atoms: O_27  and  C_28
REMARK   11  A    between atoms: C_29  and  O_30
REMARK   12  A    between atoms: O_30  and  C_31
REMARK                            x       y       z     vdW  Elec       q    Type
REMARK                         _______ _______ _______ _____ _____    ______ ____
ROOT
ATOM      1  N   UNL     1       2.204   6.597  20.494  0.00  0.00    +0.000 N 
ATOM      2  C   UNL     1       2.212   5.619  19.505  0.00  0.00    +0.000 C 
ATOM      3  O   UNL     1       2.030   5.841  18.308  0.00  0.00    +0.000 OA
ATOM      4  H   UNL     1       2.251   6.324  21.470  0.00  0.00    +0.000 HD
ENDROOT
BRANCH   1   6
ATOM      5  C   UNL     1       0.889   8.427  20.807  0.00  0.00    +0.000 C 
ATOM      6  N   UNL     1       1.866   7.875  20.160  0.00  0.00    +0.000 NA
BRANCH   5   9
ATOM      7  C   UNL     1      -0.828  11.218  18.924  0.00  0.00    +0.000 A 
ATOM      8  C   UNL     1      -0.237   9.983  19.230  0.00  0.00    +0.000 A 
ATOM      9  C   UNL     1       0.423   9.785  20.441  0.00  0.00    +0.000 A 
ATOM     10  C   UNL     1       0.573  10.850  21.322  0.00  0.00    +0.000 A 
ATOM     11  C   UNL     1       0.046  12.118  21.008  0.00  0.00    +0.000 A 
ATOM     12  C   UNL     1      -0.671  12.315  19.801  0.00  0.00    +0.000 A 
BRANCH   7  14
ATOM     13  C   UNL     1      -1.885  10.166  17.080  0.00  0.00    +0.000 C 
ATOM     14  O   UNL     1      -1.539  11.375  17.760  0.00  0.00    +0.000 OA
ENDBRANCH   7  14
BRANCH  11  15
ATOM     15  O   UNL     1       0.307  13.029  22.005  0.00  0.00    +0.000 OA
ATOM     16  C   UNL     1      -0.747  13.451  22.863  0.00  0.00    +0.000 C 
ENDBRANCH  11  15
BRANCH  12  17
ATOM     17  O   UNL     1      -1.136  13.583  19.577  0.00  0.00    +0.000 OA
ATOM     18  C   UNL     1      -0.290  14.583  19.033  0.00  0.00    +0.000 C 
ENDBRANCH  12  17
ENDBRANCH   5   9
ENDBRANCH   1   6
BRANCH   2  19
ATOM     19  C   UNL     1       2.586   4.218  19.978  0.00  0.00    +0.000 C 
BRANCH  19  20
ATOM     20  S   UNL     1       4.389   3.995  20.169  0.00  0.00    +0.000 S 
BRANCH  20  21
ATOM     21  C   UNL     1       4.947   4.189  18.482  0.00  0.00    +0.000 A 
ATOM     22  C   UNL     1       6.109   4.886  18.160  0.00  0.00    +0.000 A 
ATOM     23  C   UNL     1       6.567   4.937  16.833  0.00  0.00    +0.000 A 
ATOM     24  C   UNL     1       5.891   4.281  15.789  0.00  0.00    +0.000 A 
ATOM     25  C   UNL     1       4.718   3.590  16.133  0.00  0.00    +0.000 A 
ATOM     26  C   UNL     1       4.253   3.544  17.457  0.00  0.00    +0.000 A 
BRANCH  24  27
ATOM     27  C   UNL     1       6.406   4.318  14.395  0.00  0.00    +0.000 A 
ATOM     28  C   UNL     1       7.424   5.214  14.015  0.00  0.00    +0.000 A 
ATOM     29  C   UNL     1       7.890   5.285  12.698  0.00  0.00    +0.000 A 
ATOM     30  C   UNL     1       7.358   4.449  11.725  0.00  0.00    +0.000 A 
ATOM     31  C   UNL     1       6.368   3.534  12.072  0.00  0.00    +0.000 A 
ATOM     32  C   UNL     1       5.897   3.473  13.391  0.00  0.00    +0.000 A 
ENDBRANCH  24  27
ENDBRANCH  20  21
ENDBRANCH  19  20
ENDBRANCH   2  19
TORSDOF 9
ENDMDL
MODEL 7
REMARK VINA RESULT:      -6.9      3.868      8.401
REMARK  Name = 
REMARK  12 active torsions:
REMARK  status: ('A' for Active; 'I' for Inactive)
REMARK    1  A    between atoms: C_1  and  O_2
REMARK    2  A    between atoms: O_2  and  C_3
REMARK    3  A    between atoms: C_5  and  C_6
REMARK    4  A    between atoms: N_7  and  N_8
REMARK    5  A    between atoms: C_9  and  C_11
REMARK    6  A    between atoms: C_11  and  S_12
REMARK    7  A    between atoms: S_12  and  C_13
REMARK    8  A    between atoms: C_16  and  C_17
REMARK    9  A    between atoms: C_26  and  O_27
REMARK   10  A    between atoms: O_27  and  C_28
REMARK   11  A    between atoms: C_29  and  O_30
REMARK   12  A    between atoms: O_30  and  C_31
REMARK                            x       y       z     vdW  Elec       q    Type
REMARK                         _______ _______ _______ _____ _____    ______ ____
ROOT
ATOM      1  N   UNL     1       2.902   6.648  17.548  0.00  0.00    +0.000 N 
ATOM      2  C   UNL     1       3.698   5.648  18.099  0.00  0.00    +0.000 C 
ATOM      3  O   UNL     1       3.632   5.276  19.271  0.00  0.00    +0.000 OA
ATOM      4  H   UNL     1       3.090   6.976  16.606  0.00  0.00    +0.000 HD
ENDROOT
BRANCH   1   6
ATOM      5  C   UNL     1       1.819   8.585  18.046  0.00  0.00    +0.000 C 
ATOM      6  N   UNL     1       2.065   7.353  18.361  0.00  0.00    +0.000 NA
BRANCH   5   9
ATOM      7  C   UNL     1       0.515  10.295  21.154  0.00  0.00    +0.000 A 
ATOM      8  C   UNL     1       1.181   9.397  20.306  0.00  0.00    +0.000 A 
ATOM      9  C   UNL     1       0.979   9.428  18.929  0.00  0.00    +0.000 A 
ATOM     10  C   UNL     1       0.040  10.303  18.393  0.00  0.00    +0.000 A 
ATOM     11  C   UNL     1      -0.690  11.169  19.231  0.00  0.00    +0.000 A 
ATOM     12  C   UNL     1      -0.454  11.179  20.629  0.00  0.00    +0.000 A 
BRANCH   7  14
ATOM     13  C   UNL     1      -0.066   9.473  23.301  0.00  0.00    +0.000 C 
ATOM     14  O   UNL     1       0.781  10.300  22.501  0.00  0.00    +0.000 OA
ENDBRANCH   7  14
BRANCH  11  15
ATOM     15  O   UNL     1      -1.566  11.944  18.507  0.00  0.00    +0.000 OA
ATOM     16  C   UNL     1      -2.201  11.396  17.358  0.00  0.00    +0.000 C 
ENDBRANCH  11  15
BRANCH  12  17
ATOM     17  O   UNL     1      -1.219  12.045  21.362  0.00  0.00    +0.000 OA
ATOM     18  C   UNL     1      -0.747  13.346  21.676  0.00  0.00    +0.000 C 
ENDBRANCH  12  17
ENDBRANCH   5   9
ENDBRANCH   1   6
BRANCH   2  19
ATOM     19  C   UNL     1       4.612   4.926  17.115  0.00  0.00    +0.000 C 
BRANCH  19  20
ATOM     20  S   UNL     1       6.223   4.474  17.849  0.00  0.00    +0.000 S 
BRANCH  20  21
ATOM     21  C   UNL     1       7.030   6.067  17.931  0.00  0.00    +0.000 A 
ATOM     22  C   UNL     1       6.705   7.109  17.067  0.00  0.00    +0.000 A 
ATOM     23  C   UNL     1       7.293   8.376  17.223  0.00  0.00    +0.000 A 
ATOM     24  C   UNL     1       8.209   8.647  18.254  0.00  0.00    +0.000 A 
ATOM     25  C   UNL     1       8.529   7.581  19.110  0.00  0.00    +0.000 A 
ATOM     26  C   UNL     1       7.951   6.312  18.952  0.00  0.00    +0.000 A 
BRANCH  24  27
ATOM     27  C   UNL     1       8.798  10.001  18.425  0.00  0.00    +0.000 A 
ATOM     28  C   UNL     1       9.822  10.240  19.363  0.00  0.00    +0.000 A 
ATOM     29  C   UNL     1      10.357  11.518  19.560  0.00  0.00    +0.000 A 
ATOM     30  C   UNL     1       9.892  12.591  18.810  0.00  0.00    +0.000 A 
ATOM     31  C   UNL     1       8.898  12.384  17.858  0.00  0.00    +0.000 A 
ATOM     32  C   UNL     1       8.358  11.105  17.670  0.00  0.00    +0.000 A 
ENDBRANCH  24  27
ENDBRANCH  20  21
ENDBRANCH  19  20
ENDBRANCH   2  19
TORSDOF 9
ENDMDL
MODEL 8
REMARK VINA RESULT:      -6.9      5.102      9.170
REMARK  Name = 
REMARK  12 active torsions:
REMARK  status: ('A' for Active; 'I' for Inactive)
REMARK    1  A    between atoms: C_1  and  O_2
REMARK    2  A    between atoms: O_2  and  C_3
REMARK    3  A    between atoms: C_5  and  C_6
REMARK    4  A    between atoms: N_7  and  N_8
REMARK    5  A    between atoms: C_9  and  C_11
REMARK    6  A    between atoms: C_11  and  S_12
REMARK    7  A    between atoms: S_12  and  C_13
REMARK    8  A    between atoms: C_16  and  C_17
REMARK    9  A    between atoms: C_26  and  O_27
REMARK   10  A    between atoms: O_27  and  C_28
REMARK   11  A    between atoms: C_29  and  O_30
REMARK   12  A    between atoms: O_30  and  C_31
REMARK                            x       y       z     vdW  Elec       q    Type
REMARK                         _______ _______ _______ _____ _____    ______ ____
ROOT
ATOM      1  N   UNL     1       1.182   9.945  18.149  0.00  0.00    +0.000 N 
ATOM      2  C   UNL     1       1.620  11.257  18.307  0.00  0.00    +0.000 C 
ATOM      3  O   UNL     1       2.711  11.675  17.920  0.00  0.00    +0.000 OA
ATOM      4  H   UNL     1       0.318   9.648  18.591  0.00  0.00    +0.000 HD
ENDROOT
BRANCH   1   6
ATOM      5  C   UNL     1       2.283   7.966  18.352  0.00  0.00    +0.000 C 
ATOM      6  N   UNL     1       2.039   9.017  17.636  0.00  0.00    +0.000 NA
BRANCH   5   9
ATOM      7  C   UNL     1       3.742   4.660  17.243  0.00  0.00    +0.000 A 
ATOM      8  C   UNL     1       2.896   5.615  17.826  0.00  0.00    +0.000 A 
ATOM      9  C   UNL     1       3.264   6.956  17.886  0.00  0.00    +0.000 A 
ATOM     10  C   UNL     1       4.523   7.342  17.441  0.00  0.00    +0.000 A 
ATOM     11  C   UNL     1       5.418   6.391  16.912  0.00  0.00    +0.000 A 
ATOM     12  C   UNL     1       5.031   5.031  16.801  0.00  0.00    +0.000 A 
BRANCH   7  14
ATOM     13  C   UNL     1       3.529   2.539  18.282  0.00  0.00    +0.000 C 
ATOM     14  O   UNL     1       3.333   3.354  17.125  0.00  0.00    +0.000 OA
ENDBRANCH   7  14
BRANCH  11  15
ATOM     15  O   UNL     1       6.605   6.975  16.538  0.00  0.00    +0.000 OA
ATOM     16  C   UNL     1       7.545   7.356  17.535  0.00  0.00    +0.000 C 
ENDBRANCH  11  15
BRANCH  12  17
ATOM     17  O   UNL     1       5.970   4.179  16.287  0.00  0.00    +0.000 OA
ATOM     18  C   UNL     1       6.037   3.924  14.893  0.00  0.00    +0.000 C 
ENDBRANCH  12  17
ENDBRANCH   5   9
ENDBRANCH   1   6
BRANCH   2  19
ATOM     19  C   UNL     1       0.596  12.218  18.903  0.00  0.00    +0.000 C 
BRANCH  19  20
ATOM     20  S   UNL     1       0.779  12.413  20.710  0.00  0.00    +0.000 S 
BRANCH  20  21
ATOM     21  C   UNL     1      -0.899  12.797  21.193  0.00  0.00    +0.000 A 
ATOM     22  C   UNL     1      -1.988  12.532  20.367  0.00  0.00    +0.000 A 
ATOM     23  C   UNL     1      -3.299  12.759  20.818  0.00  0.00    +0.000 A 
ATOM     24  C   UNL     1      -3.565  13.241  22.111  0.00  0.00    +0.000 A 
ATOM     25  C   UNL     1      -2.454  13.509  22.926  0.00  0.00    +0.000 A 
ATOM     26  C   UNL     1      -1.142  13.291  22.476  0.00  0.00    +0.000 A 
BRANCH  24  27
ATOM     27  C   UNL     1      -4.959  13.447  22.584  0.00  0.00    +0.000 A 
ATOM     28  C   UNL     1      -5.450  12.780  23.724  0.00  0.00    +0.000 A 
ATOM     29  C   UNL     1      -6.772  12.935  24.158  0.00  0.00    +0.000 A 
ATOM     30  C   UNL     1      -7.636  13.775  23.468  0.00  0.00    +0.000 A 
ATOM     31  C   UNL     1      -7.176  14.468  22.352  0.00  0.00    +0.000 A 
ATOM     32  C   UNL     1      -5.855  14.302  21.915  0.00  0.00    +0.000 A 
ENDBRANCH  24  27
ENDBRANCH  20  21
ENDBRANCH  19  20
ENDBRANCH   2  19
TORSDOF 9
ENDMDL
MODEL 9
REMARK VINA RESULT:      -6.9      5.111      9.335
REMARK  Name = 
REMARK  12 active torsions:
REMARK  status: ('A' for Active; 'I' for Inactive)
REMARK    1  A    between atoms: C_1  and  O_2
REMARK    2  A    between atoms: O_2  and  C_3
REMARK    3  A    between atoms: C_5  and  C_6
REMARK    4  A    between atoms: N_7  and  N_8
REMARK    5  A    between atoms: C_9  and  C_11
REMARK    6  A    between atoms: C_11  and  S_12
REMARK    7  A    between atoms: S_12  and  C_13
REMARK    8  A    between atoms: C_16  and  C_17
REMARK    9  A    between atoms: C_26  and  O_27
REMARK   10  A    between atoms: O_27  and  C_28
REMARK   11  A    between atoms: C_29  and  O_30
REMARK   12  A    between atoms: O_30  and  C_31
REMARK                            x       y       z     vdW  Elec       q    Type
REMARK                         _______ _______ _______ _____ _____    ______ ____
ROOT
ATOM      1  N   UNL     1       0.691  10.100  17.937  0.00  0.00    +0.000 N 
ATOM      2  C   UNL     1      -0.158  10.836  18.758  0.00  0.00    +0.000 C 
ATOM      3  O   UNL     1      -0.332  10.611  19.955  0.00  0.00    +0.000 OA
ATOM      4  H   UNL     1       0.698  10.274  16.937  0.00  0.00    +0.000 HD
ENDROOT
BRANCH   1   6
ATOM      5  C   UNL     1       2.308   8.507  17.786  0.00  0.00    +0.000 C 
ATOM      6  N   UNL     1       1.297   8.986  18.438  0.00  0.00    +0.000 NA
BRANCH   5   9
ATOM      7  C   UNL     1       3.006   5.362  19.762  0.00  0.00    +0.000 A 
ATOM      8  C   UNL     1       2.518   6.624  19.396  0.00  0.00    +0.000 A 
ATOM      9  C   UNL     1       2.962   7.255  18.236  0.00  0.00    +0.000 A 
ATOM     10  C   UNL     1       3.967   6.666  17.477  0.00  0.00    +0.000 A 
ATOM     11  C   UNL     1       4.521   5.428  17.861  0.00  0.00    +0.000 A 
ATOM     12  C   UNL     1       4.038   4.756  19.011  0.00  0.00    +0.000 A 
BRANCH   7  14
ATOM     13  C   UNL     1       1.222   4.110  20.698  0.00  0.00    +0.000 C 
ATOM     14  O   UNL     1       2.503   4.721  20.868  0.00  0.00    +0.000 OA
ENDBRANCH   7  14
BRANCH  11  15
ATOM     15  O   UNL     1       5.499   5.025  16.983  0.00  0.00    +0.000 OA
ATOM     16  C   UNL     1       5.566   5.613  15.689  0.00  0.00    +0.000 C 
ENDBRANCH  11  15
BRANCH  12  17
ATOM     17  O   UNL     1       4.644   3.566  19.312  0.00  0.00    +0.000 OA
ATOM     18  C   UNL     1       4.007   2.331  19.027  0.00  0.00    +0.000 C 
ENDBRANCH  12  17
ENDBRANCH   5   9
ENDBRANCH   1   6
BRANCH   2  19
ATOM     19  C   UNL     1      -0.801  12.054  18.104  0.00  0.00    +0.000 C 
BRANCH  19  20
ATOM     20  S   UNL     1      -0.789  13.526  19.186  0.00  0.00    +0.000 S 
BRANCH  20  21
ATOM     21  C   UNL     1       0.857  14.161  18.895  0.00  0.00    +0.000 A 
ATOM     22  C   UNL     1       1.220  15.464  19.226  0.00  0.00    +0.000 A 
ATOM     23  C   UNL     1       2.546  15.897  19.071  0.00  0.00    +0.000 A 
ATOM     24  C   UNL     1       3.556  15.042  18.595  0.00  0.00    +0.000 A 
ATOM     25  C   UNL     1       3.169  13.735  18.259  0.00  0.00    +0.000 A 
ATOM     26  C   UNL     1       1.842  13.300  18.406  0.00  0.00    +0.000 A 
BRANCH  24  27
ATOM     27  C   UNL     1       4.962  15.507  18.466  0.00  0.00    +0.000 A 
ATOM     28  C   UNL     1       5.935  14.721  17.819  0.00  0.00    +0.000 A 
ATOM     29  C   UNL     1       7.270  15.131  17.725  0.00  0.00    +0.000 A 
ATOM     30  C   UNL     1       7.664  16.348  18.264  0.00  0.00    +0.000 A 
ATOM     31  C   UNL     1       6.722  17.160  18.889  0.00  0.00    +0.000 A 
ATOM     32  C   UNL     1       5.389  16.742  18.990  0.00  0.00    +0.000 A 
ENDBRANCH  24  27
ENDBRANCH  20  21
ENDBRANCH  19  20
ENDBRANCH   2  19
TORSDOF 9
ENDMDL
