MODEL 1
REMARK VINA RESULT:      -6.1      0.000      0.000
REMARK  Name = 
REMARK  5 active torsions:
REMARK  status: ('A' for Active; 'I' for Inactive)
REMARK    1  A    between atoms: C_1  and  C_2
REMARK    2  A    between atoms: C_5  and  C_6
REMARK    3  A    between atoms: C_6  and  N_7
REMARK    4  A    between atoms: N_7  and  C_8
REMARK    5  A    between atoms: C_8  and  C_9
REMARK                            x       y       z     vdW  Elec       q    Type
REMARK                         _______ _______ _______ _____ _____    ______ ____
ROOT
ATOM      1  N   UNL     1       3.825   3.870  17.277  0.00  0.00    +0.000 NA
ATOM      2  H   UNL     1       3.001   3.914  16.677  0.00  0.00    +0.000 HD
ENDROOT
BRANCH   1   3
ATOM      3  C   UNL     1       5.016   3.933  16.432  0.00  0.00    +0.000 C 
BRANCH   3   8
ATOM      4  C   UNL     1       7.802   8.319  17.709  0.00  0.00    +0.000 C 
ATOM      5  C   UNL     1       7.277   6.926  17.638  0.00  0.00    +0.000 A 
ATOM      6  C   UNL     1       7.663   5.828  18.377  0.00  0.00    +0.000 A 
ATOM      7  C   UNL     1       6.927   4.661  18.026  0.00  0.00    +0.000 A 
ATOM      8  C   UNL     1       5.992   4.901  17.038  0.00  0.00    +0.000 A 
ATOM      9  S   UNL     1       6.032   6.536  16.530  0.00  0.00    +0.000 S 
ENDBRANCH   3   8
ENDBRANCH   1   3
BRANCH   1  10
ATOM     10  C   UNL     1       3.773   2.643  18.069  0.00  0.00    +0.000 C 
BRANCH  10  11
ATOM     11  C   UNL     1       2.966   2.826  19.331  0.00  0.00    +0.000 A 
ATOM     12  C   UNL     1       1.708   3.439  19.342  0.00  0.00    +0.000 A 
ATOM     13  C   UNL     1       1.012   3.584  20.538  0.00  0.00    +0.000 A 
ATOM     14  C   UNL     1       1.609   3.130  21.702  0.00  0.00    +0.000 A 
ATOM     15  N   UNL     1       2.832   2.562  21.743  0.00  0.00    +0.000 NA
ATOM     16  C   UNL     1       3.481   2.429  20.561  0.00  0.00    +0.000 A 
ENDBRANCH  10  11
ENDBRANCH   1  10
TORSDOF 4
ENDMDL
MODEL 2
REMARK VINA RESULT:      -6.1      2.561      6.324
REMARK  Name = 
REMARK  5 active torsions:
REMARK  status: ('A' for Active; 'I' for Inactive)
REMARK    1  A    between atoms: C_1  and  C_2
REMARK    2  A    between atoms: C_5  and  C_6
REMARK    3  A    between atoms: C_6  and  N_7
REMARK    4  A    between atoms: N_7  and  C_8
REMARK    5  A    between atoms: C_8  and  C_9
REMARK                            x       y       z     vdW  Elec       q    Type
REMARK                         _______ _______ _______ _____ _____    ______ ____
ROOT
ATOM      1  N   UNL     1       5.248   5.747  18.405  0.00  0.00    +0.000 NA
ATOM      2  H   UNL     1       5.134   5.718  19.417  0.00  0.00    +0.000 HD
ENDROOT
BRANCH   1   3
ATOM      3  C   UNL     1       3.933   5.945  17.797  0.00  0.00    +0.000 C 
BRANCH   3   8
ATOM      4  C   UNL     1       1.164   2.821  21.143  0.00  0.00    +0.000 C 
ATOM      5  C   UNL     1       1.680   3.518  19.931  0.00  0.00    +0.000 A 
ATOM      6  C   UNL     1       1.231   3.420  18.631  0.00  0.00    +0.000 A 
ATOM      7  C   UNL     1       1.977   4.244  17.742  0.00  0.00    +0.000 A 
ATOM      8  C   UNL     1       2.969   4.957  18.388  0.00  0.00    +0.000 A 
ATOM      9  S   UNL     1       2.998   4.602  20.064  0.00  0.00    +0.000 S 
ENDBRANCH   3   8
ENDBRANCH   1   3
BRANCH   1  10
ATOM     10  C   UNL     1       5.881   4.508  17.960  0.00  0.00    +0.000 C 
BRANCH  10  11
ATOM     11  C   UNL     1       6.251   4.563  16.498  0.00  0.00    +0.000 A 
ATOM     12  C   UNL     1       5.678   3.719  15.540  0.00  0.00    +0.000 A 
ATOM     13  C   UNL     1       6.063   3.813  14.206  0.00  0.00    +0.000 A 
ATOM     14  C   UNL     1       7.035   4.741  13.869  0.00  0.00    +0.000 A 
ATOM     15  N   UNL     1       7.635   5.553  14.763  0.00  0.00    +0.000 NA
ATOM     16  C   UNL     1       7.235   5.441  16.052  0.00  0.00    +0.000 A 
ENDBRANCH  10  11
ENDBRANCH   1  10
TORSDOF 4
ENDMDL
MODEL 3
REMARK VINA RESULT:      -6.0      0.946      1.338
REMARK  Name = 
REMARK  5 active torsions:
REMARK  status: ('A' for Active; 'I' for Inactive)
REMARK    1  A    between atoms: C_1  and  C_2
REMARK    2  A    between atoms: C_5  and  C_6
REMARK    3  A    between atoms: C_6  and  N_7
REMARK    4  A    between atoms: N_7  and  C_8
REMARK    5  A    between atoms: C_8  and  C_9
REMARK                            x       y       z     vdW  Elec       q    Type
REMARK                         _______ _______ _______ _____ _____    ______ ____
ROOT
ATOM      1  N   UNL     1       4.478   2.885  17.461  0.00  0.00    +0.000 NA
ATOM      2  H   UNL     1       4.849   3.059  18.394  0.00  0.00    +0.000 HD
ENDROOT
BRANCH   1   3
ATOM      3  C   UNL     1       4.503   4.140  16.712  0.00  0.00    +0.000 C 
BRANCH   3   8
ATOM      4  C   UNL     1       7.894   8.161  17.693  0.00  0.00    +0.000 C 
ATOM      5  C   UNL     1       7.214   6.835  17.667  0.00  0.00    +0.000 A 
ATOM      6  C   UNL     1       7.566   5.680  18.332  0.00  0.00    +0.000 A 
ATOM      7  C   UNL     1       6.668   4.609  18.060  0.00  0.00    +0.000 A 
ATOM      8  C   UNL     1       5.649   4.978  17.203  0.00  0.00    +0.000 A 
ATOM      9  S   UNL     1       5.805   6.614  16.721  0.00  0.00    +0.000 S 
ENDBRANCH   3   8
ENDBRANCH   1   3
BRANCH   1  10
ATOM     10  C   UNL     1       3.129   2.338  17.578  0.00  0.00    +0.000 C 
BRANCH  10  11
ATOM     11  C   UNL     1       2.538   2.594  18.943  0.00  0.00    +0.000 A 
ATOM     12  C   UNL     1       3.297   2.539  20.117  0.00  0.00    +0.000 A 
ATOM     13  C   UNL     1       2.696   2.780  21.349  0.00  0.00    +0.000 A 
ATOM     14  C   UNL     1       1.337   3.048  21.373  0.00  0.00    +0.000 A 
ATOM     15  N   UNL     1       0.562   3.081  20.270  0.00  0.00    +0.000 NA
ATOM     16  C   UNL     1       1.177   2.848  19.086  0.00  0.00    +0.000 A 
ENDBRANCH  10  11
ENDBRANCH   1  10
TORSDOF 4
ENDMDL
MODEL 4
REMARK VINA RESULT:      -6.0      1.052      1.225
REMARK  Name = 
REMARK  5 active torsions:
REMARK  status: ('A' for Active; 'I' for Inactive)
REMARK    1  A    between atoms: C_1  and  C_2
REMARK    2  A    between atoms: C_5  and  C_6
REMARK    3  A    between atoms: C_6  and  N_7
REMARK    4  A    between atoms: N_7  and  C_8
REMARK    5  A    between atoms: C_8  and  C_9
REMARK                            x       y       z     vdW  Elec       q    Type
REMARK                         _______ _______ _______ _____ _____    ______ ____
ROOT
ATOM      1  N   UNL     1       4.448   2.508  17.682  0.00  0.00    +0.000 NA
ATOM      2  H   UNL     1       4.964   2.818  18.505  0.00  0.00    +0.000 HD
ENDROOT
BRANCH   1   3
ATOM      3  C   UNL     1       4.011   3.687  16.938  0.00  0.00    +0.000 C 
BRANCH   3   8
ATOM      4  C   UNL     1       7.623   7.571  17.637  0.00  0.00    +0.000 C 
ATOM      5  C   UNL     1       6.851   6.413  17.106  0.00  0.00    +0.000 A 
ATOM      6  C   UNL     1       7.120   5.642  15.995  0.00  0.00    +0.000 A 
ATOM      7  C   UNL     1       6.150   4.617  15.806  0.00  0.00    +0.000 A 
ATOM      8  C   UNL     1       5.174   4.625  16.783  0.00  0.00    +0.000 A 
ATOM      9  S   UNL     1       5.432   5.891  17.908  0.00  0.00    +0.000 S 
ENDBRANCH   3   8
ENDBRANCH   1   3
BRANCH   1  10
ATOM     10  C   UNL     1       3.325   1.676  18.109  0.00  0.00    +0.000 C 
BRANCH  10  11
ATOM     11  C   UNL     1       2.674   2.215  19.359  0.00  0.00    +0.000 A 
ATOM     12  C   UNL     1       1.380   2.747  19.368  0.00  0.00    +0.000 A 
ATOM     13  C   UNL     1       0.833   3.234  20.551  0.00  0.00    +0.000 A 
ATOM     14  C   UNL     1       1.612   3.196  21.696  0.00  0.00    +0.000 A 
ATOM     15  N   UNL     1       2.874   2.721  21.727  0.00  0.00    +0.000 NA
ATOM     16  C   UNL     1       3.375   2.249  20.561  0.00  0.00    +0.000 A 
ENDBRANCH  10  11
ENDBRANCH   1  10
TORSDOF 4
ENDMDL
MODEL 5
REMARK VINA RESULT:      -6.0      2.980      6.594
REMARK  Name = 
REMARK  5 active torsions:
REMARK  status: ('A' for Active; 'I' for Inactive)
REMARK    1  A    between atoms: C_1  and  C_2
REMARK    2  A    between atoms: C_5  and  C_6
REMARK    3  A    between atoms: C_6  and  N_7
REMARK    4  A    between atoms: N_7  and  C_8
REMARK    5  A    between atoms: C_8  and  C_9
REMARK                            x       y       z     vdW  Elec       q    Type
REMARK                         _______ _______ _______ _____ _____    ______ ____
ROOT
ATOM      1  N   UNL     1       5.822   3.752  17.365  0.00  0.00    +0.000 NA
ATOM      2  H   UNL     1       5.449   2.855  17.672  0.00  0.00    +0.000 HD
ENDROOT
BRANCH   1   3
ATOM      3  C   UNL     1       5.767   4.684  18.490  0.00  0.00    +0.000 C 
BRANCH   3   8
ATOM      4  C   UNL     1       1.572   2.640  21.106  0.00  0.00    +0.000 C 
ATOM      5  C   UNL     1       2.526   3.563  20.429  0.00  0.00    +0.000 A 
ATOM      6  C   UNL     1       2.433   4.930  20.278  0.00  0.00    +0.000 A 
ATOM      7  C   UNL     1       3.545   5.469  19.572  0.00  0.00    +0.000 A 
ATOM      8  C   UNL     1       4.463   4.501  19.213  0.00  0.00    +0.000 A 
ATOM      9  S   UNL     1       3.954   2.945  19.717  0.00  0.00    +0.000 S 
ENDBRANCH   3   8
ENDBRANCH   1   3
BRANCH   1  10
ATOM     10  C   UNL     1       5.048   4.224  16.219  0.00  0.00    +0.000 C 
BRANCH  10  11
ATOM     11  C   UNL     1       5.913   4.396  14.994  0.00  0.00    +0.000 A 
ATOM     12  C   UNL     1       5.693   3.689  13.807  0.00  0.00    +0.000 A 
ATOM     13  C   UNL     1       6.527   3.887  12.711  0.00  0.00    +0.000 A 
ATOM     14  C   UNL     1       7.581   4.776  12.843  0.00  0.00    +0.000 A 
ATOM     15  N   UNL     1       7.849   5.455  13.977  0.00  0.00    +0.000 NA
ATOM     16  C   UNL     1       7.016   5.245  15.023  0.00  0.00    +0.000 A 
ENDBRANCH  10  11
ENDBRANCH   1  10
TORSDOF 4
ENDMDL
MODEL 6
REMARK VINA RESULT:      -5.9      2.257      5.906
REMARK  Name = 
REMARK  5 active torsions:
REMARK  status: ('A' for Active; 'I' for Inactive)
REMARK    1  A    between atoms: C_1  and  C_2
REMARK    2  A    between atoms: C_5  and  C_6
REMARK    3  A    between atoms: C_6  and  N_7
REMARK    4  A    between atoms: N_7  and  C_8
REMARK    5  A    between atoms: C_8  and  C_9
REMARK                            x       y       z     vdW  Elec       q    Type
REMARK                         _______ _______ _______ _____ _____    ______ ____
ROOT
ATOM      1  N   UNL     1       5.450   3.339  16.416  0.00  0.00    +0.000 NA
ATOM      2  H   UNL     1       5.133   2.649  15.736  0.00  0.00    +0.000 HD
ENDROOT
BRANCH   1   3
ATOM      3  C   UNL     1       4.314   4.185  16.780  0.00  0.00    +0.000 C 
BRANCH   3   8
ATOM      4  C   UNL     1       1.069   2.967  20.855  0.00  0.00    +0.000 C 
ATOM      5  C   UNL     1       2.258   3.139  19.974  0.00  0.00    +0.000 A 
ATOM      6  C   UNL     1       3.560   2.748  20.206  0.00  0.00    +0.000 A 
ATOM      7  C   UNL     1       4.422   3.084  19.125  0.00  0.00    +0.000 A 
ATOM      8  C   UNL     1       3.754   3.711  18.091  0.00  0.00    +0.000 A 
ATOM      9  S   UNL     1       2.092   3.907  18.453  0.00  0.00    +0.000 S 
ENDBRANCH   3   8
ENDBRANCH   1   3
BRANCH   1  10
ATOM     10  C   UNL     1       6.549   4.109  15.837  0.00  0.00    +0.000 C 
BRANCH  10  11
ATOM     11  C   UNL     1       7.071   5.147  16.800  0.00  0.00    +0.000 A 
ATOM     12  C   UNL     1       7.568   4.821  18.067  0.00  0.00    +0.000 A 
ATOM     13  C   UNL     1       8.033   5.823  18.914  0.00  0.00    +0.000 A 
ATOM     14  C   UNL     1       7.964   7.135  18.475  0.00  0.00    +0.000 A 
ATOM     15  N   UNL     1       7.465   7.497  17.276  0.00  0.00    +0.000 NA
ATOM     16  C   UNL     1       7.027   6.499  16.472  0.00  0.00    +0.000 A 
ENDBRANCH  10  11
ENDBRANCH   1  10
TORSDOF 4
ENDMDL
MODEL 7
REMARK VINA RESULT:      -5.8      2.483      6.220
REMARK  Name = 
REMARK  5 active torsions:
REMARK  status: ('A' for Active; 'I' for Inactive)
REMARK    1  A    between atoms: C_1  and  C_2
REMARK    2  A    between atoms: C_5  and  C_6
REMARK    3  A    between atoms: C_6  and  N_7
REMARK    4  A    between atoms: N_7  and  C_8
REMARK    5  A    between atoms: C_8  and  C_9
REMARK                            x       y       z     vdW  Elec       q    Type
REMARK                         _______ _______ _______ _____ _____    ______ ____
ROOT
ATOM      1  N   UNL     1       5.264   5.666  19.044  0.00  0.00    +0.000 NA
ATOM      2  H   UNL     1       5.193   5.562  20.055  0.00  0.00    +0.000 HD
ENDROOT
BRANCH   1   3
ATOM      3  C   UNL     1       3.964   6.092  18.530  0.00  0.00    +0.000 C 
BRANCH   3   8
ATOM      4  C   UNL     1       0.390   2.126  18.882  0.00  0.00    +0.000 C 
ATOM      5  C   UNL     1       1.266   3.295  19.178  0.00  0.00    +0.000 A 
ATOM      6  C   UNL     1       1.394   3.991  20.361  0.00  0.00    +0.000 A 
ATOM      7  C   UNL     1       2.337   5.052  20.260  0.00  0.00    +0.000 A 
ATOM      8  C   UNL     1       2.913   5.131  19.007  0.00  0.00    +0.000 A 
ATOM      9  S   UNL     1       2.286   3.930  17.959  0.00  0.00    +0.000 S 
ENDBRANCH   3   8
ENDBRANCH   1   3
BRANCH   1  10
ATOM     10  C   UNL     1       5.700   4.398  18.463  0.00  0.00    +0.000 C 
BRANCH  10  11
ATOM     11  C   UNL     1       6.123   4.560  17.023  0.00  0.00    +0.000 A 
ATOM     12  C   UNL     1       5.611   3.767  15.990  0.00  0.00    +0.000 A 
ATOM     13  C   UNL     1       6.043   3.960  14.682  0.00  0.00    +0.000 A 
ATOM     14  C   UNL     1       7.001   4.931  14.445  0.00  0.00    +0.000 A 
ATOM     15  N   UNL     1       7.545   5.696  15.413  0.00  0.00    +0.000 NA
ATOM     16  C   UNL     1       7.099   5.489  16.675  0.00  0.00    +0.000 A 
ENDBRANCH  10  11
ENDBRANCH   1  10
TORSDOF 4
ENDMDL
MODEL 8
REMARK VINA RESULT:      -5.8      2.836      6.193
REMARK  Name = 
REMARK  5 active torsions:
REMARK  status: ('A' for Active; 'I' for Inactive)
REMARK    1  A    between atoms: C_1  and  C_2
REMARK    2  A    between atoms: C_5  and  C_6
REMARK    3  A    between atoms: C_6  and  N_7
REMARK    4  A    between atoms: N_7  and  C_8
REMARK    5  A    between atoms: C_8  and  C_9
REMARK                            x       y       z     vdW  Elec       q    Type
REMARK                         _______ _______ _______ _____ _____    ______ ____
ROOT
ATOM      1  N   UNL     1       3.851   7.187  17.483  0.00  0.00    +0.000 NA
ATOM      2  H   UNL     1       4.219   8.131  17.374  0.00  0.00    +0.000 HD
ENDROOT
BRANCH   1   3
ATOM      3  C   UNL     1       2.714   7.236  18.401  0.00  0.00    +0.000 C 
BRANCH   3   8
ATOM      4  C   UNL     1       1.286   2.735  20.916  0.00  0.00    +0.000 C 
ATOM      5  C   UNL     1       1.617   3.753  19.879  0.00  0.00    +0.000 A 
ATOM      6  C   UNL     1       1.563   3.625  18.507  0.00  0.00    +0.000 A 
ATOM      7  C   UNL     1       1.954   4.821  17.842  0.00  0.00    +0.000 A 
ATOM      8  C   UNL     1       2.286   5.833  18.722  0.00  0.00    +0.000 A 
ATOM      9  S   UNL     1       2.140   5.313  20.348  0.00  0.00    +0.000 S 
ENDBRANCH   3   8
ENDBRANCH   1   3
BRANCH   1  10
ATOM     10  C   UNL     1       4.917   6.313  17.969  0.00  0.00    +0.000 C 
BRANCH  10  11
ATOM     11  C   UNL     1       5.662   5.656  16.833  0.00  0.00    +0.000 A 
ATOM     12  C   UNL     1       5.070   5.390  15.593  0.00  0.00    +0.000 A 
ATOM     13  C   UNL     1       5.807   4.777  14.584  0.00  0.00    +0.000 A 
ATOM     14  C   UNL     1       7.118   4.423  14.855  0.00  0.00    +0.000 A 
ATOM     15  N   UNL     1       7.719   4.631  16.043  0.00  0.00    +0.000 NA
ATOM     16  C   UNL     1       6.978   5.235  17.003  0.00  0.00    +0.000 A 
ENDBRANCH  10  11
ENDBRANCH   1  10
TORSDOF 4
ENDMDL
MODEL 9
REMARK VINA RESULT:      -5.8      2.228      2.904
REMARK  Name = 
REMARK  5 active torsions:
REMARK  status: ('A' for Active; 'I' for Inactive)
REMARK    1  A    between atoms: C_1  and  C_2
REMARK    2  A    between atoms: C_5  and  C_6
REMARK    3  A    between atoms: C_6  and  N_7
REMARK    4  A    between atoms: N_7  and  C_8
REMARK    5  A    between atoms: C_8  and  C_9
REMARK                            x       y       z     vdW  Elec       q    Type
REMARK                         _______ _______ _______ _____ _____    ______ ____
ROOT
ATOM      1  N   UNL     1       3.631   6.523  18.415  0.00  0.00    +0.000 NA
ATOM      2  H   UNL     1       3.423   6.052  17.535  0.00  0.00    +0.000 HD
ENDROOT
BRANCH   1   3
ATOM      3  C   UNL     1       4.860   5.955  18.965  0.00  0.00    +0.000 C 
BRANCH   3   8
ATOM      4  C   UNL     1       6.814   4.712  14.143  0.00  0.00    +0.000 C 
ATOM      5  C   UNL     1       6.615   4.863  15.612  0.00  0.00    +0.000 A 
ATOM      6  C   UNL     1       7.445   4.453  16.634  0.00  0.00    +0.000 A 
ATOM      7  C   UNL     1       6.916   4.776  17.915  0.00  0.00    +0.000 A 
ATOM      8  C   UNL     1       5.703   5.432  17.838  0.00  0.00    +0.000 A 
ATOM      9  S   UNL     1       5.208   5.631  16.210  0.00  0.00    +0.000 S 
ENDBRANCH   3   8
ENDBRANCH   1   3
BRANCH   1  10
ATOM     10  C   UNL     1       2.495   6.364  19.320  0.00  0.00    +0.000 C 
BRANCH  10  11
ATOM     11  C   UNL     1       1.896   4.982  19.228  0.00  0.00    +0.000 A 
ATOM     12  C   UNL     1       1.434   4.281  20.348  0.00  0.00    +0.000 A 
ATOM     13  C   UNL     1       0.896   3.007  20.202  0.00  0.00    +0.000 A 
ATOM     14  C   UNL     1       0.857   2.454  18.932  0.00  0.00    +0.000 A 
ATOM     15  N   UNL     1       1.319   3.080  17.830  0.00  0.00    +0.000 NA
ATOM     16  C   UNL     1       1.831   4.321  18.005  0.00  0.00    +0.000 A 
ENDBRANCH  10  11
ENDBRANCH   1  10
TORSDOF 4
ENDMDL
