MODEL 1
REMARK VINA RESULT:      -8.4      0.000      0.000
REMARK  Name = 
REMARK  4 active torsions:
REMARK  status: ('A' for Active; 'I' for Inactive)
REMARK    1  A    between atoms: C_2  and  C_3
REMARK    2  A    between atoms: N_9  and  C_10
REMARK    3  A    between atoms: C_10  and  C_11
REMARK    4  A    between atoms: N_24  and  C_25
REMARK                            x       y       z     vdW  Elec       q    Type
REMARK                         _______ _______ _______ _____ _____    ______ ____
ROOT
ATOM      1  C   UNL     1       0.930  10.051  19.462  0.00  0.00    +0.000 A 
ATOM      2  C   UNL     1       1.561  10.113  18.215  0.00  0.00    +0.000 A 
ATOM      3  C   UNL     1       2.365   9.055  17.787  0.00  0.00    +0.000 A 
ATOM      4  C   UNL     1       2.461   7.898  18.567  0.00  0.00    +0.000 A 
ATOM      5  C   UNL     1       3.302   6.763  18.149  0.00  0.00    +0.000 A 
ATOM      6  O   UNL     1       3.964   6.878  17.120  0.00  0.00    +0.000 OA
ATOM      7  N   UNL     1       3.288   5.621  18.959  0.00  0.00    +0.000 N 
ATOM      8  C   UNL     1       2.593   5.544  20.164  0.00  0.00    +0.000 A 
ATOM      9  S   UNL     1       2.581   4.271  21.257  0.00  0.00    +0.000 S 
ATOM     10  N   UNL     1       1.824   6.626  20.501  0.00  0.00    +0.000 N 
ATOM     11  C   UNL     1       1.742   7.791  19.747  0.00  0.00    +0.000 A 
ATOM     12  C   UNL     1       0.969   8.858  20.199  0.00  0.00    +0.000 A 
ATOM     13  H   UNL     1       1.295   6.551  21.366  0.00  0.00    +0.000 HD
ENDROOT
BRANCH   1  15
ATOM     14  O   UNL     1       0.757  11.711  21.060  0.00  0.00    +0.000 OA
ATOM     15  C   UNL     1       0.221  11.196  20.084  0.00  0.00    +0.000 C 
ATOM     16  N   UNL     1      -0.937  11.708  19.506  0.00  0.00    +0.000 N 
ATOM     17  C   UNL     1      -1.711  11.171  18.376  0.00  0.00    +0.000 C 
ATOM     18  C   UNL     1      -3.152  10.856  18.825  0.00  0.00    +0.000 C 
ATOM     19  N   UNL     1      -3.757  12.077  19.369  0.00  0.00    +0.000 N 
ATOM     20  C   UNL     1      -3.008  12.742  20.449  0.00  0.00    +0.000 C 
ATOM     21  C   UNL     1      -1.529  12.934  20.060  0.00  0.00    +0.000 C 
BRANCH  19  22
ATOM     22  C   UNL     1      -4.949  12.554  18.880  0.00  0.00    +0.000 A 
ATOM     23  C   UNL     1      -5.799  13.349  19.672  0.00  0.00    +0.000 A 
ATOM     24  C   UNL     1      -7.035  13.811  19.206  0.00  0.00    +0.000 A 
ATOM     25  C   UNL     1      -7.456  13.483  17.924  0.00  0.00    +0.000 A 
ATOM     26  C   UNL     1      -6.641  12.698  17.115  0.00  0.00    +0.000 A 
ATOM     27  C   UNL     1      -5.403  12.245  17.590  0.00  0.00    +0.000 A 
ENDBRANCH  19  22
ENDBRANCH   1  15
BRANCH   7  28
ATOM     28  C   UNL     1       4.006   4.463  18.415  0.00  0.00    +0.000 C 
BRANCH  28  29
ATOM     29  C   UNL     1       5.479   4.681  18.378  0.00  0.00    +0.000 A 
ATOM     30  C   UNL     1       6.389   5.271  19.230  0.00  0.00    +0.000 A 
ATOM     31  C   UNL     1       7.633   5.275  18.551  0.00  0.00    +0.000 A 
ATOM     32  C   UNL     1       7.407   4.670  17.337  0.00  0.00    +0.000 A 
ATOM     33  O   UNL     1       6.105   4.307  17.223  0.00  0.00    +0.000 OA
ENDBRANCH  28  29
ENDBRANCH   7  28
TORSDOF 4
ENDMDL
MODEL 2
REMARK VINA RESULT:      -8.1      3.241      5.139
REMARK  Name = 
REMARK  4 active torsions:
REMARK  status: ('A' for Active; 'I' for Inactive)
REMARK    1  A    between atoms: C_2  and  C_3
REMARK    2  A    between atoms: N_9  and  C_10
REMARK    3  A    between atoms: C_10  and  C_11
REMARK    4  A    between atoms: N_24  and  C_25
REMARK                            x       y       z     vdW  Elec       q    Type
REMARK                         _______ _______ _______ _____ _____    ______ ____
ROOT
ATOM      1  C   UNL     1       0.609   9.640  19.597  0.00  0.00    +0.000 A 
ATOM      2  C   UNL     1       0.551   8.823  20.731  0.00  0.00    +0.000 A 
ATOM      3  C   UNL     1       1.298   7.644  20.778  0.00  0.00    +0.000 A 
ATOM      4  C   UNL     1       2.171   7.334  19.731  0.00  0.00    +0.000 A 
ATOM      5  C   UNL     1       2.973   6.098  19.746  0.00  0.00    +0.000 A 
ATOM      6  O   UNL     1       2.815   5.314  20.679  0.00  0.00    +0.000 OA
ATOM      7  N   UNL     1       3.868   5.901  18.687  0.00  0.00    +0.000 N 
ATOM      8  C   UNL     1       3.970   6.764  17.598  0.00  0.00    +0.000 A 
ATOM      9  S   UNL     1       4.930   6.578  16.235  0.00  0.00    +0.000 S 
ATOM     10  N   UNL     1       3.205   7.899  17.639  0.00  0.00    +0.000 N 
ATOM     11  C   UNL     1       2.314   8.204  18.661  0.00  0.00    +0.000 A 
ATOM     12  C   UNL     1       1.544   9.362  18.588  0.00  0.00    +0.000 A 
ATOM     13  H   UNL     1       3.308   8.539  16.856  0.00  0.00    +0.000 HD
ENDROOT
BRANCH   1  15
ATOM     14  O   UNL     1      -1.381  10.562  18.867  0.00  0.00    +0.000 OA
ATOM     15  C   UNL     1      -0.289  10.801  19.371  0.00  0.00    +0.000 C 
ATOM     16  N   UNL     1       0.072  12.069  19.817  0.00  0.00    +0.000 N 
ATOM     17  C   UNL     1       1.354  12.509  20.389  0.00  0.00    +0.000 C 
ATOM     18  C   UNL     1       1.967  13.624  19.518  0.00  0.00    +0.000 C 
ATOM     19  N   UNL     1       1.007  14.729  19.419  0.00  0.00    +0.000 N 
ATOM     20  C   UNL     1      -0.339  14.372  18.939  0.00  0.00    +0.000 C 
ATOM     21  C   UNL     1      -0.902  13.165  19.714  0.00  0.00    +0.000 C 
BRANCH  19  22
ATOM     22  C   UNL     1       1.365  16.011  19.764  0.00  0.00    +0.000 A 
ATOM     23  C   UNL     1       2.698  16.339  20.075  0.00  0.00    +0.000 A 
ATOM     24  C   UNL     1       3.074  17.629  20.467  0.00  0.00    +0.000 A 
ATOM     25  C   UNL     1       2.117  18.630  20.559  0.00  0.00    +0.000 A 
ATOM     26  C   UNL     1       0.790  18.339  20.260  0.00  0.00    +0.000 A 
ATOM     27  C   UNL     1       0.424  17.045  19.864  0.00  0.00    +0.000 A 
ENDBRANCH  19  22
ENDBRANCH   1  15
BRANCH   7  28
ATOM     28  C   UNL     1       4.758   4.744  18.833  0.00  0.00    +0.000 C 
BRANCH  28  29
ATOM     29  C   UNL     1       4.080   3.464  18.487  0.00  0.00    +0.000 A 
ATOM     30  C   UNL     1       3.168   3.084  17.524  0.00  0.00    +0.000 A 
ATOM     31  C   UNL     1       2.812   1.743  17.814  0.00  0.00    +0.000 A 
ATOM     32  C   UNL     1       3.541   1.385  18.923  0.00  0.00    +0.000 A 
ATOM     33  O   UNL     1       4.313   2.421  19.338  0.00  0.00    +0.000 OA
ENDBRANCH  28  29
ENDBRANCH   7  28
TORSDOF 4
ENDMDL
MODEL 3
REMARK VINA RESULT:      -8.0      1.587      2.041
REMARK  Name = 
REMARK  4 active torsions:
REMARK  status: ('A' for Active; 'I' for Inactive)
REMARK    1  A    between atoms: C_2  and  C_3
REMARK    2  A    between atoms: N_9  and  C_10
REMARK    3  A    between atoms: C_10  and  C_11
REMARK    4  A    between atoms: N_24  and  C_25
REMARK                            x       y       z     vdW  Elec       q    Type
REMARK                         _______ _______ _______ _____ _____    ______ ____
ROOT
ATOM      1  C   UNL     1       0.732   9.474  20.895  0.00  0.00    +0.000 A 
ATOM      2  C   UNL     1       1.117   9.937  19.632  0.00  0.00    +0.000 A 
ATOM      3  C   UNL     1       1.864   9.115  18.786  0.00  0.00    +0.000 A 
ATOM      4  C   UNL     1       2.145   7.800  19.169  0.00  0.00    +0.000 A 
ATOM      5  C   UNL     1       2.933   6.904  18.304  0.00  0.00    +0.000 A 
ATOM      6  O   UNL     1       3.388   7.360  17.257  0.00  0.00    +0.000 OA
ATOM      7  N   UNL     1       3.111   5.585  18.738  0.00  0.00    +0.000 N 
ATOM      8  C   UNL     1       2.656   5.114  19.968  0.00  0.00    +0.000 A 
ATOM      9  S   UNL     1       2.893   3.591  20.630  0.00  0.00    +0.000 S 
ATOM     10  N   UNL     1       1.925   5.988  20.730  0.00  0.00    +0.000 N 
ATOM     11  C   UNL     1       1.663   7.305  20.371  0.00  0.00    +0.000 A 
ATOM     12  C   UNL     1       0.950   8.131  21.236  0.00  0.00    +0.000 A 
ATOM     13  H   UNL     1       1.570   5.628  21.611  0.00  0.00    +0.000 HD
ENDROOT
BRANCH   1  15
ATOM     14  O   UNL     1       0.333  10.034  23.102  0.00  0.00    +0.000 OA
ATOM     15  C   UNL     1       0.111  10.333  21.933  0.00  0.00    +0.000 C 
ATOM     16  N   UNL     1      -0.596  11.478  21.572  0.00  0.00    +0.000 N 
ATOM     17  C   UNL     1      -0.978  11.932  20.226  0.00  0.00    +0.000 C 
ATOM     18  C   UNL     1      -2.513  12.042  20.123  0.00  0.00    +0.000 C 
ATOM     19  N   UNL     1      -2.993  12.958  21.163  0.00  0.00    +0.000 N 
ATOM     20  C   UNL     1      -2.586  12.637  22.542  0.00  0.00    +0.000 C 
ATOM     21  C   UNL     1      -1.068  12.386  22.627  0.00  0.00    +0.000 C 
BRANCH  19  22
ATOM     22  C   UNL     1      -3.772  14.045  20.846  0.00  0.00    +0.000 A 
ATOM     23  C   UNL     1      -3.323  15.358  21.076  0.00  0.00    +0.000 A 
ATOM     24  C   UNL     1      -4.118  16.476  20.796  0.00  0.00    +0.000 A 
ATOM     25  C   UNL     1      -5.394  16.304  20.277  0.00  0.00    +0.000 A 
ATOM     26  C   UNL     1      -5.870  15.019  20.039  0.00  0.00    +0.000 A 
ATOM     27  C   UNL     1      -5.064  13.906  20.318  0.00  0.00    +0.000 A 
ENDBRANCH  19  22
ENDBRANCH   1  15
BRANCH   7  28
ATOM     28  C   UNL     1       3.757   4.693  17.769  0.00  0.00    +0.000 C 
BRANCH  28  29
ATOM     29  C   UNL     1       5.242   4.749  17.854  0.00  0.00    +0.000 A 
ATOM     30  C   UNL     1       6.140   5.116  18.836  0.00  0.00    +0.000 A 
ATOM     31  C   UNL     1       7.425   5.073  18.241  0.00  0.00    +0.000 A 
ATOM     32  C   UNL     1       7.233   4.665  16.943  0.00  0.00    +0.000 A 
ATOM     33  O   UNL     1       5.914   4.466  16.698  0.00  0.00    +0.000 OA
ENDBRANCH  28  29
ENDBRANCH   7  28
TORSDOF 4
ENDMDL
MODEL 4
REMARK VINA RESULT:      -7.9      2.934      3.735
REMARK  Name = 
REMARK  4 active torsions:
REMARK  status: ('A' for Active; 'I' for Inactive)
REMARK    1  A    between atoms: C_2  and  C_3
REMARK    2  A    between atoms: N_9  and  C_10
REMARK    3  A    between atoms: C_10  and  C_11
REMARK    4  A    between atoms: N_24  and  C_25
REMARK                            x       y       z     vdW  Elec       q    Type
REMARK                         _______ _______ _______ _____ _____    ______ ____
ROOT
ATOM      1  C   UNL     1       0.968   9.628  19.763  0.00  0.00    +0.000 A 
ATOM      2  C   UNL     1       1.497   9.781  18.476  0.00  0.00    +0.000 A 
ATOM      3  C   UNL     1       2.285   8.770  17.923  0.00  0.00    +0.000 A 
ATOM      4  C   UNL     1       2.466   7.571  18.620  0.00  0.00    +0.000 A 
ATOM      5  C   UNL     1       3.293   6.483  18.069  0.00  0.00    +0.000 A 
ATOM      6  O   UNL     1       3.869   6.677  17.000  0.00  0.00    +0.000 OA
ATOM      7  N   UNL     1       3.365   5.295  18.805  0.00  0.00    +0.000 N 
ATOM      8  C   UNL     1       2.770   5.129  20.054  0.00  0.00    +0.000 A 
ATOM      9  S   UNL     1       2.870   3.793  21.064  0.00  0.00    +0.000 S 
ATOM     10  N   UNL     1       2.009   6.170  20.516  0.00  0.00    +0.000 N 
ATOM     11  C   UNL     1       1.845   7.376  19.844  0.00  0.00    +0.000 A 
ATOM     12  C   UNL     1       1.089   8.394  20.420  0.00  0.00    +0.000 A 
ATOM     13  H   UNL     1       1.552   6.030  21.413  0.00  0.00    +0.000 HD
ENDROOT
BRANCH   1  15
ATOM     14  O   UNL     1      -0.436  10.378  21.439  0.00  0.00    +0.000 OA
ATOM     15  C   UNL     1       0.288  10.716  20.508  0.00  0.00    +0.000 C 
ATOM     16  N   UNL     1       0.560  12.050  20.214  0.00  0.00    +0.000 N 
ATOM     17  C   UNL     1       1.360  12.599  19.109  0.00  0.00    +0.000 C 
ATOM     18  C   UNL     1       0.488  13.519  18.232  0.00  0.00    +0.000 C 
ATOM     19  N   UNL     1      -0.079  14.579  19.074  0.00  0.00    +0.000 N 
ATOM     20  C   UNL     1      -0.827  14.128  20.261  0.00  0.00    +0.000 C 
ATOM     21  C   UNL     1      -0.013  13.099  21.069  0.00  0.00    +0.000 C 
BRANCH  19  22
ATOM     22  C   UNL     1       0.094  15.905  18.755  0.00  0.00    +0.000 A 
ATOM     23  C   UNL     1      -0.965  16.826  18.864  0.00  0.00    +0.000 A 
ATOM     24  C   UNL     1      -0.819  18.172  18.506  0.00  0.00    +0.000 A 
ATOM     25  C   UNL     1       0.399  18.631  18.025  0.00  0.00    +0.000 A 
ATOM     26  C   UNL     1       1.466  17.745  17.903  0.00  0.00    +0.000 A 
ATOM     27  C   UNL     1       1.311  16.401  18.269  0.00  0.00    +0.000 A 
ENDBRANCH  19  22
ENDBRANCH   1  15
BRANCH   7  28
ATOM     28  C   UNL     1       4.061   4.190  18.137  0.00  0.00    +0.000 C 
BRANCH  28  29
ATOM     29  C   UNL     1       5.529   4.424  18.043  0.00  0.00    +0.000 A 
ATOM     30  C   UNL     1       6.479   4.954  18.891  0.00  0.00    +0.000 A 
ATOM     31  C   UNL     1       7.686   5.022  18.152  0.00  0.00    +0.000 A 
ATOM     32  C   UNL     1       7.402   4.512  16.908  0.00  0.00    +0.000 A 
ATOM     33  O   UNL     1       6.097   4.147  16.831  0.00  0.00    +0.000 OA
ENDBRANCH  28  29
ENDBRANCH   7  28
TORSDOF 4
ENDMDL
MODEL 5
REMARK VINA RESULT:      -7.9      2.899      4.300
REMARK  Name = 
REMARK  4 active torsions:
REMARK  status: ('A' for Active; 'I' for Inactive)
REMARK    1  A    between atoms: C_2  and  C_3
REMARK    2  A    between atoms: N_9  and  C_10
REMARK    3  A    between atoms: C_10  and  C_11
REMARK    4  A    between atoms: N_24  and  C_25
REMARK                            x       y       z     vdW  Elec       q    Type
REMARK                         _______ _______ _______ _____ _____    ______ ____
ROOT
ATOM      1  C   UNL     1       0.378   9.733  19.590  0.00  0.00    +0.000 A 
ATOM      2  C   UNL     1       0.311   8.936  20.738  0.00  0.00    +0.000 A 
ATOM      3  C   UNL     1       1.086   7.778  20.828  0.00  0.00    +0.000 A 
ATOM      4  C   UNL     1       1.992   7.470  19.809  0.00  0.00    +0.000 A 
ATOM      5  C   UNL     1       2.825   6.256  19.868  0.00  0.00    +0.000 A 
ATOM      6  O   UNL     1       2.662   5.486  20.813  0.00  0.00    +0.000 OA
ATOM      7  N   UNL     1       3.750   6.060  18.836  0.00  0.00    +0.000 N 
ATOM      8  C   UNL     1       3.858   6.904  17.733  0.00  0.00    +0.000 A 
ATOM      9  S   UNL     1       4.857   6.717  16.398  0.00  0.00    +0.000 S 
ATOM     10  N   UNL     1       3.065   8.021  17.732  0.00  0.00    +0.000 N 
ATOM     11  C   UNL     1       2.141   8.323  18.726  0.00  0.00    +0.000 A 
ATOM     12  C   UNL     1       1.344   9.459  18.611  0.00  0.00    +0.000 A 
ATOM     13  H   UNL     1       3.171   8.648  16.939  0.00  0.00    +0.000 HD
ENDROOT
BRANCH   1  15
ATOM     14  O   UNL     1      -0.769  11.122  18.141  0.00  0.00    +0.000 OA
ATOM     15  C   UNL     1      -0.542  10.866  19.319  0.00  0.00    +0.000 C 
ATOM     16  N   UNL     1      -1.185  11.519  20.367  0.00  0.00    +0.000 N 
ATOM     17  C   UNL     1      -0.978  11.353  21.815  0.00  0.00    +0.000 C 
ATOM     18  C   UNL     1      -0.537  12.691  22.441  0.00  0.00    +0.000 C 
ATOM     19  N   UNL     1      -1.553  13.709  22.149  0.00  0.00    +0.000 N 
ATOM     20  C   UNL     1      -1.897  13.887  20.728  0.00  0.00    +0.000 C 
ATOM     21  C   UNL     1      -2.203  12.533  20.058  0.00  0.00    +0.000 C 
BRANCH  19  22
ATOM     22  C   UNL     1      -2.138  14.436  23.159  0.00  0.00    +0.000 A 
ATOM     23  C   UNL     1      -3.454  14.922  23.042  0.00  0.00    +0.000 A 
ATOM     24  C   UNL     1      -4.052  15.698  24.042  0.00  0.00    +0.000 A 
ATOM     25  C   UNL     1      -3.339  16.011  25.192  0.00  0.00    +0.000 A 
ATOM     26  C   UNL     1      -2.035  15.549  25.338  0.00  0.00    +0.000 A 
ATOM     27  C   UNL     1      -1.448  14.768  24.333  0.00  0.00    +0.000 A 
ENDBRANCH  19  22
ENDBRANCH   1  15
BRANCH   7  28
ATOM     28  C   UNL     1       4.665   4.929  19.027  0.00  0.00    +0.000 C 
BRANCH  28  29
ATOM     29  C   UNL     1       4.068   3.640  18.580  0.00  0.00    +0.000 A 
ATOM     30  C   UNL     1       3.306   3.253  17.497  0.00  0.00    +0.000 A 
ATOM     31  C   UNL     1       2.941   1.903  17.724  0.00  0.00    +0.000 A 
ATOM     32  C   UNL     1       3.518   1.546  18.919  0.00  0.00    +0.000 A 
ATOM     33  O   UNL     1       4.204   2.592  19.446  0.00  0.00    +0.000 OA
ENDBRANCH  28  29
ENDBRANCH   7  28
TORSDOF 4
ENDMDL
MODEL 6
REMARK VINA RESULT:      -7.9      1.955      2.376
REMARK  Name = 
REMARK  4 active torsions:
REMARK  status: ('A' for Active; 'I' for Inactive)
REMARK    1  A    between atoms: C_2  and  C_3
REMARK    2  A    between atoms: N_9  and  C_10
REMARK    3  A    between atoms: C_10  and  C_11
REMARK    4  A    between atoms: N_24  and  C_25
REMARK                            x       y       z     vdW  Elec       q    Type
REMARK                         _______ _______ _______ _____ _____    ______ ____
ROOT
ATOM      1  C   UNL     1       0.344   9.847  21.065  0.00  0.00    +0.000 A 
ATOM      2  C   UNL     1       0.611  10.437  19.825  0.00  0.00    +0.000 A 
ATOM      3  C   UNL     1       1.395   9.763  18.887  0.00  0.00    +0.000 A 
ATOM      4  C   UNL     1       1.833   8.463  19.156  0.00  0.00    +0.000 A 
ATOM      5  C   UNL     1       2.665   7.722  18.191  0.00  0.00    +0.000 A 
ATOM      6  O   UNL     1       3.013   8.297  17.162  0.00  0.00    +0.000 OA
ATOM      7  N   UNL     1       3.004   6.403  18.516  0.00  0.00    +0.000 N 
ATOM      8  C   UNL     1       2.667   5.799  19.726  0.00  0.00    +0.000 A 
ATOM      9  S   UNL     1       3.098   4.269  20.259  0.00  0.00    +0.000 S 
ATOM     10  N   UNL     1       1.889   6.532  20.583  0.00  0.00    +0.000 N 
ATOM     11  C   UNL     1       1.470   7.835  20.338  0.00  0.00    +0.000 A 
ATOM     12  C   UNL     1       0.721   8.515  21.294  0.00  0.00    +0.000 A 
ATOM     13  H   UNL     1       1.621   6.074  21.450  0.00  0.00    +0.000 HD
ENDROOT
BRANCH   1  15
ATOM     14  O   UNL     1      -0.042  10.161  23.323  0.00  0.00    +0.000 OA
ATOM     15  C   UNL     1      -0.309  10.558  22.193  0.00  0.00    +0.000 C 
ATOM     16  N   UNL     1      -1.095  11.682  21.957  0.00  0.00    +0.000 N 
ATOM     17  C   UNL     1      -1.536  12.238  20.668  0.00  0.00    +0.000 C 
ATOM     18  C   UNL     1      -3.076  12.256  20.600  0.00  0.00    +0.000 C 
ATOM     19  N   UNL     1      -3.592  13.032  21.733  0.00  0.00    +0.000 N 
ATOM     20  C   UNL     1      -3.134  12.606  23.067  0.00  0.00    +0.000 C 
ATOM     21  C   UNL     1      -1.602  12.450  23.104  0.00  0.00    +0.000 C 
BRANCH  19  22
ATOM     22  C   UNL     1      -4.446  14.090  21.536  0.00  0.00    +0.000 A 
ATOM     23  C   UNL     1      -5.843  13.920  21.580  0.00  0.00    +0.000 A 
ATOM     24  C   UNL     1      -6.729  14.977  21.342  0.00  0.00    +0.000 A 
ATOM     25  C   UNL     1      -6.234  16.241  21.050  0.00  0.00    +0.000 A 
ATOM     26  C   UNL     1      -4.858  16.443  20.997  0.00  0.00    +0.000 A 
ATOM     27  C   UNL     1      -3.980  15.379  21.241  0.00  0.00    +0.000 A 
ENDBRANCH  19  22
ENDBRANCH   1  15
BRANCH   7  28
ATOM     28  C   UNL     1       3.688   5.657  17.454  0.00  0.00    +0.000 C 
BRANCH  28  29
ATOM     29  C   UNL     1       5.169   5.714  17.589  0.00  0.00    +0.000 A 
ATOM     30  C   UNL     1       6.115   6.708  17.436  0.00  0.00    +0.000 A 
ATOM     31  C   UNL     1       7.379   6.084  17.577  0.00  0.00    +0.000 A 
ATOM     32  C   UNL     1       7.126   4.756  17.824  0.00  0.00    +0.000 A 
ATOM     33  O   UNL     1       5.790   4.522  17.834  0.00  0.00    +0.000 OA
ENDBRANCH  28  29
ENDBRANCH   7  28
TORSDOF 4
ENDMDL
MODEL 7
REMARK VINA RESULT:      -7.9      0.882      1.210
REMARK  Name = 
REMARK  4 active torsions:
REMARK  status: ('A' for Active; 'I' for Inactive)
REMARK    1  A    between atoms: C_2  and  C_3
REMARK    2  A    between atoms: N_9  and  C_10
REMARK    3  A    between atoms: C_10  and  C_11
REMARK    4  A    between atoms: N_24  and  C_25
REMARK                            x       y       z     vdW  Elec       q    Type
REMARK                         _______ _______ _______ _____ _____    ______ ____
ROOT
ATOM      1  C   UNL     1       0.526  10.489  19.882  0.00  0.00    +0.000 A 
ATOM      2  C   UNL     1       1.050  10.754  18.612  0.00  0.00    +0.000 A 
ATOM      3  C   UNL     1       1.869   9.812  17.987  0.00  0.00    +0.000 A 
ATOM      4  C   UNL     1       2.086   8.571  18.593  0.00  0.00    +0.000 A 
ATOM      5  C   UNL     1       2.946   7.553  17.965  0.00  0.00    +0.000 A 
ATOM      6  O   UNL     1       3.517   7.843  16.915  0.00  0.00    +0.000 OA
ATOM      7  N   UNL     1       3.055   6.316  18.611  0.00  0.00    +0.000 N 
ATOM      8  C   UNL     1       2.465   6.039  19.843  0.00  0.00    +0.000 A 
ATOM      9  S   UNL     1       2.606   4.635  20.750  0.00  0.00    +0.000 S 
ATOM     10  N   UNL     1       1.672   7.019  20.379  0.00  0.00    +0.000 N 
ATOM     11  C   UNL     1       1.471   8.266  19.798  0.00  0.00    +0.000 A 
ATOM     12  C   UNL     1       0.684   9.215  20.446  0.00  0.00    +0.000 A 
ATOM     13  H   UNL     1       1.219   6.799  21.262  0.00  0.00    +0.000 HD
ENDROOT
BRANCH   1  15
ATOM     14  O   UNL     1       0.319  11.788  21.784  0.00  0.00    +0.000 OA
ATOM     15  C   UNL     1      -0.188  11.498  20.705  0.00  0.00    +0.000 C 
ATOM     16  N   UNL     1      -1.315  12.145  20.207  0.00  0.00    +0.000 N 
ATOM     17  C   UNL     1      -2.055  11.871  18.965  0.00  0.00    +0.000 C 
ATOM     18  C   UNL     1      -3.516  11.504  19.292  0.00  0.00    +0.000 C 
ATOM     19  N   UNL     1      -4.122  12.601  20.056  0.00  0.00    +0.000 N 
ATOM     20  C   UNL     1      -3.403  13.010  21.275  0.00  0.00    +0.000 C 
ATOM     21  C   UNL     1      -1.907  13.244  20.983  0.00  0.00    +0.000 C 
BRANCH  19  22
ATOM     22  C   UNL     1      -5.287  13.197  19.637  0.00  0.00    +0.000 A 
ATOM     23  C   UNL     1      -6.185  12.527  18.784  0.00  0.00    +0.000 A 
ATOM     24  C   UNL     1      -7.357  13.132  18.315  0.00  0.00    +0.000 A 
ATOM     25  C   UNL     1      -7.660  14.434  18.691  0.00  0.00    +0.000 A 
ATOM     26  C   UNL     1      -6.794  15.125  19.532  0.00  0.00    +0.000 A 
ATOM     27  C   UNL     1      -5.625  14.508  19.999  0.00  0.00    +0.000 A 
ENDBRANCH  19  22
ENDBRANCH   1  15
BRANCH   7  28
ATOM     28  C   UNL     1       3.785   5.286  17.864  0.00  0.00    +0.000 C 
BRANCH  28  29
ATOM     29  C   UNL     1       5.255   5.366  18.084  0.00  0.00    +0.000 A 
ATOM     30  C   UNL     1       6.067   5.355  19.200  0.00  0.00    +0.000 A 
ATOM     31  C   UNL     1       7.385   5.602  18.741  0.00  0.00    +0.000 A 
ATOM     32  C   UNL     1       7.297   5.728  17.375  0.00  0.00    +0.000 A 
ATOM     33  O   UNL     1       6.011   5.587  16.967  0.00  0.00    +0.000 OA
ENDBRANCH  28  29
ENDBRANCH   7  28
TORSDOF 4
ENDMDL
MODEL 8
REMARK VINA RESULT:      -7.8      2.842      3.320
REMARK  Name = 
REMARK  4 active torsions:
REMARK  status: ('A' for Active; 'I' for Inactive)
REMARK    1  A    between atoms: C_2  and  C_3
REMARK    2  A    between atoms: N_9  and  C_10
REMARK    3  A    between atoms: C_10  and  C_11
REMARK    4  A    between atoms: N_24  and  C_25
REMARK                            x       y       z     vdW  Elec       q    Type
REMARK                         _______ _______ _______ _____ _____    ______ ____
ROOT
ATOM      1  C   UNL     1       1.029   8.989  20.362  0.00  0.00    +0.000 A 
ATOM      2  C   UNL     1       1.429   9.281  19.054  0.00  0.00    +0.000 A 
ATOM      3  C   UNL     1       2.186   8.355  18.334  0.00  0.00    +0.000 A 
ATOM      4  C   UNL     1       2.462   7.102  18.891  0.00  0.00    +0.000 A 
ATOM      5  C   UNL     1       3.260   6.101  18.162  0.00  0.00    +0.000 A 
ATOM      6  O   UNL     1       3.727   6.414  17.069  0.00  0.00    +0.000 OA
ATOM      7  N   UNL     1       3.433   4.851  18.769  0.00  0.00    +0.000 N 
ATOM      8  C   UNL     1       2.963   4.547  20.046  0.00  0.00    +0.000 A 
ATOM      9  S   UNL     1       3.193   3.126  20.906  0.00  0.00    +0.000 S 
ATOM     10  N   UNL     1       2.223   5.513  20.675  0.00  0.00    +0.000 N 
ATOM     11  C   UNL     1       1.965   6.771  20.142  0.00  0.00    +0.000 A 
ATOM     12  C   UNL     1       1.243   7.703  20.882  0.00  0.00    +0.000 A 
ATOM     13  H   UNL     1       1.858   5.273  21.593  0.00  0.00    +0.000 HD
ENDROOT
BRANCH   1  15
ATOM     14  O   UNL     1      -0.031   9.551  22.338  0.00  0.00    +0.000 OA
ATOM     15  C   UNL     1       0.395   9.977  21.270  0.00  0.00    +0.000 C 
ATOM     16  N   UNL     1       0.394  11.332  20.948  0.00  0.00    +0.000 N 
ATOM     17  C   UNL     1       0.822  11.976  19.696  0.00  0.00    +0.000 C 
ATOM     18  C   UNL     1      -0.357  12.747  19.070  0.00  0.00    +0.000 C 
ATOM     19  N   UNL     1      -0.855  13.725  20.044  0.00  0.00    +0.000 N 
ATOM     20  C   UNL     1      -1.226  13.188  21.364  0.00  0.00    +0.000 C 
ATOM     21  C   UNL     1      -0.105  12.299  21.936  0.00  0.00    +0.000 C 
BRANCH  19  22
ATOM     22  C   UNL     1      -0.956  15.057  19.721  0.00  0.00    +0.000 A 
ATOM     23  C   UNL     1      -0.230  15.606  18.647  0.00  0.00    +0.000 A 
ATOM     24  C   UNL     1      -0.288  16.968  18.328  0.00  0.00    +0.000 A 
ATOM     25  C   UNL     1      -1.080  17.821  19.085  0.00  0.00    +0.000 A 
ATOM     26  C   UNL     1      -1.809  17.311  20.155  0.00  0.00    +0.000 A 
ATOM     27  C   UNL     1      -1.747  15.945  20.463  0.00  0.00    +0.000 A 
ENDBRANCH  19  22
ENDBRANCH   1  15
BRANCH   7  28
ATOM     28  C   UNL     1       4.090   3.839  17.935  0.00  0.00    +0.000 C 
BRANCH  28  29
ATOM     29  C   UNL     1       5.490   4.212  17.594  0.00  0.00    +0.000 A 
ATOM     30  C   UNL     1       6.209   4.293  16.419  0.00  0.00    +0.000 A 
ATOM     31  C   UNL     1       7.547   4.581  16.785  0.00  0.00    +0.000 A 
ATOM     32  C   UNL     1       7.557   4.677  18.157  0.00  0.00    +0.000 A 
ATOM     33  O   UNL     1       6.315   4.455  18.656  0.00  0.00    +0.000 OA
ENDBRANCH  28  29
ENDBRANCH   7  28
TORSDOF 4
ENDMDL
MODEL 9
REMARK VINA RESULT:      -7.8      2.856      4.212
REMARK  Name = 
REMARK  4 active torsions:
REMARK  status: ('A' for Active; 'I' for Inactive)
REMARK    1  A    between atoms: C_2  and  C_3
REMARK    2  A    between atoms: N_9  and  C_10
REMARK    3  A    between atoms: C_10  and  C_11
REMARK    4  A    between atoms: N_24  and  C_25
REMARK                            x       y       z     vdW  Elec       q    Type
REMARK                         _______ _______ _______ _____ _____    ______ ____
ROOT
ATOM      1  C   UNL     1       0.409   9.683  19.555  0.00  0.00    +0.000 A 
ATOM      2  C   UNL     1       0.342   8.912  20.721  0.00  0.00    +0.000 A 
ATOM      3  C   UNL     1       1.115   7.754  20.835  0.00  0.00    +0.000 A 
ATOM      4  C   UNL     1       2.019   7.422  19.822  0.00  0.00    +0.000 A 
ATOM      5  C   UNL     1       2.849   6.207  19.907  0.00  0.00    +0.000 A 
ATOM      6  O   UNL     1       2.687   5.459  20.869  0.00  0.00    +0.000 OA
ATOM      7  N   UNL     1       3.773   5.987  18.878  0.00  0.00    +0.000 N 
ATOM      8  C   UNL     1       3.881   6.807  17.756  0.00  0.00    +0.000 A 
ATOM      9  S   UNL     1       4.878   6.588  16.425  0.00  0.00    +0.000 S 
ATOM     10  N   UNL     1       3.090   7.925  17.732  0.00  0.00    +0.000 N 
ATOM     11  C   UNL     1       2.168   8.250  18.720  0.00  0.00    +0.000 A 
ATOM     12  C   UNL     1       1.373   9.385  18.581  0.00  0.00    +0.000 A 
ATOM     13  H   UNL     1       3.197   8.534  16.925  0.00  0.00    +0.000 HD
ENDROOT
BRANCH   1  15
ATOM     14  O   UNL     1      -0.722  11.055  18.077  0.00  0.00    +0.000 OA
ATOM     15  C   UNL     1      -0.509  10.811  19.261  0.00  0.00    +0.000 C 
ATOM     16  N   UNL     1      -1.167  11.474  20.293  0.00  0.00    +0.000 N 
ATOM     17  C   UNL     1      -0.978  11.324  21.745  0.00  0.00    +0.000 C 
ATOM     18  C   UNL     1      -0.547  12.669  22.363  0.00  0.00    +0.000 C 
ATOM     19  N   UNL     1      -1.561  13.682  22.047  0.00  0.00    +0.000 N 
ATOM     20  C   UNL     1      -1.887  13.845  20.620  0.00  0.00    +0.000 C 
ATOM     21  C   UNL     1      -2.182  12.484  19.960  0.00  0.00    +0.000 C 
BRANCH  19  22
ATOM     22  C   UNL     1      -2.159  14.419  23.041  0.00  0.00    +0.000 A 
ATOM     23  C   UNL     1      -1.435  14.850  24.168  0.00  0.00    +0.000 A 
ATOM     24  C   UNL     1      -2.036  15.566  25.210  0.00  0.00    +0.000 A 
ATOM     25  C   UNL     1      -3.390  15.870  25.148  0.00  0.00    +0.000 A 
ATOM     26  C   UNL     1      -4.136  15.457  24.049  0.00  0.00    +0.000 A 
ATOM     27  C   UNL     1      -3.523  14.744  23.009  0.00  0.00    +0.000 A 
ENDBRANCH  19  22
ENDBRANCH   1  15
BRANCH   7  28
ATOM     28  C   UNL     1       4.686   4.859  19.092  0.00  0.00    +0.000 C 
BRANCH  28  29
ATOM     29  C   UNL     1       4.036   3.548  18.815  0.00  0.00    +0.000 A 
ATOM     30  C   UNL     1       4.102   2.297  19.393  0.00  0.00    +0.000 A 
ATOM     31  C   UNL     1       3.338   1.433  18.570  0.00  0.00    +0.000 A 
ATOM     32  C   UNL     1       2.839   2.214  17.555  0.00  0.00    +0.000 A 
ATOM     33  O   UNL     1       3.257   3.497  17.694  0.00  0.00    +0.000 OA
ENDBRANCH  28  29
ENDBRANCH   7  28
TORSDOF 4
ENDMDL
