MODEL 1
REMARK VINA RESULT:      -7.8      0.000      0.000
REMARK  Name = 
REMARK  7 active torsions:
REMARK  status: ('A' for Active; 'I' for Inactive)
REMARK    1  A    between atoms: C_1  and  C_2
REMARK    2  A    between atoms: C_2  and  C_3
REMARK    3  A    between atoms: C_2  and  C_4
REMARK    4  A    between atoms: C_2  and  C_5
REMARK    5  A    between atoms: N_10  and  C_11
REMARK    6  A    between atoms: C_11  and  C_12
REMARK    7  A    between atoms: C_14  and  C_15
REMARK                            x       y       z     vdW  Elec       q    Type
REMARK                         _______ _______ _______ _____ _____    ______ ____
ROOT
ATOM      1  C   UNL     1       7.566   6.916  17.868  0.00  0.00    +0.000 A 
ATOM      2  N   UNL     1       8.457   7.574  18.580  0.00  0.00    +0.000 NA
ATOM      3  C   UNL     1       8.266   8.884  18.181  0.00  0.00    +0.000 A 
ATOM      4  N   UNL     1       7.294   9.024  17.264  0.00  0.00    +0.000 NA
ATOM      5  O   UNL     1       6.832   7.728  17.055  0.00  0.00    +0.000 OA
ENDROOT
BRANCH   3   6
ATOM      6  C   UNL     1       9.066   9.999  18.692  0.00  0.00    +0.000 A 
ATOM      7  C   UNL     1       9.134  10.262  20.072  0.00  0.00    +0.000 A 
ATOM      8  C   UNL     1       9.897  11.334  20.557  0.00  0.00    +0.000 A 
ATOM      9  C   UNL     1      10.598  12.138  19.669  0.00  0.00    +0.000 A 
ATOM     10  F   UNL     1      11.327  13.158  20.136  0.00  0.00    +0.000 F 
ATOM     11  C   UNL     1      10.554  11.895  18.300  0.00  0.00    +0.000 A 
ATOM     12  C   UNL     1       9.789  10.830  17.816  0.00  0.00    +0.000 A 
ENDBRANCH   3   6
BRANCH   1  13
ATOM     13  C   UNL     1       7.368   5.447  17.709  0.00  0.00    +0.000 C 
BRANCH  13  19
ATOM     14  C   UNL     1       5.108   4.694  16.773  0.00  0.00    +0.000 A 
ATOM     15  N   UNL     1       4.619   4.364  15.621  0.00  0.00    +0.000 NA
ATOM     16  O   UNL     1       5.650   4.587  14.676  0.00  0.00    +0.000 OA
ATOM     17  C   UNL     1       6.723   5.035  15.396  0.00  0.00    +0.000 A 
ATOM     18  O   UNL     1       7.812   5.301  14.913  0.00  0.00    +0.000 OA
ATOM     19  N   UNL     1       6.378   5.101  16.703  0.00  0.00    +0.000 N 
BRANCH  14  21
ATOM     20  C   UNL     1       2.899   3.922  17.703  0.00  0.00    +0.000 C 
ATOM     21  C   UNL     1       4.245   4.606  18.046  0.00  0.00    +0.000 C 
ATOM     22  C   UNL     1       3.957   6.020  18.566  0.00  0.00    +0.000 C 
ATOM     23  C   UNL     1       4.905   3.760  19.144  0.00  0.00    +0.000 C 
ENDBRANCH  14  21
ENDBRANCH  13  19
ENDBRANCH   1  13
TORSDOF 4
ENDMDL
MODEL 2
REMARK VINA RESULT:      -7.8      0.063      1.010
REMARK  Name = 
REMARK  7 active torsions:
REMARK  status: ('A' for Active; 'I' for Inactive)
REMARK    1  A    between atoms: C_1  and  C_2
REMARK    2  A    between atoms: C_2  and  C_3
REMARK    3  A    between atoms: C_2  and  C_4
REMARK    4  A    between atoms: C_2  and  C_5
REMARK    5  A    between atoms: N_10  and  C_11
REMARK    6  A    between atoms: C_11  and  C_12
REMARK    7  A    between atoms: C_14  and  C_15
REMARK                            x       y       z     vdW  Elec       q    Type
REMARK                         _______ _______ _______ _____ _____    ______ ____
ROOT
ATOM      1  C   UNL     1       7.562   6.967  17.861  0.00  0.00    +0.000 A 
ATOM      2  N   UNL     1       8.447   7.624  18.582  0.00  0.00    +0.000 NA
ATOM      3  C   UNL     1       8.261   8.934  18.182  0.00  0.00    +0.000 A 
ATOM      4  N   UNL     1       7.297   9.076  17.256  0.00  0.00    +0.000 NA
ATOM      5  O   UNL     1       6.836   7.780  17.043  0.00  0.00    +0.000 OA
ENDROOT
BRANCH   3   6
ATOM      6  C   UNL     1       9.058  10.047  18.702  0.00  0.00    +0.000 A 
ATOM      7  C   UNL     1       9.753  10.903  17.829  0.00  0.00    +0.000 A 
ATOM      8  C   UNL     1      10.519  11.964  18.330  0.00  0.00    +0.000 A 
ATOM      9  C   UNL     1      10.586  12.179  19.700  0.00  0.00    +0.000 A 
ATOM     10  F   UNL     1      11.316  13.195  20.174  0.00  0.00    +0.000 F 
ATOM     11  C   UNL     1       9.902  11.352  20.585  0.00  0.00    +0.000 A 
ATOM     12  C   UNL     1       9.143  10.291  20.086  0.00  0.00    +0.000 A 
ENDBRANCH   3   6
BRANCH   1  13
ATOM     13  C   UNL     1       7.364   5.498  17.699  0.00  0.00    +0.000 C 
BRANCH  13  19
ATOM     14  C   UNL     1       5.097   4.761  16.766  0.00  0.00    +0.000 A 
ATOM     15  N   UNL     1       4.607   4.427  15.616  0.00  0.00    +0.000 NA
ATOM     16  O   UNL     1       5.641   4.632  14.670  0.00  0.00    +0.000 OA
ATOM     17  C   UNL     1       6.718   5.075  15.389  0.00  0.00    +0.000 A 
ATOM     18  O   UNL     1       7.810   5.327  14.906  0.00  0.00    +0.000 OA
ATOM     19  N   UNL     1       6.372   5.154  16.695  0.00  0.00    +0.000 N 
BRANCH  14  21
ATOM     20  C   UNL     1       2.894   3.984  17.707  0.00  0.00    +0.000 C 
ATOM     21  C   UNL     1       4.232   4.691  18.038  0.00  0.00    +0.000 C 
ATOM     22  C   UNL     1       3.927   6.113  18.527  0.00  0.00    +0.000 C 
ATOM     23  C   UNL     1       4.898   3.875  19.156  0.00  0.00    +0.000 C 
ENDBRANCH  14  21
ENDBRANCH  13  19
ENDBRANCH   1  13
TORSDOF 4
ENDMDL
MODEL 3
REMARK VINA RESULT:      -7.7      5.793      7.523
REMARK  Name = 
REMARK  7 active torsions:
REMARK  status: ('A' for Active; 'I' for Inactive)
REMARK    1  A    between atoms: C_1  and  C_2
REMARK    2  A    between atoms: C_2  and  C_3
REMARK    3  A    between atoms: C_2  and  C_4
REMARK    4  A    between atoms: C_2  and  C_5
REMARK    5  A    between atoms: N_10  and  C_11
REMARK    6  A    between atoms: C_11  and  C_12
REMARK    7  A    between atoms: C_14  and  C_15
REMARK                            x       y       z     vdW  Elec       q    Type
REMARK                         _______ _______ _______ _____ _____    ______ ____
ROOT
ATOM      1  C   UNL     1       2.325   6.804  19.883  0.00  0.00    +0.000 A 
ATOM      2  N   UNL     1       1.624   7.310  20.876  0.00  0.00    +0.000 NA
ATOM      3  C   UNL     1       1.211   8.530  20.373  0.00  0.00    +0.000 A 
ATOM      4  N   UNL     1       1.639   8.761  19.120  0.00  0.00    +0.000 NA
ATOM      5  O   UNL     1       2.375   7.625  18.796  0.00  0.00    +0.000 OA
ENDROOT
BRANCH   3   6
ATOM      6  C   UNL     1       0.410   9.482  21.145  0.00  0.00    +0.000 A 
ATOM      7  C   UNL     1      -0.010  10.697  20.576  0.00  0.00    +0.000 A 
ATOM      8  C   UNL     1      -0.772  11.608  21.320  0.00  0.00    +0.000 A 
ATOM      9  C   UNL     1      -1.123  11.306  22.629  0.00  0.00    +0.000 A 
ATOM     10  F   UNL     1      -1.853  12.177  23.335  0.00  0.00    +0.000 F 
ATOM     11  C   UNL     1      -0.726  10.108  23.214  0.00  0.00    +0.000 A 
ATOM     12  C   UNL     1       0.038   9.202  22.474  0.00  0.00    +0.000 A 
ENDBRANCH   3   6
BRANCH   1  13
ATOM     13  C   UNL     1       3.178   5.581  19.843  0.00  0.00    +0.000 C 
BRANCH  13  19
ATOM     14  C   UNL     1       3.343   4.338  17.611  0.00  0.00    +0.000 A 
ATOM     15  N   UNL     1       2.607   3.532  16.916  0.00  0.00    +0.000 NA
ATOM     16  O   UNL     1       1.468   3.252  17.711  0.00  0.00    +0.000 OA
ATOM     17  C   UNL     1       1.632   3.974  18.861  0.00  0.00    +0.000 A 
ATOM     18  O   UNL     1       0.823   4.005  19.774  0.00  0.00    +0.000 OA
ATOM     19  N   UNL     1       2.804   4.648  18.793  0.00  0.00    +0.000 N 
BRANCH  14  21
ATOM     20  C   UNL     1       5.008   4.104  15.737  0.00  0.00    +0.000 C 
ATOM     21  C   UNL     1       4.693   4.837  17.064  0.00  0.00    +0.000 C 
ATOM     22  C   UNL     1       5.803   4.520  18.075  0.00  0.00    +0.000 C 
ATOM     23  C   UNL     1       4.677   6.339  16.745  0.00  0.00    +0.000 C 
ENDBRANCH  14  21
ENDBRANCH  13  19
ENDBRANCH   1  13
TORSDOF 4
ENDMDL
MODEL 4
REMARK VINA RESULT:      -7.7      5.781      7.415
REMARK  Name = 
REMARK  7 active torsions:
REMARK  status: ('A' for Active; 'I' for Inactive)
REMARK    1  A    between atoms: C_1  and  C_2
REMARK    2  A    between atoms: C_2  and  C_3
REMARK    3  A    between atoms: C_2  and  C_4
REMARK    4  A    between atoms: C_2  and  C_5
REMARK    5  A    between atoms: N_10  and  C_11
REMARK    6  A    between atoms: C_11  and  C_12
REMARK    7  A    between atoms: C_14  and  C_15
REMARK                            x       y       z     vdW  Elec       q    Type
REMARK                         _______ _______ _______ _____ _____    ______ ____
ROOT
ATOM      1  C   UNL     1       2.341   6.788  19.874  0.00  0.00    +0.000 A 
ATOM      2  N   UNL     1       1.668   7.312  20.877  0.00  0.00    +0.000 NA
ATOM      3  C   UNL     1       1.247   8.527  20.367  0.00  0.00    +0.000 A 
ATOM      4  N   UNL     1       1.644   8.737  19.100  0.00  0.00    +0.000 NA
ATOM      5  O   UNL     1       2.366   7.592  18.774  0.00  0.00    +0.000 OA
ENDROOT
BRANCH   3   6
ATOM      6  C   UNL     1       0.471   9.494  21.145  0.00  0.00    +0.000 A 
ATOM      7  C   UNL     1       0.025   9.182  22.441  0.00  0.00    +0.000 A 
ATOM      8  C   UNL     1      -0.722  10.108  23.181  0.00  0.00    +0.000 A 
ATOM      9  C   UNL     1      -1.021  11.349  22.633  0.00  0.00    +0.000 A 
ATOM     10  F   UNL     1      -1.732  12.231  23.343  0.00  0.00    +0.000 F 
ATOM     11  C   UNL     1      -0.585  11.685  21.355  0.00  0.00    +0.000 A 
ATOM     12  C   UNL     1       0.155  10.760  20.616  0.00  0.00    +0.000 A 
ENDBRANCH   3   6
BRANCH   1  13
ATOM     13  C   UNL     1       3.187   5.561  19.831  0.00  0.00    +0.000 C 
BRANCH  13  19
ATOM     14  C   UNL     1       3.362   4.337  17.589  0.00  0.00    +0.000 A 
ATOM     15  N   UNL     1       2.627   3.540  16.883  0.00  0.00    +0.000 NA
ATOM     16  O   UNL     1       1.482   3.258  17.667  0.00  0.00    +0.000 OA
ATOM     17  C   UNL     1       1.642   3.968  18.825  0.00  0.00    +0.000 A 
ATOM     18  O   UNL     1       0.826   3.995  19.733  0.00  0.00    +0.000 OA
ATOM     19  N   UNL     1       2.816   4.639  18.771  0.00  0.00    +0.000 N 
BRANCH  14  21
ATOM     20  C   UNL     1       5.069   4.065  15.758  0.00  0.00    +0.000 C 
ATOM     21  C   UNL     1       4.718   4.835  17.055  0.00  0.00    +0.000 C 
ATOM     22  C   UNL     1       5.809   4.561  18.098  0.00  0.00    +0.000 C 
ATOM     23  C   UNL     1       4.692   6.326  16.691  0.00  0.00    +0.000 C 
ENDBRANCH  14  21
ENDBRANCH  13  19
ENDBRANCH   1  13
TORSDOF 4
ENDMDL
MODEL 5
REMARK VINA RESULT:      -7.6      5.521      6.923
REMARK  Name = 
REMARK  7 active torsions:
REMARK  status: ('A' for Active; 'I' for Inactive)
REMARK    1  A    between atoms: C_1  and  C_2
REMARK    2  A    between atoms: C_2  and  C_3
REMARK    3  A    between atoms: C_2  and  C_4
REMARK    4  A    between atoms: C_2  and  C_5
REMARK    5  A    between atoms: N_10  and  C_11
REMARK    6  A    between atoms: C_11  and  C_12
REMARK    7  A    between atoms: C_14  and  C_15
REMARK                            x       y       z     vdW  Elec       q    Type
REMARK                         _______ _______ _______ _____ _____    ______ ____
ROOT
ATOM      1  C   UNL     1       4.626   5.719  17.143  0.00  0.00    +0.000 A 
ATOM      2  N   UNL     1       5.069   4.748  16.371  0.00  0.00    +0.000 NA
ATOM      3  C   UNL     1       5.452   5.415  15.222  0.00  0.00    +0.000 A 
ATOM      4  N   UNL     1       5.255   6.743  15.288  0.00  0.00    +0.000 NA
ATOM      5  O   UNL     1       4.710   6.945  16.553  0.00  0.00    +0.000 OA
ENDROOT
BRANCH   3   6
ATOM      6  C   UNL     1       5.991   4.732  14.045  0.00  0.00    +0.000 A 
ATOM      7  C   UNL     1       5.254   3.726  13.397  0.00  0.00    +0.000 A 
ATOM      8  C   UNL     1       5.776   3.070  12.273  0.00  0.00    +0.000 A 
ATOM      9  C   UNL     1       7.030   3.422  11.790  0.00  0.00    +0.000 A 
ATOM     10  F   UNL     1       7.524   2.796  10.716  0.00  0.00    +0.000 F 
ATOM     11  C   UNL     1       7.776   4.419  12.409  0.00  0.00    +0.000 A 
ATOM     12  C   UNL     1       7.258   5.069  13.532  0.00  0.00    +0.000 A 
ENDBRANCH   3   6
BRANCH   1  13
ATOM     13  C   UNL     1       3.920   5.649  18.454  0.00  0.00    +0.000 C 
BRANCH  13  19
ATOM     14  C   UNL     1       3.050   3.444  19.422  0.00  0.00    +0.000 A 
ATOM     15  N   UNL     1       3.533   2.441  20.082  0.00  0.00    +0.000 NA
ATOM     16  O   UNL     1       4.929   2.664  20.176  0.00  0.00    +0.000 OA
ATOM     17  C   UNL     1       5.157   3.857  19.545  0.00  0.00    +0.000 A 
ATOM     18  O   UNL     1       6.252   4.389  19.458  0.00  0.00    +0.000 OA
ATOM     19  N   UNL     1       3.982   4.338  19.076  0.00  0.00    +0.000 N 
BRANCH  14  21
ATOM     20  C   UNL     1       1.351   4.237  17.741  0.00  0.00    +0.000 C 
ATOM     21  C   UNL     1       1.546   3.522  19.101  0.00  0.00    +0.000 C 
ATOM     22  C   UNL     1       0.834   4.336  20.189  0.00  0.00    +0.000 C 
ATOM     23  C   UNL     1       0.903   2.134  18.969  0.00  0.00    +0.000 C 
ENDBRANCH  14  21
ENDBRANCH  13  19
ENDBRANCH   1  13
TORSDOF 4
ENDMDL
MODEL 6
REMARK VINA RESULT:      -7.6      5.367      6.543
REMARK  Name = 
REMARK  7 active torsions:
REMARK  status: ('A' for Active; 'I' for Inactive)
REMARK    1  A    between atoms: C_1  and  C_2
REMARK    2  A    between atoms: C_2  and  C_3
REMARK    3  A    between atoms: C_2  and  C_4
REMARK    4  A    between atoms: C_2  and  C_5
REMARK    5  A    between atoms: N_10  and  C_11
REMARK    6  A    between atoms: C_11  and  C_12
REMARK    7  A    between atoms: C_14  and  C_15
REMARK                            x       y       z     vdW  Elec       q    Type
REMARK                         _______ _______ _______ _____ _____    ______ ____
ROOT
ATOM      1  C   UNL     1       5.850   4.372  18.040  0.00  0.00    +0.000 A 
ATOM      2  N   UNL     1       5.538   4.374  16.760  0.00  0.00    +0.000 NA
ATOM      3  C   UNL     1       6.773   4.438  16.142  0.00  0.00    +0.000 A 
ATOM      4  N   UNL     1       7.801   4.469  17.007  0.00  0.00    +0.000 NA
ATOM      5  O   UNL     1       7.194   4.427  18.259  0.00  0.00    +0.000 OA
ENDROOT
BRANCH   3   6
ATOM      6  C   UNL     1       6.935   4.492  14.687  0.00  0.00    +0.000 A 
ATOM      7  C   UNL     1       7.850   5.382  14.098  0.00  0.00    +0.000 A 
ATOM      8  C   UNL     1       7.999   5.435  12.706  0.00  0.00    +0.000 A 
ATOM      9  C   UNL     1       7.241   4.596  11.899  0.00  0.00    +0.000 A 
ATOM     10  F   UNL     1       7.387   4.648  10.570  0.00  0.00    +0.000 F 
ATOM     11  C   UNL     1       6.334   3.701  12.457  0.00  0.00    +0.000 A 
ATOM     12  C   UNL     1       6.182   3.652  13.845  0.00  0.00    +0.000 A 
ENDBRANCH   3   6
BRANCH   1  13
ATOM     13  C   UNL     1       4.967   4.482  19.237  0.00  0.00    +0.000 C 
BRANCH  13  19
ATOM     14  C   UNL     1       2.456   4.152  18.865  0.00  0.00    +0.000 A 
ATOM     15  N   UNL     1       1.466   4.843  18.399  0.00  0.00    +0.000 NA
ATOM     16  O   UNL     1       1.980   6.134  18.124  0.00  0.00    +0.000 OA
ATOM     17  C   UNL     1       3.307   6.083  18.453  0.00  0.00    +0.000 A 
ATOM     18  O   UNL     1       4.085   7.013  18.316  0.00  0.00    +0.000 OA
ATOM     19  N   UNL     1       3.597   4.844  18.915  0.00  0.00    +0.000 N 
BRANCH  14  21
ATOM     20  C   UNL     1       0.825   2.233  18.918  0.00  0.00    +0.000 C 
ATOM     21  C   UNL     1       2.254   2.690  19.304  0.00  0.00    +0.000 C 
ATOM     22  C   UNL     1       2.407   2.588  20.827  0.00  0.00    +0.000 C 
ATOM     23  C   UNL     1       3.228   1.729  18.606  0.00  0.00    +0.000 C 
ENDBRANCH  14  21
ENDBRANCH  13  19
ENDBRANCH   1  13
TORSDOF 4
ENDMDL
MODEL 7
REMARK VINA RESULT:      -7.6      5.495      6.955
REMARK  Name = 
REMARK  7 active torsions:
REMARK  status: ('A' for Active; 'I' for Inactive)
REMARK    1  A    between atoms: C_1  and  C_2
REMARK    2  A    between atoms: C_2  and  C_3
REMARK    3  A    between atoms: C_2  and  C_4
REMARK    4  A    between atoms: C_2  and  C_5
REMARK    5  A    between atoms: N_10  and  C_11
REMARK    6  A    between atoms: C_11  and  C_12
REMARK    7  A    between atoms: C_14  and  C_15
REMARK                            x       y       z     vdW  Elec       q    Type
REMARK                         _______ _______ _______ _____ _____    ______ ____
ROOT
ATOM      1  C   UNL     1       4.644   5.770  17.189  0.00  0.00    +0.000 A 
ATOM      2  N   UNL     1       5.115   4.803  16.428  0.00  0.00    +0.000 NA
ATOM      3  C   UNL     1       5.444   5.462  15.258  0.00  0.00    +0.000 A 
ATOM      4  N   UNL     1       5.189   6.781  15.301  0.00  0.00    +0.000 NA
ATOM      5  O   UNL     1       4.660   6.985  16.572  0.00  0.00    +0.000 OA
ENDROOT
BRANCH   3   6
ATOM      6  C   UNL     1       5.991   4.780  14.084  0.00  0.00    +0.000 A 
ATOM      7  C   UNL     1       7.270   5.099  13.597  0.00  0.00    +0.000 A 
ATOM      8  C   UNL     1       7.788   4.447  12.469  0.00  0.00    +0.000 A 
ATOM      9  C   UNL     1       7.035   3.471  11.831  0.00  0.00    +0.000 A 
ATOM     10  F   UNL     1       7.534   2.849  10.757  0.00  0.00    +0.000 F 
ATOM     11  C   UNL     1       5.770   3.130  12.298  0.00  0.00    +0.000 A 
ATOM     12  C   UNL     1       5.251   3.784  13.418  0.00  0.00    +0.000 A 
ENDBRANCH   3   6
BRANCH   1  13
ATOM     13  C   UNL     1       3.968   5.696  18.516  0.00  0.00    +0.000 C 
BRANCH  13  19
ATOM     14  C   UNL     1       3.090   3.473  19.433  0.00  0.00    +0.000 A 
ATOM     15  N   UNL     1       3.564   2.464  20.090  0.00  0.00    +0.000 NA
ATOM     16  O   UNL     1       4.955   2.694  20.221  0.00  0.00    +0.000 OA
ATOM     17  C   UNL     1       5.191   3.896  19.612  0.00  0.00    +0.000 A 
ATOM     18  O   UNL     1       6.284   4.437  19.558  0.00  0.00    +0.000 OA
ATOM     19  N   UNL     1       4.024   4.376  19.122  0.00  0.00    +0.000 N 
BRANCH  14  21
ATOM     20  C   UNL     1       0.848   4.347  20.173  0.00  0.00    +0.000 C 
ATOM     21  C   UNL     1       1.594   3.546  19.077  0.00  0.00    +0.000 C 
ATOM     22  C   UNL     1       1.012   2.128  19.024  0.00  0.00    +0.000 C 
ATOM     23  C   UNL     1       1.342   4.274  17.749  0.00  0.00    +0.000 C 
ENDBRANCH  14  21
ENDBRANCH  13  19
ENDBRANCH   1  13
TORSDOF 4
ENDMDL
MODEL 8
REMARK VINA RESULT:      -7.5      5.322      6.524
REMARK  Name = 
REMARK  7 active torsions:
REMARK  status: ('A' for Active; 'I' for Inactive)
REMARK    1  A    between atoms: C_1  and  C_2
REMARK    2  A    between atoms: C_2  and  C_3
REMARK    3  A    between atoms: C_2  and  C_4
REMARK    4  A    between atoms: C_2  and  C_5
REMARK    5  A    between atoms: N_10  and  C_11
REMARK    6  A    between atoms: C_11  and  C_12
REMARK    7  A    between atoms: C_14  and  C_15
REMARK                            x       y       z     vdW  Elec       q    Type
REMARK                         _______ _______ _______ _____ _____    ______ ____
ROOT
ATOM      1  C   UNL     1       5.875   4.591  18.009  0.00  0.00    +0.000 A 
ATOM      2  N   UNL     1       5.560   4.624  16.730  0.00  0.00    +0.000 NA
ATOM      3  C   UNL     1       6.789   4.528  16.106  0.00  0.00    +0.000 A 
ATOM      4  N   UNL     1       7.818   4.436  16.966  0.00  0.00    +0.000 NA
ATOM      5  O   UNL     1       7.217   4.479  18.221  0.00  0.00    +0.000 OA
ENDROOT
BRANCH   3   6
ATOM      6  C   UNL     1       6.949   4.552  14.650  0.00  0.00    +0.000 A 
ATOM      7  C   UNL     1       6.192   3.697  13.830  0.00  0.00    +0.000 A 
ATOM      8  C   UNL     1       6.352   3.720  12.437  0.00  0.00    +0.000 A 
ATOM      9  C   UNL     1       7.259   4.599  11.861  0.00  0.00    +0.000 A 
ATOM     10  F   UNL     1       7.406   4.619  10.531  0.00  0.00    +0.000 F 
ATOM     11  C   UNL     1       8.014   5.461  12.650  0.00  0.00    +0.000 A 
ATOM     12  C   UNL     1       7.859   5.435  14.038  0.00  0.00    +0.000 A 
ENDBRANCH   3   6
BRANCH   1  13
ATOM     13  C   UNL     1       5.020   4.819  19.209  0.00  0.00    +0.000 C 
BRANCH  13  19
ATOM     14  C   UNL     1       2.602   4.049  18.872  0.00  0.00    +0.000 A 
ATOM     15  N   UNL     1       1.502   4.549  18.408  0.00  0.00    +0.000 NA
ATOM     16  O   UNL     1       1.779   5.905  18.109  0.00  0.00    +0.000 OA
ATOM     17  C   UNL     1       3.098   6.092  18.422  0.00  0.00    +0.000 A 
ATOM     18  O   UNL     1       3.700   7.142  18.262  0.00  0.00    +0.000 OA
ATOM     19  N   UNL     1       3.605   4.931  18.898  0.00  0.00    +0.000 N 
BRANCH  14  21
ATOM     20  C   UNL     1       3.504   1.763  18.323  0.00  0.00    +0.000 C 
ATOM     21  C   UNL     1       2.663   2.582  19.334  0.00  0.00    +0.000 C 
ATOM     22  C   UNL     1       1.245   1.999  19.376  0.00  0.00    +0.000 C 
ATOM     23  C   UNL     1       3.343   2.426  20.702  0.00  0.00    +0.000 C 
ENDBRANCH  14  21
ENDBRANCH  13  19
ENDBRANCH   1  13
TORSDOF 4
ENDMDL
MODEL 9
REMARK VINA RESULT:      -7.4      4.496      6.496
REMARK  Name = 
REMARK  7 active torsions:
REMARK  status: ('A' for Active; 'I' for Inactive)
REMARK    1  A    between atoms: C_1  and  C_2
REMARK    2  A    between atoms: C_2  and  C_3
REMARK    3  A    between atoms: C_2  and  C_4
REMARK    4  A    between atoms: C_2  and  C_5
REMARK    5  A    between atoms: N_10  and  C_11
REMARK    6  A    between atoms: C_11  and  C_12
REMARK    7  A    between atoms: C_14  and  C_15
REMARK                            x       y       z     vdW  Elec       q    Type
REMARK                         _______ _______ _______ _____ _____    ______ ____
ROOT
ATOM      1  C   UNL     1       4.092   5.040  19.405  0.00  0.00    +0.000 A 
ATOM      2  N   UNL     1       3.874   6.339  19.425  0.00  0.00    +0.000 NA
ATOM      3  C   UNL     1       2.532   6.422  19.749  0.00  0.00    +0.000 A 
ATOM      4  N   UNL     1       1.952   5.222  19.925  0.00  0.00    +0.000 NA
ATOM      5  O   UNL     1       2.979   4.310  19.697  0.00  0.00    +0.000 OA
ENDROOT
BRANCH   3   6
ATOM      6  C   UNL     1       1.815   7.694  19.862  0.00  0.00    +0.000 A 
ATOM      7  C   UNL     1       1.748   8.580  18.773  0.00  0.00    +0.000 A 
ATOM      8  C   UNL     1       1.066   9.799  18.886  0.00  0.00    +0.000 A 
ATOM      9  C   UNL     1       0.443  10.132  20.082  0.00  0.00    +0.000 A 
ATOM     10  F   UNL     1      -0.209  11.296  20.185  0.00  0.00    +0.000 F 
ATOM     11  C   UNL     1       0.488   9.270  21.172  0.00  0.00    +0.000 A 
ATOM     12  C   UNL     1       1.173   8.057  21.061  0.00  0.00    +0.000 A 
ENDBRANCH   3   6
BRANCH   1  13
ATOM     13  C   UNL     1       5.298   4.283  18.962  0.00  0.00    +0.000 C 
BRANCH  13  19
ATOM     14  C   UNL     1       6.643   5.519  17.169  0.00  0.00    +0.000 A 
ATOM     15  N   UNL     1       7.754   6.179  17.102  0.00  0.00    +0.000 NA
ATOM     16  O   UNL     1       8.245   6.262  18.428  0.00  0.00    +0.000 OA
ATOM     17  C   UNL     1       7.341   5.588  19.201  0.00  0.00    +0.000 A 
ATOM     18  O   UNL     1       7.454   5.422  20.406  0.00  0.00    +0.000 OA
ATOM     19  N   UNL     1       6.343   5.128  18.411  0.00  0.00    +0.000 N 
BRANCH  14  21
ATOM     20  C   UNL     1       6.757   4.975  14.713  0.00  0.00    +0.000 C 
ATOM     21  C   UNL     1       5.807   5.260  15.902  0.00  0.00    +0.000 C 
ATOM     22  C   UNL     1       4.974   6.507  15.576  0.00  0.00    +0.000 C 
ATOM     23  C   UNL     1       4.895   4.033  16.043  0.00  0.00    +0.000 C 
ENDBRANCH  14  21
ENDBRANCH  13  19
ENDBRANCH   1  13
TORSDOF 4
ENDMDL
