MODEL 1
REMARK VINA RESULT:      -7.2      0.000      0.000
REMARK  Name = 
REMARK  6 active torsions:
REMARK  status: ('A' for Active; 'I' for Inactive)
REMARK    1  A    between atoms: C_1  and  O_2
REMARK    2  A    between atoms: O_2  and  C_3
REMARK    3  A    between atoms: N_7  and  C_8
REMARK    4  A    between atoms: N_7  and  C_9
REMARK    5  A    between atoms: N_14  and  C_15
REMARK    6  A    between atoms: C_15  and  C_16
REMARK                            x       y       z     vdW  Elec       q    Type
REMARK                         _______ _______ _______ _____ _____    ______ ____
ROOT
ATOM      1  C   UNL     1       2.213   6.055  20.194  0.00  0.00    +0.000 A 
ATOM      2  N   UNL     1       1.550   7.002  20.816  0.00  0.00    +0.000 NA
ATOM      3  C   UNL     1       1.574   8.092  19.962  0.00  0.00    +0.000 A 
ATOM      4  C   UNL     1       0.993   9.390  20.036  0.00  0.00    +0.000 A 
ATOM      5  N   UNL     1       0.287   9.913  21.110  0.00  0.00    +0.000 N 
ATOM      6  C   UNL     1       0.042   9.180  22.339  0.00  0.00    +0.000 C 
ATOM      7  C   UNL     1      -0.397  11.189  20.973  0.00  0.00    +0.000 C 
ATOM      8  N   UNL     1       1.173  10.180  18.929  0.00  0.00    +0.000 NA
ATOM      9  C   UNL     1       1.883   9.727  17.876  0.00  0.00    +0.000 A 
ATOM     10  N   UNL     1       2.489   8.539  17.731  0.00  0.00    +0.000 NA
ATOM     11  C   UNL     1       2.296   7.773  18.818  0.00  0.00    +0.000 A 
ATOM     12  N   UNL     1       2.748   6.493  19.012  0.00  0.00    +0.000 N 
ENDROOT
BRANCH   1  14
ATOM     13  C   UNL     1       1.120   4.034  20.461  0.00  0.00    +0.000 C 
ATOM     14  O   UNL     1       2.319   4.792  20.601  0.00  0.00    +0.000 OA
ENDBRANCH   1  14
BRANCH  12  15
ATOM     15  C   UNL     1       3.489   5.696  18.058  0.00  0.00    +0.000 C 
BRANCH  15  16
ATOM     16  C   UNL     1       4.982   5.911  18.142  0.00  0.00    +0.000 A 
ATOM     17  C   UNL     1       5.639   6.751  17.231  0.00  0.00    +0.000 A 
ATOM     18  C   UNL     1       7.006   7.007  17.360  0.00  0.00    +0.000 A 
ATOM     19  C   UNL     1       7.734   6.420  18.393  0.00  0.00    +0.000 A 
ATOM     20  C   UNL     1       7.100   5.562  19.288  0.00  0.00    +0.000 A 
ATOM     21  C   UNL     1       5.732   5.303  19.161  0.00  0.00    +0.000 A 
ENDBRANCH  15  16
ENDBRANCH  12  15
TORSDOF 3
ENDMDL
MODEL 2
REMARK VINA RESULT:      -7.1      0.088      1.056
REMARK  Name = 
REMARK  6 active torsions:
REMARK  status: ('A' for Active; 'I' for Inactive)
REMARK    1  A    between atoms: C_1  and  O_2
REMARK    2  A    between atoms: O_2  and  C_3
REMARK    3  A    between atoms: N_7  and  C_8
REMARK    4  A    between atoms: N_7  and  C_9
REMARK    5  A    between atoms: N_14  and  C_15
REMARK    6  A    between atoms: C_15  and  C_16
REMARK                            x       y       z     vdW  Elec       q    Type
REMARK                         _______ _______ _______ _____ _____    ______ ____
ROOT
ATOM      1  C   UNL     1       2.155   6.072  20.244  0.00  0.00    +0.000 A 
ATOM      2  N   UNL     1       1.482   7.019  20.857  0.00  0.00    +0.000 NA
ATOM      3  C   UNL     1       1.513   8.108  20.002  0.00  0.00    +0.000 A 
ATOM      4  C   UNL     1       0.928   9.405  20.068  0.00  0.00    +0.000 A 
ATOM      5  N   UNL     1       0.208   9.926  21.133  0.00  0.00    +0.000 N 
ATOM      6  C   UNL     1      -0.049   9.195  22.360  0.00  0.00    +0.000 C 
ATOM      7  C   UNL     1      -0.477  11.201  20.987  0.00  0.00    +0.000 C 
ATOM      8  N   UNL     1       1.120  10.194  18.963  0.00  0.00    +0.000 NA
ATOM      9  C   UNL     1       1.843   9.742  17.919  0.00  0.00    +0.000 A 
ATOM     10  N   UNL     1       2.454   8.555  17.782  0.00  0.00    +0.000 NA
ATOM     11  C   UNL     1       2.249   7.790  18.867  0.00  0.00    +0.000 A 
ATOM     12  N   UNL     1       2.702   6.511  19.067  0.00  0.00    +0.000 N 
ENDROOT
BRANCH   1  14
ATOM     13  C   UNL     1       1.082   4.033  20.446  0.00  0.00    +0.000 C 
ATOM     14  O   UNL     1       2.258   4.810  20.652  0.00  0.00    +0.000 OA
ENDBRANCH   1  14
BRANCH  12  15
ATOM     15  C   UNL     1       3.456   5.715  18.123  0.00  0.00    +0.000 C 
BRANCH  15  16
ATOM     16  C   UNL     1       4.946   5.948  18.211  0.00  0.00    +0.000 A 
ATOM     17  C   UNL     1       5.706   5.357  19.231  0.00  0.00    +0.000 A 
ATOM     18  C   UNL     1       7.094   5.513  19.264  0.00  0.00    +0.000 A 
ATOM     19  C   UNL     1       7.737   6.267  18.285  0.00  0.00    +0.000 A 
ATOM     20  C   UNL     1       6.992   6.882  17.281  0.00  0.00    +0.000 A 
ATOM     21  C   UNL     1       5.602   6.729  17.247  0.00  0.00    +0.000 A 
ENDBRANCH  15  16
ENDBRANCH  12  15
TORSDOF 3
ENDMDL
MODEL 3
REMARK VINA RESULT:      -6.8      2.993      6.605
REMARK  Name = 
REMARK  6 active torsions:
REMARK  status: ('A' for Active; 'I' for Inactive)
REMARK    1  A    between atoms: C_1  and  O_2
REMARK    2  A    between atoms: O_2  and  C_3
REMARK    3  A    between atoms: N_7  and  C_8
REMARK    4  A    between atoms: N_7  and  C_9
REMARK    5  A    between atoms: N_14  and  C_15
REMARK    6  A    between atoms: C_15  and  C_16
REMARK                            x       y       z     vdW  Elec       q    Type
REMARK                         _______ _______ _______ _____ _____    ______ ____
ROOT
ATOM      1  C   UNL     1       3.513   4.274  17.289  0.00  0.00    +0.000 A 
ATOM      2  N   UNL     1       4.205   4.126  16.183  0.00  0.00    +0.000 NA
ATOM      3  C   UNL     1       5.274   4.998  16.296  0.00  0.00    +0.000 A 
ATOM      4  C   UNL     1       6.396   5.264  15.459  0.00  0.00    +0.000 A 
ATOM      5  N   UNL     1       6.633   4.718  14.207  0.00  0.00    +0.000 N 
ATOM      6  C   UNL     1       5.737   3.774  13.563  0.00  0.00    +0.000 C 
ATOM      7  C   UNL     1       7.908   4.950  13.546  0.00  0.00    +0.000 C 
ATOM      8  N   UNL     1       7.307   6.157  15.963  0.00  0.00    +0.000 NA
ATOM      9  C   UNL     1       7.101   6.740  17.161  0.00  0.00    +0.000 A 
ATOM     10  N   UNL     1       6.065   6.576  17.998  0.00  0.00    +0.000 NA
ATOM     11  C   UNL     1       5.186   5.692  17.497  0.00  0.00    +0.000 A 
ATOM     12  N   UNL     1       4.025   5.263  18.087  0.00  0.00    +0.000 N 
ENDROOT
BRANCH   1  14
ATOM     13  C   UNL     1       2.801   2.164  17.914  0.00  0.00    +0.000 C 
ATOM     14  O   UNL     1       2.475   3.527  17.656  0.00  0.00    +0.000 OA
ENDBRANCH   1  14
BRANCH  12  15
ATOM     15  C   UNL     1       3.540   5.647  19.394  0.00  0.00    +0.000 C 
BRANCH  15  16
ATOM     16  C   UNL     1       2.665   6.878  19.361  0.00  0.00    +0.000 A 
ATOM     17  C   UNL     1       1.970   7.296  20.506  0.00  0.00    +0.000 A 
ATOM     18  C   UNL     1       1.223   8.477  20.492  0.00  0.00    +0.000 A 
ATOM     19  C   UNL     1       1.156   9.249  19.334  0.00  0.00    +0.000 A 
ATOM     20  C   UNL     1       1.819   8.832  18.182  0.00  0.00    +0.000 A 
ATOM     21  C   UNL     1       2.565   7.649  18.193  0.00  0.00    +0.000 A 
ENDBRANCH  15  16
ENDBRANCH  12  15
TORSDOF 3
ENDMDL
MODEL 4
REMARK VINA RESULT:      -6.7      3.470      5.495
REMARK  Name = 
REMARK  6 active torsions:
REMARK  status: ('A' for Active; 'I' for Inactive)
REMARK    1  A    between atoms: C_1  and  O_2
REMARK    2  A    between atoms: O_2  and  C_3
REMARK    3  A    between atoms: N_7  and  C_8
REMARK    4  A    between atoms: N_7  and  C_9
REMARK    5  A    between atoms: N_14  and  C_15
REMARK    6  A    between atoms: C_15  and  C_16
REMARK                            x       y       z     vdW  Elec       q    Type
REMARK                         _______ _______ _______ _____ _____    ______ ____
ROOT
ATOM      1  C   UNL     1       5.862   6.578  17.089  0.00  0.00    +0.000 A 
ATOM      2  N   UNL     1       4.794   6.832  17.811  0.00  0.00    +0.000 NA
ATOM      3  C   UNL     1       4.318   5.595  18.213  0.00  0.00    +0.000 A 
ATOM      4  C   UNL     1       3.233   5.203  19.048  0.00  0.00    +0.000 A 
ATOM      5  N   UNL     1       2.292   6.046  19.620  0.00  0.00    +0.000 N 
ATOM      6  C   UNL     1       2.289   7.486  19.434  0.00  0.00    +0.000 C 
ATOM      7  C   UNL     1       1.346   5.520  20.592  0.00  0.00    +0.000 C 
ATOM      8  N   UNL     1       3.128   3.856  19.283  0.00  0.00    +0.000 NA
ATOM      9  C   UNL     1       3.999   2.995  18.719  0.00  0.00    +0.000 A 
ATOM     10  N   UNL     1       5.026   3.268  17.899  0.00  0.00    +0.000 NA
ATOM     11  C   UNL     1       5.122   4.591  17.686  0.00  0.00    +0.000 A 
ATOM     12  N   UNL     1       6.062   5.234  16.922  0.00  0.00    +0.000 N 
ENDROOT
BRANCH   1  14
ATOM     13  C   UNL     1       7.640   7.974  17.580  0.00  0.00    +0.000 C 
ATOM     14  O   UNL     1       6.708   7.490  16.617  0.00  0.00    +0.000 OA
ENDBRANCH   1  14
BRANCH  12  15
ATOM     15  C   UNL     1       7.170   4.611  16.230  0.00  0.00    +0.000 C 
BRANCH  15  16
ATOM     16  C   UNL     1       6.949   4.504  14.739  0.00  0.00    +0.000 A 
ATOM     17  C   UNL     1       7.773   5.196  13.840  0.00  0.00    +0.000 A 
ATOM     18  C   UNL     1       7.614   5.034  12.461  0.00  0.00    +0.000 A 
ATOM     19  C   UNL     1       6.626   4.187  11.965  0.00  0.00    +0.000 A 
ATOM     20  C   UNL     1       5.782   3.514  12.847  0.00  0.00    +0.000 A 
ATOM     21  C   UNL     1       5.938   3.676  14.227  0.00  0.00    +0.000 A 
ENDBRANCH  15  16
ENDBRANCH  12  15
TORSDOF 3
ENDMDL
MODEL 5
REMARK VINA RESULT:      -6.6      3.116      6.599
REMARK  Name = 
REMARK  6 active torsions:
REMARK  status: ('A' for Active; 'I' for Inactive)
REMARK    1  A    between atoms: C_1  and  O_2
REMARK    2  A    between atoms: O_2  and  C_3
REMARK    3  A    between atoms: N_7  and  C_8
REMARK    4  A    between atoms: N_7  and  C_9
REMARK    5  A    between atoms: N_14  and  C_15
REMARK    6  A    between atoms: C_15  and  C_16
REMARK                            x       y       z     vdW  Elec       q    Type
REMARK                         _______ _______ _______ _____ _____    ______ ____
ROOT
ATOM      1  C   UNL     1       3.591   4.011  17.126  0.00  0.00    +0.000 A 
ATOM      2  N   UNL     1       4.297   3.924  16.021  0.00  0.00    +0.000 NA
ATOM      3  C   UNL     1       5.339   4.822  16.177  0.00  0.00    +0.000 A 
ATOM      4  C   UNL     1       6.460   5.151  15.362  0.00  0.00    +0.000 A 
ATOM      5  N   UNL     1       6.725   4.658  14.093  0.00  0.00    +0.000 N 
ATOM      6  C   UNL     1       5.863   3.713  13.406  0.00  0.00    +0.000 C 
ATOM      7  C   UNL     1       7.999   4.951  13.455  0.00  0.00    +0.000 C 
ATOM      8  N   UNL     1       7.340   6.050  15.908  0.00  0.00    +0.000 NA
ATOM      9  C   UNL     1       7.106   6.583  17.124  0.00  0.00    +0.000 A 
ATOM     10  N   UNL     1       6.068   6.359  17.944  0.00  0.00    +0.000 NA
ATOM     11  C   UNL     1       5.220   5.468  17.402  0.00  0.00    +0.000 A 
ATOM     12  N   UNL     1       4.067   4.985  17.964  0.00  0.00    +0.000 N 
ENDROOT
BRANCH   1  14
ATOM     13  C   UNL     1       2.962   1.938  17.935  0.00  0.00    +0.000 C 
ATOM     14  O   UNL     1       2.572   3.222  17.455  0.00  0.00    +0.000 OA
ENDBRANCH   1  14
BRANCH  12  15
ATOM     15  C   UNL     1       3.559   5.307  19.280  0.00  0.00    +0.000 C 
BRANCH  15  16
ATOM     16  C   UNL     1       2.799   6.612  19.316  0.00  0.00    +0.000 A 
ATOM     17  C   UNL     1       2.716   7.426  18.176  0.00  0.00    +0.000 A 
ATOM     18  C   UNL     1       1.948   8.594  18.192  0.00  0.00    +0.000 A 
ATOM     19  C   UNL     1       1.263   8.966  19.347  0.00  0.00    +0.000 A 
ATOM     20  C   UNL     1       1.360   8.181  20.494  0.00  0.00    +0.000 A 
ATOM     21  C   UNL     1       2.128   7.013  20.481  0.00  0.00    +0.000 A 
ENDBRANCH  15  16
ENDBRANCH  12  15
TORSDOF 3
ENDMDL
MODEL 6
REMARK VINA RESULT:      -6.4      3.392      5.458
REMARK  Name = 
REMARK  6 active torsions:
REMARK  status: ('A' for Active; 'I' for Inactive)
REMARK    1  A    between atoms: C_1  and  O_2
REMARK    2  A    between atoms: O_2  and  C_3
REMARK    3  A    between atoms: N_7  and  C_8
REMARK    4  A    between atoms: N_7  and  C_9
REMARK    5  A    between atoms: N_14  and  C_15
REMARK    6  A    between atoms: C_15  and  C_16
REMARK                            x       y       z     vdW  Elec       q    Type
REMARK                         _______ _______ _______ _____ _____    ______ ____
ROOT
ATOM      1  C   UNL     1       5.850   6.591  17.135  0.00  0.00    +0.000 A 
ATOM      2  N   UNL     1       4.778   6.875  17.837  0.00  0.00    +0.000 NA
ATOM      3  C   UNL     1       4.324   5.661  18.324  0.00  0.00    +0.000 A 
ATOM      4  C   UNL     1       3.245   5.309  19.185  0.00  0.00    +0.000 A 
ATOM      5  N   UNL     1       2.288   6.172  19.697  0.00  0.00    +0.000 N 
ATOM      6  C   UNL     1       2.260   7.595  19.411  0.00  0.00    +0.000 C 
ATOM      7  C   UNL     1       1.350   5.698  20.703  0.00  0.00    +0.000 C 
ATOM      8  N   UNL     1       3.164   3.979  19.514  0.00  0.00    +0.000 NA
ATOM      9  C   UNL     1       4.051   3.097  19.011  0.00  0.00    +0.000 A 
ATOM     10  N   UNL     1       5.073   3.331  18.174  0.00  0.00    +0.000 NA
ATOM     11  C   UNL     1       5.146   4.637  17.869  0.00  0.00    +0.000 A 
ATOM     12  N   UNL     1       6.075   5.242  17.062  0.00  0.00    +0.000 N 
ENDROOT
BRANCH   1  14
ATOM     13  C   UNL     1       7.624   8.025  17.519  0.00  0.00    +0.000 C 
ATOM     14  O   UNL     1       6.680   7.483  16.600  0.00  0.00    +0.000 OA
ENDBRANCH   1  14
BRANCH  12  15
ATOM     15  C   UNL     1       7.195   4.593  16.414  0.00  0.00    +0.000 C 
BRANCH  15  16
ATOM     16  C   UNL     1       7.011   4.450  14.922  0.00  0.00    +0.000 A 
ATOM     17  C   UNL     1       6.005   3.625  14.398  0.00  0.00    +0.000 A 
ATOM     18  C   UNL     1       5.789   3.555  13.019  0.00  0.00    +0.000 A 
ATOM     19  C   UNL     1       6.581   4.301  12.148  0.00  0.00    +0.000 A 
ATOM     20  C   UNL     1       7.602   5.104  12.653  0.00  0.00    +0.000 A 
ATOM     21  C   UNL     1       7.821   5.173  14.032  0.00  0.00    +0.000 A 
ENDBRANCH  15  16
ENDBRANCH  12  15
TORSDOF 3
ENDMDL
MODEL 7
REMARK VINA RESULT:      -6.4      1.508      1.906
REMARK  Name = 
REMARK  6 active torsions:
REMARK  status: ('A' for Active; 'I' for Inactive)
REMARK    1  A    between atoms: C_1  and  O_2
REMARK    2  A    between atoms: O_2  and  C_3
REMARK    3  A    between atoms: N_7  and  C_8
REMARK    4  A    between atoms: N_7  and  C_9
REMARK    5  A    between atoms: N_14  and  C_15
REMARK    6  A    between atoms: C_15  and  C_16
REMARK                            x       y       z     vdW  Elec       q    Type
REMARK                         _______ _______ _______ _____ _____    ______ ____
ROOT
ATOM      1  C   UNL     1       2.473   4.848  20.619  0.00  0.00    +0.000 A 
ATOM      2  N   UNL     1       1.979   5.997  21.021  0.00  0.00    +0.000 NA
ATOM      3  C   UNL     1       2.125   6.858  19.946  0.00  0.00    +0.000 A 
ATOM      4  C   UNL     1       1.742   8.213  19.736  0.00  0.00    +0.000 A 
ATOM      5  N   UNL     1       1.164   9.057  20.672  0.00  0.00    +0.000 N 
ATOM      6  C   UNL     1       0.867   8.656  22.035  0.00  0.00    +0.000 C 
ATOM      7  C   UNL     1       0.667  10.361  20.262  0.00  0.00    +0.000 C 
ATOM      8  N   UNL     1       1.989   8.707  18.480  0.00  0.00    +0.000 NA
ATOM      9  C   UNL     1       2.582   7.935  17.548  0.00  0.00    +0.000 A 
ATOM     10  N   UNL     1       3.004   6.666  17.665  0.00  0.00    +0.000 NA
ATOM     11  C   UNL     1       2.746   6.193  18.895  0.00  0.00    +0.000 A 
ATOM     12  N   UNL     1       3.016   4.933  19.365  0.00  0.00    +0.000 N 
ENDROOT
BRANCH   1  14
ATOM     13  C   UNL     1       1.199   2.978  21.100  0.00  0.00    +0.000 C 
ATOM     14  O   UNL     1       2.411   3.703  21.294  0.00  0.00    +0.000 OA
ENDBRANCH   1  14
BRANCH  12  15
ATOM     15  C   UNL     1       3.594   3.845  18.605  0.00  0.00    +0.000 C 
BRANCH  15  16
ATOM     16  C   UNL     1       4.919   4.204  17.974  0.00  0.00    +0.000 A 
ATOM     17  C   UNL     1       5.983   4.675  18.758  0.00  0.00    +0.000 A 
ATOM     18  C   UNL     1       7.230   4.932  18.183  0.00  0.00    +0.000 A 
ATOM     19  C   UNL     1       7.426   4.732  16.818  0.00  0.00    +0.000 A 
ATOM     20  C   UNL     1       6.370   4.291  16.023  0.00  0.00    +0.000 A 
ATOM     21  C   UNL     1       5.121   4.035  16.596  0.00  0.00    +0.000 A 
ENDBRANCH  15  16
ENDBRANCH  12  15
TORSDOF 3
ENDMDL
MODEL 8
REMARK VINA RESULT:      -6.3      1.510      1.729
REMARK  Name = 
REMARK  6 active torsions:
REMARK  status: ('A' for Active; 'I' for Inactive)
REMARK    1  A    between atoms: C_1  and  O_2
REMARK    2  A    between atoms: O_2  and  C_3
REMARK    3  A    between atoms: N_7  and  C_8
REMARK    4  A    between atoms: N_7  and  C_9
REMARK    5  A    between atoms: N_14  and  C_15
REMARK    6  A    between atoms: C_15  and  C_16
REMARK                            x       y       z     vdW  Elec       q    Type
REMARK                         _______ _______ _______ _____ _____    ______ ____
ROOT
ATOM      1  C   UNL     1       2.462   4.825  20.503  0.00  0.00    +0.000 A 
ATOM      2  N   UNL     1       1.995   5.974  20.935  0.00  0.00    +0.000 NA
ATOM      3  C   UNL     1       2.147   6.855  19.877  0.00  0.00    +0.000 A 
ATOM      4  C   UNL     1       1.788   8.222  19.700  0.00  0.00    +0.000 A 
ATOM      5  N   UNL     1       1.237   9.057  20.660  0.00  0.00    +0.000 N 
ATOM      6  C   UNL     1       0.947   8.632  22.018  0.00  0.00    +0.000 C 
ATOM      7  C   UNL     1       0.762  10.378  20.283  0.00  0.00    +0.000 C 
ATOM      8  N   UNL     1       2.032   8.737  18.452  0.00  0.00    +0.000 NA
ATOM      9  C   UNL     1       2.599   7.974  17.497  0.00  0.00    +0.000 A 
ATOM     10  N   UNL     1       2.997   6.695  17.582  0.00  0.00    +0.000 NA
ATOM     11  C   UNL     1       2.743   6.200  18.806  0.00  0.00    +0.000 A 
ATOM     12  N   UNL     1       2.993   4.926  19.245  0.00  0.00    +0.000 N 
ENDROOT
BRANCH   1  14
ATOM     13  C   UNL     1       1.112   3.031  21.063  0.00  0.00    +0.000 C 
ATOM     14  O   UNL     1       2.384   3.667  21.154  0.00  0.00    +0.000 OA
ENDBRANCH   1  14
BRANCH  12  15
ATOM     15  C   UNL     1       3.541   3.844  18.456  0.00  0.00    +0.000 C 
BRANCH  15  16
ATOM     16  C   UNL     1       4.909   4.155  17.896  0.00  0.00    +0.000 A 
ATOM     17  C   UNL     1       5.191   3.955  16.537  0.00  0.00    +0.000 A 
ATOM     18  C   UNL     1       6.433   4.316  16.008  0.00  0.00    +0.000 A 
ATOM     19  C   UNL     1       7.410   4.872  16.832  0.00  0.00    +0.000 A 
ATOM     20  C   UNL     1       7.152   5.051  18.190  0.00  0.00    +0.000 A 
ATOM     21  C   UNL     1       5.911   4.689  18.721  0.00  0.00    +0.000 A 
ENDBRANCH  15  16
ENDBRANCH  12  15
TORSDOF 3
ENDMDL
MODEL 9
REMARK VINA RESULT:      -6.3      3.563      6.891
REMARK  Name = 
REMARK  6 active torsions:
REMARK  status: ('A' for Active; 'I' for Inactive)
REMARK    1  A    between atoms: C_1  and  O_2
REMARK    2  A    between atoms: O_2  and  C_3
REMARK    3  A    between atoms: N_7  and  C_8
REMARK    4  A    between atoms: N_7  and  C_9
REMARK    5  A    between atoms: N_14  and  C_15
REMARK    6  A    between atoms: C_15  and  C_16
REMARK                            x       y       z     vdW  Elec       q    Type
REMARK                         _______ _______ _______ _____ _____    ______ ____
ROOT
ATOM      1  C   UNL     1       4.546   3.193  17.317  0.00  0.00    +0.000 A 
ATOM      2  N   UNL     1       5.037   3.338  16.107  0.00  0.00    +0.000 NA
ATOM      3  C   UNL     1       5.915   4.406  16.191  0.00  0.00    +0.000 A 
ATOM      4  C   UNL     1       6.788   5.014  15.244  0.00  0.00    +0.000 A 
ATOM      5  N   UNL     1       6.894   4.690  13.899  0.00  0.00    +0.000 N 
ATOM      6  C   UNL     1       6.101   3.656  13.260  0.00  0.00    +0.000 C 
ATOM      7  C   UNL     1       7.954   5.278  13.095  0.00  0.00    +0.000 C 
ATOM      8  N   UNL     1       7.580   6.020  15.735  0.00  0.00    +0.000 NA
ATOM      9  C   UNL     1       7.486   6.393  17.027  0.00  0.00    +0.000 A 
ATOM     10  N   UNL     1       6.676   5.902  17.978  0.00  0.00    +0.000 NA
ATOM     11  C   UNL     1       5.913   4.912  17.485  0.00  0.00    +0.000 A 
ATOM     12  N   UNL     1       4.989   4.166  18.171  0.00  0.00    +0.000 N 
ENDROOT
BRANCH   1  14
ATOM     13  C   UNL     1       2.370   2.442  17.545  0.00  0.00    +0.000 C 
ATOM     14  O   UNL     1       3.763   2.194  17.717  0.00  0.00    +0.000 OA
ENDBRANCH   1  14
BRANCH  12  15
ATOM     15  C   UNL     1       4.687   4.272  19.582  0.00  0.00    +0.000 C 
BRANCH  15  16
ATOM     16  C   UNL     1       3.466   5.117  19.863  0.00  0.00    +0.000 A 
ATOM     17  C   UNL     1       2.418   4.623  20.654  0.00  0.00    +0.000 A 
ATOM     18  C   UNL     1       1.327   5.435  20.975  0.00  0.00    +0.000 A 
ATOM     19  C   UNL     1       1.265   6.744  20.501  0.00  0.00    +0.000 A 
ATOM     20  C   UNL     1       2.285   7.237  19.691  0.00  0.00    +0.000 A 
ATOM     21  C   UNL     1       3.377   6.427  19.368  0.00  0.00    +0.000 A 
ENDBRANCH  15  16
ENDBRANCH  12  15
TORSDOF 3
ENDMDL
