MODEL 1
REMARK VINA RESULT:      -6.7      0.000      0.000
REMARK  Name = 
REMARK  7 active torsions:
REMARK  status: ('A' for Active; 'I' for Inactive)
REMARK    1  A    between atoms: C_1  and  S_2
REMARK    2  A    between atoms: S_2  and  C_3
REMARK    3  A    between atoms: C_11  and  C_12
REMARK    4  A    between atoms: C_12  and  N_13
REMARK    5  A    between atoms: N_13  and  C_14
REMARK    6  A    between atoms: C_17  and  O_18
REMARK    7  A    between atoms: C_19  and  O_20
REMARK                            x       y       z     vdW  Elec       q    Type
REMARK                         _______ _______ _______ _____ _____    ______ ____
ROOT
ATOM      1  C   UNL     1       5.204   6.306  17.809  0.00  0.00    +0.000 C 
ATOM      2  N   UNL     1       6.052   7.515  18.022  0.00  0.00    +0.000 NA
ATOM      3  C   UNL     1       7.182   7.584  17.401  0.00  0.00    +0.000 C 
ATOM      4  N   UNL     1       8.002   8.645  17.622  0.00  0.00    +0.000 N 
ATOM      5  N   UNL     1       7.693   6.695  16.494  0.00  0.00    +0.000 N 
ATOM      6  C   UNL     1       6.952   5.631  16.163  0.00  0.00    +0.000 A 
ATOM      7  N   UNL     1       7.264   4.648  15.277  0.00  0.00    +0.000 N 
ATOM      8  C   UNL     1       6.218   3.758  15.248  0.00  0.00    +0.000 A 
ATOM      9  C   UNL     1       5.240   4.162  16.150  0.00  0.00    +0.000 A 
ATOM     10  C   UNL     1       5.723   5.386  16.723  0.00  0.00    +0.000 A 
ATOM     11  H   UNL     1       7.514   9.344  18.174  0.00  0.00    +0.000 HD
ATOM     12  H   UNL     1       8.388   9.055  16.783  0.00  0.00    +0.000 HD
ATOM     13  H   UNL     1       8.668   6.795  16.240  0.00  0.00    +0.000 HD
ATOM     14  H   UNL     1       8.110   4.586  14.729  0.00  0.00    +0.000 HD
ENDROOT
BRANCH   1  16
ATOM     15  C   UNL     1       2.906   6.518  19.381  0.00  0.00    +0.000 C 
ATOM     16  S   UNL     1       3.406   6.660  17.658  0.00  0.00    +0.000 S 
ENDBRANCH   1  16
BRANCH   9  17
ATOM     17  C   UNL     1       3.914   3.530  16.458  0.00  0.00    +0.000 C 
BRANCH  17  18
ATOM     18  N   UNL     1       4.015   2.553  17.549  0.00  0.00    +0.000 NA
ATOM     19  H   UNL     1       5.003   2.482  17.783  0.00  0.00    +0.000 HD
BRANCH  18  20
ATOM     20  C   UNL     1       3.283   3.054  18.719  0.00  0.00    +0.000 C 
ATOM     21  C   UNL     1       2.007   2.297  18.935  0.00  0.00    +0.000 C 
ATOM     22  C   UNL     1       1.730   2.141  20.236  0.00  0.00    +0.000 C 
ATOM     23  C   UNL     1       2.797   2.717  21.114  0.00  0.00    +0.000 C 
ATOM     24  C   UNL     1       3.967   2.934  20.122  0.00  0.00    +0.000 C 
BRANCH  23  25
ATOM     25  O   UNL     1       2.324   3.921  21.691  0.00  0.00    +0.000 OA
ATOM     26  H   UNL     1       2.886   4.651  21.381  0.00  0.00    +0.000 HD
ENDBRANCH  23  25
BRANCH  24  27
ATOM     27  O   UNL     1       4.876   1.818  20.168  0.00  0.00    +0.000 OA
ATOM     28  H   UNL     1       5.605   2.059  20.765  0.00  0.00    +0.000 HD
ENDBRANCH  24  27
ENDBRANCH  18  20
ENDBRANCH  17  18
ENDBRANCH   9  17
TORSDOF 6
ENDMDL
MODEL 2
REMARK VINA RESULT:      -6.6      3.774      6.341
REMARK  Name = 
REMARK  7 active torsions:
REMARK  status: ('A' for Active; 'I' for Inactive)
REMARK    1  A    between atoms: C_1  and  S_2
REMARK    2  A    between atoms: S_2  and  C_3
REMARK    3  A    between atoms: C_11  and  C_12
REMARK    4  A    between atoms: C_12  and  N_13
REMARK    5  A    between atoms: N_13  and  C_14
REMARK    6  A    between atoms: C_17  and  O_18
REMARK    7  A    between atoms: C_19  and  O_20
REMARK                            x       y       z     vdW  Elec       q    Type
REMARK                         _______ _______ _______ _____ _____    ______ ____
ROOT
ATOM      1  C   UNL     1       2.340   3.894  19.143  0.00  0.00    +0.000 C 
ATOM      2  N   UNL     1       2.727   2.454  19.085  0.00  0.00    +0.000 NA
ATOM      3  C   UNL     1       3.673   2.111  18.275  0.00  0.00    +0.000 C 
ATOM      4  N   UNL     1       4.006   0.798  18.157  0.00  0.00    +0.000 N 
ATOM      5  N   UNL     1       4.434   2.928  17.483  0.00  0.00    +0.000 N 
ATOM      6  C   UNL     1       4.225   4.248  17.549  0.00  0.00    +0.000 A 
ATOM      7  N   UNL     1       4.879   5.224  16.865  0.00  0.00    +0.000 N 
ATOM      8  C   UNL     1       4.343   6.433  17.239  0.00  0.00    +0.000 A 
ATOM      9  C   UNL     1       3.312   6.222  18.148  0.00  0.00    +0.000 A 
ATOM     10  C   UNL     1       3.259   4.802  18.351  0.00  0.00    +0.000 A 
ATOM     11  H   UNL     1       3.526   0.259  18.873  0.00  0.00    +0.000 HD
ATOM     12  H   UNL     1       5.000   0.618  18.176  0.00  0.00    +0.000 HD
ATOM     13  H   UNL     1       5.002   2.489  16.770  0.00  0.00    +0.000 HD
ATOM     14  H   UNL     1       5.633   5.089  16.207  0.00  0.00    +0.000 HD
ENDROOT
BRANCH   1  16
ATOM     15  C   UNL     1       1.663   2.966  21.689  0.00  0.00    +0.000 C 
ATOM     16  S   UNL     1       1.995   4.517  20.839  0.00  0.00    +0.000 S 
ENDBRANCH   1  16
BRANCH   9  17
ATOM     17  C   UNL     1       2.445   7.226  18.849  0.00  0.00    +0.000 C 
BRANCH  17  18
ATOM     18  N   UNL     1       2.214   8.419  18.025  0.00  0.00    +0.000 NA
ATOM     19  H   UNL     1       1.956   8.085  17.099  0.00  0.00    +0.000 HD
BRANCH  18  20
ATOM     20  C   UNL     1       1.094   9.185  18.584  0.00  0.00    +0.000 C 
ATOM     21  C   UNL     1       1.155   9.235  20.082  0.00  0.00    +0.000 C 
ATOM     22  C   UNL     1       0.729  10.410  20.563  0.00  0.00    +0.000 C 
ATOM     23  C   UNL     1       0.362  11.368  19.472  0.00  0.00    +0.000 C 
ATOM     24  C   UNL     1       0.985  10.704  18.219  0.00  0.00    +0.000 C 
BRANCH  23  25
ATOM     25  O   UNL     1      -1.049  11.475  19.403  0.00  0.00    +0.000 OA
ATOM     26  H   UNL     1      -1.333  11.212  18.512  0.00  0.00    +0.000 HD
ENDBRANCH  23  25
BRANCH  24  27
ATOM     27  O   UNL     1       2.280  11.270  17.944  0.00  0.00    +0.000 OA
ATOM     28  H   UNL     1       2.928  10.804  18.501  0.00  0.00    +0.000 HD
ENDBRANCH  24  27
ENDBRANCH  18  20
ENDBRANCH  17  18
ENDBRANCH   9  17
TORSDOF 6
ENDMDL
MODEL 3
REMARK VINA RESULT:      -6.5      3.366      6.088
REMARK  Name = 
REMARK  7 active torsions:
REMARK  status: ('A' for Active; 'I' for Inactive)
REMARK    1  A    between atoms: C_1  and  S_2
REMARK    2  A    between atoms: S_2  and  C_3
REMARK    3  A    between atoms: C_11  and  C_12
REMARK    4  A    between atoms: C_12  and  N_13
REMARK    5  A    between atoms: N_13  and  C_14
REMARK    6  A    between atoms: C_17  and  O_18
REMARK    7  A    between atoms: C_19  and  O_20
REMARK                            x       y       z     vdW  Elec       q    Type
REMARK                         _______ _______ _______ _____ _____    ______ ____
ROOT
ATOM      1  C   UNL     1       1.948   3.625  18.883  0.00  0.00    +0.000 C 
ATOM      2  N   UNL     1       2.425   2.213  18.814  0.00  0.00    +0.000 NA
ATOM      3  C   UNL     1       3.620   1.995  18.374  0.00  0.00    +0.000 C 
ATOM      4  N   UNL     1       4.060   0.716  18.245  0.00  0.00    +0.000 N 
ATOM      5  N   UNL     1       4.559   2.922  18.011  0.00  0.00    +0.000 N 
ATOM      6  C   UNL     1       4.253   4.219  18.139  0.00  0.00    +0.000 A 
ATOM      7  N   UNL     1       5.043   5.288  17.853  0.00  0.00    +0.000 N 
ATOM      8  C   UNL     1       4.329   6.427  18.133  0.00  0.00    +0.000 A 
ATOM      9  C   UNL     1       3.056   6.081  18.573  0.00  0.00    +0.000 A 
ATOM     10  C   UNL     1       3.028   4.646  18.586  0.00  0.00    +0.000 A 
ATOM     11  H   UNL     1       3.392   0.080  18.672  0.00  0.00    +0.000 HD
ATOM     12  H   UNL     1       4.990   0.557  18.608  0.00  0.00    +0.000 HD
ATOM     13  H   UNL     1       5.374   2.589  17.512  0.00  0.00    +0.000 HD
ATOM     14  H   UNL     1       5.991   5.253  17.507  0.00  0.00    +0.000 HD
ENDROOT
BRANCH   1  16
ATOM     15  C   UNL     1       1.684   2.844  21.551  0.00  0.00    +0.000 C 
ATOM     16  S   UNL     1       0.973   4.023  20.390  0.00  0.00    +0.000 S 
ENDBRANCH   1  16
BRANCH   9  17
ATOM     17  C   UNL     1       1.929   6.969  19.012  0.00  0.00    +0.000 C 
BRANCH  17  18
ATOM     18  N   UNL     1       1.958   7.214  20.459  0.00  0.00    +0.000 NA
ATOM     19  H   UNL     1       2.912   7.032  20.764  0.00  0.00    +0.000 HD
BRANCH  18  20
ATOM     20  C   UNL     1       1.637   8.623  20.719  0.00  0.00    +0.000 C 
ATOM     21  C   UNL     1       1.203   9.328  19.468  0.00  0.00    +0.000 C 
ATOM     22  C   UNL     1       0.247  10.234  19.709  0.00  0.00    +0.000 C 
ATOM     23  C   UNL     1      -0.164  10.254  21.148  0.00  0.00    +0.000 C 
ATOM     24  C   UNL     1       0.451   8.940  21.691  0.00  0.00    +0.000 C 
BRANCH  23  25
ATOM     25  O   UNL     1       0.365  11.415  21.765  0.00  0.00    +0.000 OA
ATOM     26  H   UNL     1      -0.371  12.011  21.978  0.00  0.00    +0.000 HD
ENDBRANCH  23  25
BRANCH  24  27
ATOM     27  O   UNL     1      -0.531   7.887  21.681  0.00  0.00    +0.000 OA
ATOM     28  H   UNL     1      -0.188   7.172  21.117  0.00  0.00    +0.000 HD
ENDBRANCH  24  27
ENDBRANCH  18  20
ENDBRANCH  17  18
ENDBRANCH   9  17
TORSDOF 6
ENDMDL
MODEL 4
REMARK VINA RESULT:      -6.5      3.042      6.231
REMARK  Name = 
REMARK  7 active torsions:
REMARK  status: ('A' for Active; 'I' for Inactive)
REMARK    1  A    between atoms: C_1  and  S_2
REMARK    2  A    between atoms: S_2  and  C_3
REMARK    3  A    between atoms: C_11  and  C_12
REMARK    4  A    between atoms: C_12  and  N_13
REMARK    5  A    between atoms: N_13  and  C_14
REMARK    6  A    between atoms: C_17  and  O_18
REMARK    7  A    between atoms: C_19  and  O_20
REMARK                            x       y       z     vdW  Elec       q    Type
REMARK                         _______ _______ _______ _____ _____    ______ ____
ROOT
ATOM      1  C   UNL     1       3.158   4.169  19.090  0.00  0.00    +0.000 C 
ATOM      2  N   UNL     1       2.830   3.146  20.126  0.00  0.00    +0.000 NA
ATOM      3  C   UNL     1       2.316   3.551  21.240  0.00  0.00    +0.000 C 
ATOM      4  N   UNL     1       2.062   2.648  22.224  0.00  0.00    +0.000 N 
ATOM      5  N   UNL     1       1.963   4.828  21.582  0.00  0.00    +0.000 N 
ATOM      6  C   UNL     1       2.126   5.796  20.674  0.00  0.00    +0.000 A 
ATOM      7  N   UNL     1       1.825   7.115  20.806  0.00  0.00    +0.000 N 
ATOM      8  C   UNL     1       2.154   7.744  19.630  0.00  0.00    +0.000 A 
ATOM      9  C   UNL     1       2.702   6.820  18.747  0.00  0.00    +0.000 A 
ATOM     10  C   UNL     1       2.663   5.559  19.433  0.00  0.00    +0.000 A 
ATOM     11  H   UNL     1       2.193   1.706  21.865  0.00  0.00    +0.000 HD
ATOM     12  H   UNL     1       1.153   2.747  22.654  0.00  0.00    +0.000 HD
ATOM     13  H   UNL     1       1.750   5.008  22.556  0.00  0.00    +0.000 HD
ATOM     14  H   UNL     1       1.420   7.556  21.620  0.00  0.00    +0.000 HD
ENDROOT
BRANCH   1  16
ATOM     15  C   UNL     1       2.660   1.875  17.576  0.00  0.00    +0.000 C 
ATOM     16  S   UNL     1       2.753   3.661  17.370  0.00  0.00    +0.000 S 
ENDBRANCH   1  16
BRANCH   9  17
ATOM     17  C   UNL     1       3.192   7.023  17.343  0.00  0.00    +0.000 C 
BRANCH  17  18
ATOM     18  N   UNL     1       4.606   7.414  17.309  0.00  0.00    +0.000 NA
ATOM     19  H   UNL     1       4.812   7.836  18.212  0.00  0.00    +0.000 HD
BRANCH  18  20
ATOM     20  C   UNL     1       5.437   6.214  17.146  0.00  0.00    +0.000 C 
ATOM     21  C   UNL     1       5.310   5.641  15.766  0.00  0.00    +0.000 C 
ATOM     22  C   UNL     1       6.467   5.130  15.326  0.00  0.00    +0.000 C 
ATOM     23  C   UNL     1       7.579   5.320  16.309  0.00  0.00    +0.000 C 
ATOM     24  C   UNL     1       6.989   6.369  17.285  0.00  0.00    +0.000 C 
BRANCH  23  25
ATOM     25  O   UNL     1       7.866   4.079  16.931  0.00  0.00    +0.000 OA
ATOM     26  H   UNL     1       7.854   4.209  17.894  0.00  0.00    +0.000 HD
ENDBRANCH  23  25
BRANCH  24  27
ATOM     27  O   UNL     1       7.419   7.692  16.917  0.00  0.00    +0.000 OA
ATOM     28  H   UNL     1       7.731   7.654  15.996  0.00  0.00    +0.000 HD
ENDBRANCH  24  27
ENDBRANCH  18  20
ENDBRANCH  17  18
ENDBRANCH   9  17
TORSDOF 6
ENDMDL
MODEL 5
REMARK VINA RESULT:      -6.4      1.910      2.719
REMARK  Name = 
REMARK  7 active torsions:
REMARK  status: ('A' for Active; 'I' for Inactive)
REMARK    1  A    between atoms: C_1  and  S_2
REMARK    2  A    between atoms: S_2  and  C_3
REMARK    3  A    between atoms: C_11  and  C_12
REMARK    4  A    between atoms: C_12  and  N_13
REMARK    5  A    between atoms: N_13  and  C_14
REMARK    6  A    between atoms: C_17  and  O_18
REMARK    7  A    between atoms: C_19  and  O_20
REMARK                            x       y       z     vdW  Elec       q    Type
REMARK                         _______ _______ _______ _____ _____    ______ ____
ROOT
ATOM      1  C   UNL     1       5.583   6.282  16.436  0.00  0.00    +0.000 C 
ATOM      2  N   UNL     1       6.616   7.355  16.526  0.00  0.00    +0.000 NA
ATOM      3  C   UNL     1       7.324   7.430  17.604  0.00  0.00    +0.000 C 
ATOM      4  N   UNL     1       8.231   8.433  17.738  0.00  0.00    +0.000 N 
ATOM      5  N   UNL     1       7.294   6.590  18.684  0.00  0.00    +0.000 N 
ATOM      6  C   UNL     1       6.468   5.538  18.646  0.00  0.00    +0.000 A 
ATOM      7  N   UNL     1       6.300   4.582  19.598  0.00  0.00    +0.000 N 
ATOM      8  C   UNL     1       5.356   3.694  19.143  0.00  0.00    +0.000 A 
ATOM      9  C   UNL     1       4.892   4.107  17.899  0.00  0.00    +0.000 A 
ATOM     10  C   UNL     1       5.634   5.294  17.584  0.00  0.00    +0.000 A 
ATOM     11  H   UNL     1       8.325   8.928  16.855  0.00  0.00    +0.000 HD
ATOM     12  H   UNL     1       9.134   8.135  18.081  0.00  0.00    +0.000 HD
ATOM     13  H   UNL     1       7.772   6.892  19.523  0.00  0.00    +0.000 HD
ATOM     14  H   UNL     1       6.791   4.526  20.479  0.00  0.00    +0.000 HD
ENDROOT
BRANCH   1  16
ATOM     15  C   UNL     1       7.026   4.562  14.776  0.00  0.00    +0.000 C 
ATOM     16  S   UNL     1       5.473   5.473  14.789  0.00  0.00    +0.000 S 
ENDBRANCH   1  16
BRANCH   9  17
ATOM     17  C   UNL     1       3.878   3.459  17.002  0.00  0.00    +0.000 C 
BRANCH  17  18
ATOM     18  N   UNL     1       2.507   3.682  17.476  0.00  0.00    +0.000 NA
ATOM     19  H   UNL     1       1.940   2.932  17.086  0.00  0.00    +0.000 HD
BRANCH  18  20
ATOM     20  C   UNL     1       2.478   3.586  18.941  0.00  0.00    +0.000 C 
ATOM     21  C   UNL     1       1.629   4.665  19.545  0.00  0.00    +0.000 C 
ATOM     22  C   UNL     1       0.969   4.236  20.628  0.00  0.00    +0.000 C 
ATOM     23  C   UNL     1       1.217   2.786  20.904  0.00  0.00    +0.000 C 
ATOM     24  C   UNL     1       1.862   2.298  19.583  0.00  0.00    +0.000 C 
BRANCH  23  25
ATOM     25  O   UNL     1       2.079   2.667  22.023  0.00  0.00    +0.000 OA
ATOM     26  H   UNL     1       2.476   3.536  22.197  0.00  0.00    +0.000 HD
ENDBRANCH  23  25
BRANCH  24  27
ATOM     27  O   UNL     1       0.866   1.711  18.726  0.00  0.00    +0.000 OA
ATOM     28  H   UNL     1       0.451   2.432  18.221  0.00  0.00    +0.000 HD
ENDBRANCH  24  27
ENDBRANCH  18  20
ENDBRANCH  17  18
ENDBRANCH   9  17
TORSDOF 6
ENDMDL
MODEL 6
REMARK VINA RESULT:      -6.4      1.270      1.614
REMARK  Name = 
REMARK  7 active torsions:
REMARK  status: ('A' for Active; 'I' for Inactive)
REMARK    1  A    between atoms: C_1  and  S_2
REMARK    2  A    between atoms: S_2  and  C_3
REMARK    3  A    between atoms: C_11  and  C_12
REMARK    4  A    between atoms: C_12  and  N_13
REMARK    5  A    between atoms: N_13  and  C_14
REMARK    6  A    between atoms: C_17  and  O_18
REMARK    7  A    between atoms: C_19  and  O_20
REMARK                            x       y       z     vdW  Elec       q    Type
REMARK                         _______ _______ _______ _____ _____    ______ ____
ROOT
ATOM      1  C   UNL     1       4.807   6.449  17.846  0.00  0.00    +0.000 C 
ATOM      2  N   UNL     1       5.832   7.532  17.793  0.00  0.00    +0.000 NA
ATOM      3  C   UNL     1       6.963   7.274  17.225  0.00  0.00    +0.000 C 
ATOM      4  N   UNL     1       7.936   8.222  17.214  0.00  0.00    +0.000 N 
ATOM      5  N   UNL     1       7.334   6.120  16.589  0.00  0.00    +0.000 N 
ATOM      6  C   UNL     1       6.439   5.130  16.498  0.00  0.00    +0.000 A 
ATOM      7  N   UNL     1       6.600   3.921  15.897  0.00  0.00    +0.000 N 
ATOM      8  C   UNL     1       5.429   3.218  16.041  0.00  0.00    +0.000 A 
ATOM      9  C   UNL     1       4.520   3.977  16.771  0.00  0.00    +0.000 A 
ATOM     10  C   UNL     1       5.184   5.219  17.045  0.00  0.00    +0.000 A 
ATOM     11  H   UNL     1       7.559   9.102  17.554  0.00  0.00    +0.000 HD
ATOM     12  H   UNL     1       8.386   8.346  16.318  0.00  0.00    +0.000 HD
ATOM     13  H   UNL     1       8.315   6.007  16.362  0.00  0.00    +0.000 HD
ATOM     14  H   UNL     1       7.430   3.598  15.419  0.00  0.00    +0.000 HD
ENDROOT
BRANCH   1  16
ATOM     15  C   UNL     1       2.565   7.399  19.212  0.00  0.00    +0.000 C 
ATOM     16  S   UNL     1       3.087   7.017  17.532  0.00  0.00    +0.000 S 
ENDBRANCH   1  16
BRANCH   9  17
ATOM     17  C   UNL     1       3.110   3.646  17.165  0.00  0.00    +0.000 C 
BRANCH  17  18
ATOM     18  N   UNL     1       3.002   2.296  17.730  0.00  0.00    +0.000 NA
ATOM     19  H   UNL     1       3.894   1.837  17.555  0.00  0.00    +0.000 HD
BRANCH  18  20
ATOM     20  C   UNL     1       2.793   2.391  19.180  0.00  0.00    +0.000 C 
ATOM     21  C   UNL     1       2.991   3.794  19.673  0.00  0.00    +0.000 C 
ATOM     22  C   UNL     1       2.147   4.101  20.666  0.00  0.00    +0.000 C 
ATOM     23  C   UNL     1       1.204   2.980  20.973  0.00  0.00    +0.000 C 
ATOM     24  C   UNL     1       1.372   2.054  19.743  0.00  0.00    +0.000 C 
BRANCH  23  25
ATOM     25  O   UNL     1       1.592   2.367  22.190  0.00  0.00    +0.000 OA
ATOM     26  H   UNL     1       0.791   2.177  22.706  0.00  0.00    +0.000 HD
ENDBRANCH  23  25
BRANCH  24  27
ATOM     27  O   UNL     1       0.346   2.323  18.770  0.00  0.00    +0.000 OA
ATOM     28  H   UNL     1      -0.289   2.939  19.176  0.00  0.00    +0.000 HD
ENDBRANCH  24  27
ENDBRANCH  18  20
ENDBRANCH  17  18
ENDBRANCH   9  17
TORSDOF 6
ENDMDL
MODEL 7
REMARK VINA RESULT:      -6.4      2.481      3.510
REMARK  Name = 
REMARK  7 active torsions:
REMARK  status: ('A' for Active; 'I' for Inactive)
REMARK    1  A    between atoms: C_1  and  S_2
REMARK    2  A    between atoms: S_2  and  C_3
REMARK    3  A    between atoms: C_11  and  C_12
REMARK    4  A    between atoms: C_12  and  N_13
REMARK    5  A    between atoms: N_13  and  C_14
REMARK    6  A    between atoms: C_17  and  O_18
REMARK    7  A    between atoms: C_19  and  O_20
REMARK                            x       y       z     vdW  Elec       q    Type
REMARK                         _______ _______ _______ _____ _____    ______ ____
ROOT
ATOM      1  C   UNL     1       6.736   4.694  17.194  0.00  0.00    +0.000 C 
ATOM      2  N   UNL     1       7.523   4.638  15.927  0.00  0.00    +0.000 NA
ATOM      3  C   UNL     1       7.078   5.290  14.904  0.00  0.00    +0.000 C 
ATOM      4  N   UNL     1       7.742   5.209  13.721  0.00  0.00    +0.000 N 
ATOM      5  N   UNL     1       5.979   6.103  14.845  0.00  0.00    +0.000 N 
ATOM      6  C   UNL     1       5.271   6.295  15.964  0.00  0.00    +0.000 A 
ATOM      7  N   UNL     1       4.166   7.071  16.122  0.00  0.00    +0.000 N 
ATOM      8  C   UNL     1       3.766   6.976  17.433  0.00  0.00    +0.000 A 
ATOM      9  C   UNL     1       4.608   6.102  18.112  0.00  0.00    +0.000 A 
ATOM     10  C   UNL     1       5.587   5.682  17.150  0.00  0.00    +0.000 A 
ATOM     11  H   UNL     1       8.626   4.727  13.859  0.00  0.00    +0.000 HD
ATOM     12  H   UNL     1       7.884   6.098  13.262  0.00  0.00    +0.000 HD
ATOM     13  H   UNL     1       5.659   6.389  13.928  0.00  0.00    +0.000 HD
ATOM     14  H   UNL     1       3.722   7.629  15.406  0.00  0.00    +0.000 HD
ENDROOT
BRANCH   1  16
ATOM     15  C   UNL     1       8.083   6.612  18.712  0.00  0.00    +0.000 C 
ATOM     16  S   UNL     1       7.759   4.841  18.714  0.00  0.00    +0.000 S 
ENDBRANCH   1  16
BRANCH   9  17
ATOM     17  C   UNL     1       4.586   5.693  19.556  0.00  0.00    +0.000 C 
BRANCH  17  18
ATOM     18  N   UNL     1       3.217   5.522  20.055  0.00  0.00    +0.000 NA
ATOM     19  H   UNL     1       2.617   6.082  19.452  0.00  0.00    +0.000 HD
BRANCH  18  20
ATOM     20  C   UNL     1       2.829   4.111  19.932  0.00  0.00    +0.000 C 
ATOM     21  C   UNL     1       1.817   3.728  20.971  0.00  0.00    +0.000 C 
ATOM     22  C   UNL     1       0.925   2.847  20.502  0.00  0.00    +0.000 C 
ATOM     23  C   UNL     1       1.149   2.531  19.056  0.00  0.00    +0.000 C 
ATOM     24  C   UNL     1       2.120   3.654  18.614  0.00  0.00    +0.000 C 
BRANCH  23  25
ATOM     25  O   UNL     1       1.710   1.234  18.946  0.00  0.00    +0.000 OA
ATOM     26  H   UNL     1       2.664   1.325  18.788  0.00  0.00    +0.000 HD
ENDBRANCH  23  25
BRANCH  24  27
ATOM     27  O   UNL     1       1.389   4.737  18.009  0.00  0.00    +0.000 OA
ATOM     28  H   UNL     1       1.533   4.687  17.048  0.00  0.00    +0.000 HD
ENDBRANCH  24  27
ENDBRANCH  18  20
ENDBRANCH  17  18
ENDBRANCH   9  17
TORSDOF 6
ENDMDL
MODEL 8
REMARK VINA RESULT:      -6.3      4.433      5.964
REMARK  Name = 
REMARK  7 active torsions:
REMARK  status: ('A' for Active; 'I' for Inactive)
REMARK    1  A    between atoms: C_1  and  S_2
REMARK    2  A    between atoms: S_2  and  C_3
REMARK    3  A    between atoms: C_11  and  C_12
REMARK    4  A    between atoms: C_12  and  N_13
REMARK    5  A    between atoms: N_13  and  C_14
REMARK    6  A    between atoms: C_17  and  O_18
REMARK    7  A    between atoms: C_19  and  O_20
REMARK                            x       y       z     vdW  Elec       q    Type
REMARK                         _______ _______ _______ _____ _____    ______ ____
ROOT
ATOM      1  C   UNL     1       0.822  10.001  20.879  0.00  0.00    +0.000 C 
ATOM      2  N   UNL     1       0.244  11.362  20.679  0.00  0.00    +0.000 NA
ATOM      3  C   UNL     1       0.352  11.904  19.511  0.00  0.00    +0.000 C 
ATOM      4  N   UNL     1      -0.112  13.166  19.316  0.00  0.00    +0.000 N 
ATOM      5  N   UNL     1       0.889  11.352  18.380  0.00  0.00    +0.000 N 
ATOM      6  C   UNL     1       1.339  10.093  18.441  0.00  0.00    +0.000 A 
ATOM      7  N   UNL     1       1.887   9.360  17.435  0.00  0.00    +0.000 N 
ATOM      8  C   UNL     1       2.207   8.123  17.939  0.00  0.00    +0.000 A 
ATOM      9  C   UNL     1       1.887   8.077  19.292  0.00  0.00    +0.000 A 
ATOM     10  C   UNL     1       1.312   9.356  19.598  0.00  0.00    +0.000 A 
ATOM     11  H   UNL     1      -0.636  13.467  20.133  0.00  0.00    +0.000 HD
ATOM     12  H   UNL     1      -0.659  13.283  18.475  0.00  0.00    +0.000 HD
ATOM     13  H   UNL     1       1.070  11.971  17.599  0.00  0.00    +0.000 HD
ATOM     14  H   UNL     1       2.026   9.666  16.482  0.00  0.00    +0.000 HD
ENDROOT
BRANCH   1  16
ATOM     15  C   UNL     1      -0.752  10.021  23.185  0.00  0.00    +0.000 C 
ATOM     16  S   UNL     1      -0.217   8.880  21.901  0.00  0.00    +0.000 S 
ENDBRANCH   1  16
BRANCH   9  17
ATOM     17  C   UNL     1       2.034   6.942  20.263  0.00  0.00    +0.000 C 
BRANCH  17  18
ATOM     18  N   UNL     1       3.185   6.092  19.940  0.00  0.00    +0.000 NA
ATOM     19  H   UNL     1       3.878   6.254  20.668  0.00  0.00    +0.000 HD
BRANCH  18  20
ATOM     20  C   UNL     1       2.774   4.683  19.981  0.00  0.00    +0.000 C 
ATOM     21  C   UNL     1       1.353   4.538  20.440  0.00  0.00    +0.000 C 
ATOM     22  C   UNL     1       0.723   3.535  19.815  0.00  0.00    +0.000 C 
ATOM     23  C   UNL     1       1.592   2.872  18.793  0.00  0.00    +0.000 C 
ATOM     24  C   UNL     1       2.757   3.881  18.636  0.00  0.00    +0.000 C 
BRANCH  23  25
ATOM     25  O   UNL     1       2.010   1.611  19.286  0.00  0.00    +0.000 OA
ATOM     26  H   UNL     1       1.542   0.918  18.790  0.00  0.00    +0.000 HD
ENDBRANCH  23  25
BRANCH  24  27
ATOM     27  O   UNL     1       2.520   4.749  17.512  0.00  0.00    +0.000 OA
ATOM     28  H   UNL     1       1.563   4.745  17.336  0.00  0.00    +0.000 HD
ENDBRANCH  24  27
ENDBRANCH  18  20
ENDBRANCH  17  18
ENDBRANCH   9  17
TORSDOF 6
ENDMDL
MODEL 9
REMARK VINA RESULT:      -6.3      3.093      5.954
REMARK  Name = 
REMARK  7 active torsions:
REMARK  status: ('A' for Active; 'I' for Inactive)
REMARK    1  A    between atoms: C_1  and  S_2
REMARK    2  A    between atoms: S_2  and  C_3
REMARK    3  A    between atoms: C_11  and  C_12
REMARK    4  A    between atoms: C_12  and  N_13
REMARK    5  A    between atoms: N_13  and  C_14
REMARK    6  A    between atoms: C_17  and  O_18
REMARK    7  A    between atoms: C_19  and  O_20
REMARK                            x       y       z     vdW  Elec       q    Type
REMARK                         _______ _______ _______ _____ _____    ______ ____
ROOT
ATOM      1  C   UNL     1       3.347   3.886  19.098  0.00  0.00    +0.000 C 
ATOM      2  N   UNL     1       2.850   3.095  20.262  0.00  0.00    +0.000 NA
ATOM      3  C   UNL     1       2.276   3.730  21.229  0.00  0.00    +0.000 C 
ATOM      4  N   UNL     1       1.867   3.043  22.328  0.00  0.00    +0.000 N 
ATOM      5  N   UNL     1       1.998   5.068  21.302  0.00  0.00    +0.000 N 
ATOM      6  C   UNL     1       2.316   5.840  20.256  0.00  0.00    +0.000 A 
ATOM      7  N   UNL     1       2.111   7.177  20.121  0.00  0.00    +0.000 N 
ATOM      8  C   UNL     1       2.590   7.556  18.890  0.00  0.00    +0.000 A 
ATOM      9  C   UNL     1       3.137   6.451  18.246  0.00  0.00    +0.000 A 
ATOM     10  C   UNL     1       2.937   5.344  19.137  0.00  0.00    +0.000 A 
ATOM     11  H   UNL     1       1.952   2.045  22.157  0.00  0.00    +0.000 HD
ATOM     12  H   UNL     1       0.935   3.276  22.641  0.00  0.00    +0.000 HD
ATOM     13  H   UNL     1       1.717   5.438  22.201  0.00  0.00    +0.000 HD
ATOM     14  H   UNL     1       1.674   7.785  20.799  0.00  0.00    +0.000 HD
ENDROOT
BRANCH   1  16
ATOM     15  C   UNL     1       3.625   1.424  17.810  0.00  0.00    +0.000 C 
ATOM     16  S   UNL     1       3.054   3.096  17.464  0.00  0.00    +0.000 S 
ENDBRANCH   1  16
BRANCH   9  17
ATOM     17  C   UNL     1       3.761   6.361  16.884  0.00  0.00    +0.000 C 
BRANCH  17  18
ATOM     18  N   UNL     1       5.111   6.937  16.862  0.00  0.00    +0.000 NA
ATOM     19  H   UNL     1       5.012   7.917  17.119  0.00  0.00    +0.000 HD
BRANCH  18  20
ATOM     20  C   UNL     1       5.942   6.263  17.868  0.00  0.00    +0.000 C 
ATOM     21  C   UNL     1       6.386   4.910  17.396  0.00  0.00    +0.000 C 
ATOM     22  C   UNL     1       7.624   4.615  17.813  0.00  0.00    +0.000 C 
ATOM     23  C   UNL     1       8.243   5.737  18.586  0.00  0.00    +0.000 C 
ATOM     24  C   UNL     1       7.304   6.926  18.262  0.00  0.00    +0.000 C 
BRANCH  23  25
ATOM     25  O   UNL     1       8.259   5.400  19.962  0.00  0.00    +0.000 OA
ATOM     26  H   UNL     1       7.383   5.057  20.204  0.00  0.00    +0.000 HD
ENDBRANCH  23  25
BRANCH  24  27
ATOM     27  O   UNL     1       7.840   7.706  17.177  0.00  0.00    +0.000 OA
ATOM     28  H   UNL     1       8.590   7.211  16.802  0.00  0.00    +0.000 HD
ENDBRANCH  24  27
ENDBRANCH  18  20
ENDBRANCH  17  18
ENDBRANCH   9  17
TORSDOF 6
ENDMDL
