MODEL 1
REMARK VINA RESULT:      -5.9      0.000      0.000
REMARK  Name = 
REMARK  6 active torsions:
REMARK  status: ('A' for Active; 'I' for Inactive)
REMARK    1  A    between atoms: C_1  and  C_2
REMARK    2  A    between atoms: C_2  and  C_3
REMARK    3  A    between atoms: C_3  and  C_4
REMARK    4  A    between atoms: C_4  and  N_5
REMARK    5  A    between atoms: N_5  and  C_6
REMARK    6  A    between atoms: C_11  and  C_12
REMARK                            x       y       z     vdW  Elec       q    Type
REMARK                         _______ _______ _______ _____ _____    ______ ____
ROOT
ATOM      1  C   UNL     1       4.769   4.751  19.136  0.00  0.00    +0.000 A 
ATOM      2  N   UNL     1       5.306   3.556  19.445  0.00  0.00    +0.000 NA
ATOM      3  C   UNL     1       4.502   2.619  19.938  0.00  0.00    +0.000 A 
ATOM      4  N   UNL     1       5.054   1.383  20.200  0.00  0.00    +0.000 N 
ATOM      5  N   UNL     1       3.212   2.795  20.222  0.00  0.00    +0.000 NA
ATOM      6  C   UNL     1       2.671   4.001  19.934  0.00  0.00    +0.000 A 
ATOM      7  C   UNL     1       1.218   4.135  20.288  0.00  0.00    +0.000 C 
ATOM      8  C   UNL     1       3.417   5.023  19.358  0.00  0.00    +0.000 A 
ATOM      9  I   UNL     1       2.575   6.874  18.835  0.00  0.00    +0.000 I 
ATOM     10  H   UNL     1       6.049   1.479  20.343  0.00  0.00    +0.000 HD
ATOM     11  H   UNL     1       4.519   0.911  20.913  0.00  0.00    +0.000 HD
ENDROOT
BRANCH   1  12
ATOM     12  N   UNL     1       5.624   5.749  18.623  0.00  0.00    +0.000 N 
ATOM     13  H   UNL     1       5.146   6.646  18.649  0.00  0.00    +0.000 HD
BRANCH  12  14
ATOM     14  C   UNL     1       6.209   5.448  17.318  0.00  0.00    +0.000 C 
BRANCH  14  15
ATOM     15  C   UNL     1       7.225   6.521  16.924  0.00  0.00    +0.000 C 
BRANCH  15  17
ATOM     16  C   UNL     1       8.066   8.703  17.863  0.00  0.00    +0.000 C 
ATOM     17  C   UNL     1       7.841   7.225  18.135  0.00  0.00    +0.000 C 
ENDBRANCH  15  17
ENDBRANCH  14  15
ENDBRANCH  12  14
ENDBRANCH   1  12
TORSDOF 4
ENDMDL
MODEL 2
REMARK VINA RESULT:      -5.8      1.267      1.997
REMARK  Name = 
REMARK  6 active torsions:
REMARK  status: ('A' for Active; 'I' for Inactive)
REMARK    1  A    between atoms: C_1  and  C_2
REMARK    2  A    between atoms: C_2  and  C_3
REMARK    3  A    between atoms: C_3  and  C_4
REMARK    4  A    between atoms: C_4  and  N_5
REMARK    5  A    between atoms: N_5  and  C_6
REMARK    6  A    between atoms: C_11  and  C_12
REMARK                            x       y       z     vdW  Elec       q    Type
REMARK                         _______ _______ _______ _____ _____    ______ ____
ROOT
ATOM      1  C   UNL     1       4.775   4.712  18.931  0.00  0.00    +0.000 A 
ATOM      2  N   UNL     1       5.303   3.535  19.315  0.00  0.00    +0.000 NA
ATOM      3  C   UNL     1       4.514   2.673  19.946  0.00  0.00    +0.000 A 
ATOM      4  N   UNL     1       5.052   1.449  20.286  0.00  0.00    +0.000 N 
ATOM      5  N   UNL     1       3.251   2.913  20.299  0.00  0.00    +0.000 NA
ATOM      6  C   UNL     1       2.720   4.104  19.935  0.00  0.00    +0.000 A 
ATOM      7  C   UNL     1       1.300   4.314  20.372  0.00  0.00    +0.000 C 
ATOM      8  C   UNL     1       3.449   5.045  19.217  0.00  0.00    +0.000 A 
ATOM      9  I   UNL     1       2.618   6.865  18.580  0.00  0.00    +0.000 I 
ATOM     10  H   UNL     1       6.056   1.528  20.352  0.00  0.00    +0.000 HD
ATOM     11  H   UNL     1       4.557   1.062  21.074  0.00  0.00    +0.000 HD
ENDROOT
BRANCH   1  12
ATOM     12  N   UNL     1       5.617   5.632  18.270  0.00  0.00    +0.000 N 
ATOM     13  H   UNL     1       5.060   6.197  17.633  0.00  0.00    +0.000 HD
BRANCH  12  14
ATOM     14  C   UNL     1       6.795   5.044  17.636  0.00  0.00    +0.000 C 
BRANCH  14  15
ATOM     15  C   UNL     1       6.950   5.562  16.205  0.00  0.00    +0.000 C 
BRANCH  15  17
ATOM     16  C   UNL     1       5.881   4.141  14.420  0.00  0.00    +0.000 C 
ATOM     17  C   UNL     1       5.701   5.328  15.353  0.00  0.00    +0.000 C 
ENDBRANCH  15  17
ENDBRANCH  14  15
ENDBRANCH  12  14
ENDBRANCH   1  12
TORSDOF 4
ENDMDL
MODEL 3
REMARK VINA RESULT:      -5.7      1.570      1.678
REMARK  Name = 
REMARK  6 active torsions:
REMARK  status: ('A' for Active; 'I' for Inactive)
REMARK    1  A    between atoms: C_1  and  C_2
REMARK    2  A    between atoms: C_2  and  C_3
REMARK    3  A    between atoms: C_3  and  C_4
REMARK    4  A    between atoms: C_4  and  N_5
REMARK    5  A    between atoms: N_5  and  C_6
REMARK    6  A    between atoms: C_11  and  C_12
REMARK                            x       y       z     vdW  Elec       q    Type
REMARK                         _______ _______ _______ _____ _____    ______ ____
ROOT
ATOM      1  C   UNL     1       4.021   4.293  17.598  0.00  0.00    +0.000 A 
ATOM      2  N   UNL     1       4.274   2.972  17.604  0.00  0.00    +0.000 NA
ATOM      3  C   UNL     1       3.576   2.206  18.436  0.00  0.00    +0.000 A 
ATOM      4  N   UNL     1       3.807   0.847  18.393  0.00  0.00    +0.000 N 
ATOM      5  N   UNL     1       2.692   2.656  19.326  0.00  0.00    +0.000 NA
ATOM      6  C   UNL     1       2.448   3.987  19.341  0.00  0.00    +0.000 A 
ATOM      7  C   UNL     1       1.451   4.429  20.372  0.00  0.00    +0.000 C 
ATOM      8  C   UNL     1       3.083   4.861  18.465  0.00  0.00    +0.000 A 
ATOM      9  I   UNL     1       2.661   6.917  18.424  0.00  0.00    +0.000 I 
ATOM     10  H   UNL     1       4.729   0.672  18.020  0.00  0.00    +0.000 HD
ATOM     11  H   UNL     1       3.571   0.429  19.280  0.00  0.00    +0.000 HD
ENDROOT
BRANCH   1  12
ATOM     12  N   UNL     1       4.768   5.108  16.722  0.00  0.00    +0.000 N 
ATOM     13  H   UNL     1       4.133   5.606  16.103  0.00  0.00    +0.000 HD
BRANCH  12  14
ATOM     14  C   UNL     1       5.844   4.422  16.009  0.00  0.00    +0.000 C 
BRANCH  14  15
ATOM     15  C   UNL     1       7.206   4.824  16.577  0.00  0.00    +0.000 C 
BRANCH  15  17
ATOM     16  C   UNL     1       7.679   6.132  18.677  0.00  0.00    +0.000 C 
ATOM     17  C   UNL     1       7.187   6.202  17.241  0.00  0.00    +0.000 C 
ENDBRANCH  15  17
ENDBRANCH  14  15
ENDBRANCH  12  14
ENDBRANCH   1  12
TORSDOF 4
ENDMDL
MODEL 4
REMARK VINA RESULT:      -5.7      1.109      1.163
REMARK  Name = 
REMARK  6 active torsions:
REMARK  status: ('A' for Active; 'I' for Inactive)
REMARK    1  A    between atoms: C_1  and  C_2
REMARK    2  A    between atoms: C_2  and  C_3
REMARK    3  A    between atoms: C_3  and  C_4
REMARK    4  A    between atoms: C_4  and  N_5
REMARK    5  A    between atoms: N_5  and  C_6
REMARK    6  A    between atoms: C_11  and  C_12
REMARK                            x       y       z     vdW  Elec       q    Type
REMARK                         _______ _______ _______ _____ _____    ______ ____
ROOT
ATOM      1  C   UNL     1       4.800   4.313  19.115  0.00  0.00    +0.000 A 
ATOM      2  N   UNL     1       5.150   3.033  19.336  0.00  0.00    +0.000 NA
ATOM      3  C   UNL     1       4.236   2.091  19.133  0.00  0.00    +0.000 A 
ATOM      4  N   UNL     1       4.624   0.779  19.311  0.00  0.00    +0.000 N 
ATOM      5  N   UNL     1       2.967   2.321  18.796  0.00  0.00    +0.000 NA
ATOM      6  C   UNL     1       2.602   3.608  18.593  0.00  0.00    +0.000 A 
ATOM      7  C   UNL     1       1.158   3.798  18.227  0.00  0.00    +0.000 C 
ATOM      8  C   UNL     1       3.505   4.658  18.720  0.00  0.00    +0.000 A 
ATOM      9  I   UNL     1       2.973   6.652  18.335  0.00  0.00    +0.000 I 
ATOM     10  H   UNL     1       5.419   0.743  19.933  0.00  0.00    +0.000 HD
ATOM     11  H   UNL     1       3.823   0.211  19.537  0.00  0.00    +0.000 HD
ENDROOT
BRANCH   1  12
ATOM     12  N   UNL     1       5.768   5.314  19.341  0.00  0.00    +0.000 N 
ATOM     13  H   UNL     1       5.314   6.225  19.347  0.00  0.00    +0.000 HD
BRANCH  12  14
ATOM     14  C   UNL     1       6.930   5.259  18.457  0.00  0.00    +0.000 C 
BRANCH  14  15
ATOM     15  C   UNL     1       7.812   6.493  18.650  0.00  0.00    +0.000 C 
BRANCH  15  17
ATOM     16  C   UNL     1       8.217   8.881  17.956  0.00  0.00    +0.000 C 
ATOM     17  C   UNL     1       7.595   7.551  17.566  0.00  0.00    +0.000 C 
ENDBRANCH  15  17
ENDBRANCH  14  15
ENDBRANCH  12  14
ENDBRANCH   1  12
TORSDOF 4
ENDMDL
MODEL 5
REMARK VINA RESULT:      -5.7      1.156      1.156
REMARK  Name = 
REMARK  6 active torsions:
REMARK  status: ('A' for Active; 'I' for Inactive)
REMARK    1  A    between atoms: C_1  and  C_2
REMARK    2  A    between atoms: C_2  and  C_3
REMARK    3  A    between atoms: C_3  and  C_4
REMARK    4  A    between atoms: C_4  and  N_5
REMARK    5  A    between atoms: N_5  and  C_6
REMARK    6  A    between atoms: C_11  and  C_12
REMARK                            x       y       z     vdW  Elec       q    Type
REMARK                         _______ _______ _______ _____ _____    ______ ____
ROOT
ATOM      1  C   UNL     1       4.075   4.334  18.098  0.00  0.00    +0.000 A 
ATOM      2  N   UNL     1       4.379   3.031  17.958  0.00  0.00    +0.000 NA
ATOM      3  C   UNL     1       3.571   2.138  18.520  0.00  0.00    +0.000 A 
ATOM      4  N   UNL     1       3.863   0.804  18.323  0.00  0.00    +0.000 N 
ATOM      5  N   UNL     1       2.517   2.436  19.280  0.00  0.00    +0.000 NA
ATOM      6  C   UNL     1       2.219   3.745  19.442  0.00  0.00    +0.000 A 
ATOM      7  C   UNL     1       1.028   4.011  20.317  0.00  0.00    +0.000 C 
ATOM      8  C   UNL     1       2.968   4.751  18.842  0.00  0.00    +0.000 A 
ATOM      9  I   UNL     1       2.475   6.783  19.022  0.00  0.00    +0.000 I 
ATOM     10  H   UNL     1       4.845   0.700  18.112  0.00  0.00    +0.000 HD
ATOM     11  H   UNL     1       3.483   0.254  19.077  0.00  0.00    +0.000 HD
ENDROOT
BRANCH   1  12
ATOM     12  N   UNL     1       4.939   5.283  17.510  0.00  0.00    +0.000 N 
ATOM     13  H   UNL     1       4.659   5.438  16.544  0.00  0.00    +0.000 HD
BRANCH  12  14
ATOM     14  C   UNL     1       6.364   4.992  17.654  0.00  0.00    +0.000 C 
BRANCH  14  15
ATOM     15  C   UNL     1       7.206   6.141  17.095  0.00  0.00    +0.000 C 
BRANCH  15  17
ATOM     16  C   UNL     1       7.948   8.457  17.753  0.00  0.00    +0.000 C 
ATOM     17  C   UNL     1       7.826   7.007  18.193  0.00  0.00    +0.000 C 
ENDBRANCH  15  17
ENDBRANCH  14  15
ENDBRANCH  12  14
ENDBRANCH   1  12
TORSDOF 4
ENDMDL
MODEL 6
REMARK VINA RESULT:      -5.7      1.090      1.120
REMARK  Name = 
REMARK  6 active torsions:
REMARK  status: ('A' for Active; 'I' for Inactive)
REMARK    1  A    between atoms: C_1  and  C_2
REMARK    2  A    between atoms: C_2  and  C_3
REMARK    3  A    between atoms: C_3  and  C_4
REMARK    4  A    between atoms: C_4  and  N_5
REMARK    5  A    between atoms: N_5  and  C_6
REMARK    6  A    between atoms: C_11  and  C_12
REMARK                            x       y       z     vdW  Elec       q    Type
REMARK                         _______ _______ _______ _____ _____    ______ ____
ROOT
ATOM      1  C   UNL     1       4.590   5.154  17.998  0.00  0.00    +0.000 A 
ATOM      2  N   UNL     1       5.082   3.961  18.380  0.00  0.00    +0.000 NA
ATOM      3  C   UNL     1       4.476   3.327  19.378  0.00  0.00    +0.000 A 
ATOM      4  N   UNL     1       4.957   2.081  19.724  0.00  0.00    +0.000 N 
ATOM      5  N   UNL     1       3.458   3.816  20.086  0.00  0.00    +0.000 NA
ATOM      6  C   UNL     1       2.972   5.025  19.721  0.00  0.00    +0.000 A 
ATOM      7  C   UNL     1       1.835   5.523  20.564  0.00  0.00    +0.000 C 
ATOM      8  C   UNL     1       3.500   5.737  18.649  0.00  0.00    +0.000 A 
ATOM      9  I   UNL     1       2.709   7.578  18.023  0.00  0.00    +0.000 I 
ATOM     10  H   UNL     1       5.921   1.998  19.435  0.00  0.00    +0.000 HD
ATOM     11  H   UNL     1       4.735   1.882  20.686  0.00  0.00    +0.000 HD
ENDROOT
BRANCH   1  12
ATOM     12  N   UNL     1       5.239   5.833  16.944  0.00  0.00    +0.000 N 
ATOM     13  H   UNL     1       5.050   5.351  16.068  0.00  0.00    +0.000 HD
BRANCH  12  14
ATOM     14  C   UNL     1       6.661   6.091  17.161  0.00  0.00    +0.000 C 
BRANCH  14  15
ATOM     15  C   UNL     1       6.909   7.586  17.370  0.00  0.00    +0.000 C 
BRANCH  15  17
ATOM     16  C   UNL     1       8.482   9.353  18.237  0.00  0.00    +0.000 C 
ATOM     17  C   UNL     1       8.166   7.867  18.196  0.00  0.00    +0.000 C 
ENDBRANCH  15  17
ENDBRANCH  14  15
ENDBRANCH  12  14
ENDBRANCH   1  12
TORSDOF 4
ENDMDL
MODEL 7
REMARK VINA RESULT:      -5.6      0.930      1.515
REMARK  Name = 
REMARK  6 active torsions:
REMARK  status: ('A' for Active; 'I' for Inactive)
REMARK    1  A    between atoms: C_1  and  C_2
REMARK    2  A    between atoms: C_2  and  C_3
REMARK    3  A    between atoms: C_3  and  C_4
REMARK    4  A    between atoms: C_4  and  N_5
REMARK    5  A    between atoms: N_5  and  C_6
REMARK    6  A    between atoms: C_11  and  C_12
REMARK                            x       y       z     vdW  Elec       q    Type
REMARK                         _______ _______ _______ _____ _____    ______ ____
ROOT
ATOM      1  C   UNL     1       4.597   4.652  19.338  0.00  0.00    +0.000 A 
ATOM      2  N   UNL     1       5.183   3.448  19.465  0.00  0.00    +0.000 NA
ATOM      3  C   UNL     1       4.433   2.428  19.869  0.00  0.00    +0.000 A 
ATOM      4  N   UNL     1       5.033   1.188  19.943  0.00  0.00    +0.000 N 
ATOM      5  N   UNL     1       3.154   2.520  20.233  0.00  0.00    +0.000 NA
ATOM      6  C   UNL     1       2.564   3.733  20.128  0.00  0.00    +0.000 A 
ATOM      7  C   UNL     1       1.128   3.770  20.563  0.00  0.00    +0.000 C 
ATOM      8  C   UNL     1       3.251   4.847  19.656  0.00  0.00    +0.000 A 
ATOM      9  I   UNL     1       2.330   6.718  19.416  0.00  0.00    +0.000 I 
ATOM     10  H   UNL     1       6.031   1.300  20.051  0.00  0.00    +0.000 HD
ATOM     11  H   UNL     1       4.549   0.611  20.612  0.00  0.00    +0.000 HD
ENDROOT
BRANCH   1  12
ATOM     12  N   UNL     1       5.396   5.737  18.919  0.00  0.00    +0.000 N 
ATOM     13  H   UNL     1       5.214   5.928  17.936  0.00  0.00    +0.000 HD
BRANCH  12  14
ATOM     14  C   UNL     1       6.819   5.609  19.224  0.00  0.00    +0.000 C 
BRANCH  14  15
ATOM     15  C   UNL     1       7.666   5.982  18.006  0.00  0.00    +0.000 C 
BRANCH  15  17
ATOM     16  C   UNL     1       7.049   4.736  15.905  0.00  0.00    +0.000 C 
ATOM     17  C   UNL     1       6.855   6.011  16.709  0.00  0.00    +0.000 C 
ENDBRANCH  15  17
ENDBRANCH  14  15
ENDBRANCH  12  14
ENDBRANCH   1  12
TORSDOF 4
ENDMDL
MODEL 8
REMARK VINA RESULT:      -5.5      2.014      2.729
REMARK  Name = 
REMARK  6 active torsions:
REMARK  status: ('A' for Active; 'I' for Inactive)
REMARK    1  A    between atoms: C_1  and  C_2
REMARK    2  A    between atoms: C_2  and  C_3
REMARK    3  A    between atoms: C_3  and  C_4
REMARK    4  A    between atoms: C_4  and  N_5
REMARK    5  A    between atoms: N_5  and  C_6
REMARK    6  A    between atoms: C_11  and  C_12
REMARK                            x       y       z     vdW  Elec       q    Type
REMARK                         _______ _______ _______ _____ _____    ______ ____
ROOT
ATOM      1  C   UNL     1       3.930   4.394  17.634  0.00  0.00    +0.000 A 
ATOM      2  N   UNL     1       4.226   3.082  17.620  0.00  0.00    +0.000 NA
ATOM      3  C   UNL     1       3.586   2.289  18.472  0.00  0.00    +0.000 A 
ATOM      4  N   UNL     1       3.859   0.938  18.411  0.00  0.00    +0.000 N 
ATOM      5  N   UNL     1       2.721   2.704  19.398  0.00  0.00    +0.000 NA
ATOM      6  C   UNL     1       2.435   4.026  19.432  0.00  0.00    +0.000 A 
ATOM      7  C   UNL     1       1.464   4.428  20.503  0.00  0.00    +0.000 C 
ATOM      8  C   UNL     1       3.007   4.926  18.539  0.00  0.00    +0.000 A 
ATOM      9  I   UNL     1       2.517   6.967  18.530  0.00  0.00    +0.000 I 
ATOM     10  H   UNL     1       4.771   0.795  18.002  0.00  0.00    +0.000 HD
ATOM     11  H   UNL     1       3.670   0.507  19.302  0.00  0.00    +0.000 HD
ENDROOT
BRANCH   1  12
ATOM     12  N   UNL     1       4.617   5.239  16.737  0.00  0.00    +0.000 N 
ATOM     13  H   UNL     1       4.233   5.118  15.802  0.00  0.00    +0.000 HD
BRANCH  12  14
ATOM     14  C   UNL     1       6.074   5.127  16.778  0.00  0.00    +0.000 C 
BRANCH  14  15
ATOM     15  C   UNL     1       6.645   5.024  15.362  0.00  0.00    +0.000 C 
BRANCH  15  17
ATOM     16  C   UNL     1       5.900   3.913  13.227  0.00  0.00    +0.000 C 
ATOM     17  C   UNL     1       6.294   3.700  14.679  0.00  0.00    +0.000 C 
ENDBRANCH  15  17
ENDBRANCH  14  15
ENDBRANCH  12  14
ENDBRANCH   1  12
TORSDOF 4
ENDMDL
MODEL 9
REMARK VINA RESULT:      -5.5      2.870      3.731
REMARK  Name = 
REMARK  6 active torsions:
REMARK  status: ('A' for Active; 'I' for Inactive)
REMARK    1  A    between atoms: C_1  and  C_2
REMARK    2  A    between atoms: C_2  and  C_3
REMARK    3  A    between atoms: C_3  and  C_4
REMARK    4  A    between atoms: C_4  and  N_5
REMARK    5  A    between atoms: N_5  and  C_6
REMARK    6  A    between atoms: C_11  and  C_12
REMARK                            x       y       z     vdW  Elec       q    Type
REMARK                         _______ _______ _______ _____ _____    ______ ____
ROOT
ATOM      1  C   UNL     1       3.126   5.222  18.460  0.00  0.00    +0.000 A 
ATOM      2  N   UNL     1       2.848   6.422  19.003  0.00  0.00    +0.000 NA
ATOM      3  C   UNL     1       2.148   6.449  20.131  0.00  0.00    +0.000 A 
ATOM      4  N   UNL     1       1.916   7.682  20.705  0.00  0.00    +0.000 N 
ATOM      5  N   UNL     1       1.632   5.378  20.735  0.00  0.00    +0.000 NA
ATOM      6  C   UNL     1       1.890   4.170  20.183  0.00  0.00    +0.000 A 
ATOM      7  C   UNL     1       1.272   3.008  20.904  0.00  0.00    +0.000 C 
ATOM      8  C   UNL     1       2.666   4.036  19.037  0.00  0.00    +0.000 A 
ATOM      9  I   UNL     1       3.138   2.164  18.210  0.00  0.00    +0.000 I 
ATOM     10  H   UNL     1       1.974   8.401  19.999  0.00  0.00    +0.000 HD
ATOM     11  H   UNL     1       1.083   7.646  21.273  0.00  0.00    +0.000 HD
ENDROOT
BRANCH   1  12
ATOM     12  N   UNL     1       3.861   5.194  17.256  0.00  0.00    +0.000 N 
ATOM     13  H   UNL     1       3.762   4.278  16.824  0.00  0.00    +0.000 HD
BRANCH  12  14
ATOM     14  C   UNL     1       5.252   5.627  17.371  0.00  0.00    +0.000 C 
BRANCH  14  15
ATOM     15  C   UNL     1       5.962   5.518  16.021  0.00  0.00    +0.000 C 
BRANCH  15  17
ATOM     16  C   UNL     1       5.991   3.995  14.015  0.00  0.00    +0.000 C 
ATOM     17  C   UNL     1       6.080   4.074  15.529  0.00  0.00    +0.000 C 
ENDBRANCH  15  17
ENDBRANCH  14  15
ENDBRANCH  12  14
ENDBRANCH   1  12
TORSDOF 4
ENDMDL
