MODEL 1
REMARK VINA RESULT:      -7.6      0.000      0.000
REMARK  Name = 
REMARK  3 active torsions:
REMARK  status: ('A' for Active; 'I' for Inactive)
REMARK    1  A    between atoms: C_4  and  C_5
REMARK    2  A    between atoms: N_12  and  N_13
REMARK    3  A    between atoms: C_14  and  C_15
REMARK                            x       y       z     vdW  Elec       q    Type
REMARK                         _______ _______ _______ _____ _____    ______ ____
ROOT
ATOM      1  N   UNL     1       2.421   4.616  21.394  0.00  0.00    +0.000 N 
ATOM      2  C   UNL     1       2.801   5.159  20.221  0.00  0.00    +0.000 A 
ATOM      3  N   UNL     1       3.585   4.609  19.324  0.00  0.00    +0.000 NA
ATOM      4  C   UNL     1       3.711   5.541  18.324  0.00  0.00    +0.000 A 
ATOM      5  C   UNL     1       2.962   6.662  18.613  0.00  0.00    +0.000 A 
ATOM      6  N   UNL     1       2.367   6.428  19.829  0.00  0.00    +0.000 N 
ATOM      7  H   UNL     1       2.546   3.617  21.510  0.00  0.00    +0.000 HD
ATOM      8  H   UNL     1       1.629   5.022  21.882  0.00  0.00    +0.000 HD
ENDROOT
BRANCH   4   9
ATOM      9  C   UNL     1       4.537   5.347  17.147  0.00  0.00    +0.000 A 
ATOM     10  C   UNL     1       4.914   4.080  16.687  0.00  0.00    +0.000 A 
ATOM     11  C   UNL     1       5.694   3.956  15.539  0.00  0.00    +0.000 A 
ATOM     12  C   UNL     1       6.080   5.110  14.880  0.00  0.00    +0.000 A 
ATOM     13  N   UNL     1       5.745   6.351  15.287  0.00  0.00    +0.000 NA
ATOM     14  C   UNL     1       4.980   6.439  16.409  0.00  0.00    +0.000 A 
ENDBRANCH   4   9
BRANCH   6  15
ATOM     15  N   UNL     1       1.509   7.206  20.571  0.00  0.00    +0.000 NA
ATOM     16  C   UNL     1       1.461   8.469  20.295  0.00  0.00    +0.000 C 
BRANCH  16  17
ATOM     17  C   UNL     1       0.573   9.390  21.035  0.00  0.00    +0.000 A 
ATOM     18  C   UNL     1      -0.026  10.480  20.396  0.00  0.00    +0.000 A 
ATOM     19  C   UNL     1      -0.852  11.340  21.123  0.00  0.00    +0.000 A 
ATOM     20  C   UNL     1      -1.075  11.106  22.481  0.00  0.00    +0.000 A 
ATOM     21 CL   UNL     1      -2.086  12.170  23.376  0.00  0.00    +0.000 Cl
ATOM     22  C   UNL     1      -0.483  10.017  23.119  0.00  0.00    +0.000 A 
ATOM     23  C   UNL     1       0.345   9.153  22.394  0.00  0.00    +0.000 A 
ENDBRANCH  16  17
ENDBRANCH   6  15
TORSDOF 3
ENDMDL
MODEL 2
REMARK VINA RESULT:      -7.5      1.027      1.517
REMARK  Name = 
REMARK  3 active torsions:
REMARK  status: ('A' for Active; 'I' for Inactive)
REMARK    1  A    between atoms: C_4  and  C_5
REMARK    2  A    between atoms: N_12  and  N_13
REMARK    3  A    between atoms: C_14  and  C_15
REMARK                            x       y       z     vdW  Elec       q    Type
REMARK                         _______ _______ _______ _____ _____    ______ ____
ROOT
ATOM      1  N   UNL     1       2.209   3.896  21.096  0.00  0.00    +0.000 N 
ATOM      2  C   UNL     1       2.861   4.512  20.090  0.00  0.00    +0.000 A 
ATOM      3  N   UNL     1       3.697   3.955  19.247  0.00  0.00    +0.000 NA
ATOM      4  C   UNL     1       4.131   4.972  18.433  0.00  0.00    +0.000 A 
ATOM      5  C   UNL     1       3.520   6.159  18.777  0.00  0.00    +0.000 A 
ATOM      6  N   UNL     1       2.696   5.876  19.840  0.00  0.00    +0.000 N 
ATOM      7  H   UNL     1       2.161   2.884  21.073  0.00  0.00    +0.000 HD
ATOM      8  H   UNL     1       1.414   4.366  21.517  0.00  0.00    +0.000 HD
ENDROOT
BRANCH   4   9
ATOM      9  C   UNL     1       5.109   4.790  17.376  0.00  0.00    +0.000 A 
ATOM     10  C   UNL     1       4.754   4.681  16.027  0.00  0.00    +0.000 A 
ATOM     11  C   UNL     1       5.741   4.527  15.055  0.00  0.00    +0.000 A 
ATOM     12  C   UNL     1       7.062   4.482  15.462  0.00  0.00    +0.000 A 
ATOM     13  N   UNL     1       7.451   4.579  16.749  0.00  0.00    +0.000 NA
ATOM     14  C   UNL     1       6.466   4.732  17.674  0.00  0.00    +0.000 A 
ENDBRANCH   4   9
BRANCH   6  15
ATOM     15  N   UNL     1       1.849   6.689  20.557  0.00  0.00    +0.000 NA
ATOM     16  C   UNL     1       1.805   7.939  20.230  0.00  0.00    +0.000 C 
BRANCH  16  17
ATOM     17  C   UNL     1       0.928   8.895  20.940  0.00  0.00    +0.000 A 
ATOM     18  C   UNL     1       0.792   8.850  22.330  0.00  0.00    +0.000 A 
ATOM     19  C   UNL     1      -0.051   9.758  22.973  0.00  0.00    +0.000 A 
ATOM     20  C   UNL     1      -0.751  10.705  22.224  0.00  0.00    +0.000 A 
ATOM     21 CL   UNL     1      -1.795  11.819  23.017  0.00  0.00    +0.000 Cl
ATOM     22  C   UNL     1      -0.613  10.756  20.838  0.00  0.00    +0.000 A 
ATOM     23  C   UNL     1       0.230   9.847  20.191  0.00  0.00    +0.000 A 
ENDBRANCH  16  17
ENDBRANCH   6  15
TORSDOF 3
ENDMDL
MODEL 3
REMARK VINA RESULT:      -7.5      1.192      1.320
REMARK  Name = 
REMARK  3 active torsions:
REMARK  status: ('A' for Active; 'I' for Inactive)
REMARK    1  A    between atoms: C_4  and  C_5
REMARK    2  A    between atoms: N_12  and  N_13
REMARK    3  A    between atoms: C_14  and  C_15
REMARK                            x       y       z     vdW  Elec       q    Type
REMARK                         _______ _______ _______ _____ _____    ______ ____
ROOT
ATOM      1  N   UNL     1       1.449   4.216  19.205  0.00  0.00    +0.000 N 
ATOM      2  C   UNL     1       2.469   4.828  18.572  0.00  0.00    +0.000 A 
ATOM      3  N   UNL     1       3.237   4.306  17.646  0.00  0.00    +0.000 NA
ATOM      4  C   UNL     1       4.146   5.284  17.327  0.00  0.00    +0.000 A 
ATOM      5  C   UNL     1       3.899   6.428  18.056  0.00  0.00    +0.000 A 
ATOM      6  N   UNL     1       2.819   6.150  18.859  0.00  0.00    +0.000 N 
ATOM      7  H   UNL     1       1.078   3.370  18.788  0.00  0.00    +0.000 HD
ATOM      8  H   UNL     1       0.782   4.788  19.713  0.00  0.00    +0.000 HD
ENDROOT
BRANCH   4   9
ATOM      9  C   UNL     1       5.215   5.102  16.361  0.00  0.00    +0.000 A 
ATOM     10  C   UNL     1       5.120   4.211  15.287  0.00  0.00    +0.000 A 
ATOM     11  C   UNL     1       6.173   4.093  14.381  0.00  0.00    +0.000 A 
ATOM     12  C   UNL     1       7.299   4.872  14.580  0.00  0.00    +0.000 A 
ATOM     13  N   UNL     1       7.438   5.739  15.602  0.00  0.00    +0.000 NA
ATOM     14  C   UNL     1       6.391   5.835  16.467  0.00  0.00    +0.000 A 
ENDBRANCH   4   9
BRANCH   6  15
ATOM     15  N   UNL     1       2.152   6.938  19.767  0.00  0.00    +0.000 NA
ATOM     16  C   UNL     1       1.751   8.100  19.365  0.00  0.00    +0.000 C 
BRANCH  16  17
ATOM     17  C   UNL     1       1.027   9.024  20.265  0.00  0.00    +0.000 A 
ATOM     18  C   UNL     1       0.430  10.187  19.772  0.00  0.00    +0.000 A 
ATOM     19  C   UNL     1      -0.239  11.046  20.646  0.00  0.00    +0.000 A 
ATOM     20  C   UNL     1      -0.306  10.738  22.006  0.00  0.00    +0.000 A 
ATOM     21 CL   UNL     1      -1.123  11.801  23.084  0.00  0.00    +0.000 Cl
ATOM     22  C   UNL     1       0.285   9.575  22.500  0.00  0.00    +0.000 A 
ATOM     23  C   UNL     1       0.955   8.713  21.626  0.00  0.00    +0.000 A 
ENDBRANCH  16  17
ENDBRANCH   6  15
TORSDOF 3
ENDMDL
MODEL 4
REMARK VINA RESULT:      -7.5      1.002      1.060
REMARK  Name = 
REMARK  3 active torsions:
REMARK  status: ('A' for Active; 'I' for Inactive)
REMARK    1  A    between atoms: C_4  and  C_5
REMARK    2  A    between atoms: N_12  and  N_13
REMARK    3  A    between atoms: C_14  and  C_15
REMARK                            x       y       z     vdW  Elec       q    Type
REMARK                         _______ _______ _______ _____ _____    ______ ____
ROOT
ATOM      1  N   UNL     1       1.586   3.933  21.003  0.00  0.00    +0.000 N 
ATOM      2  C   UNL     1       2.417   4.533  20.128  0.00  0.00    +0.000 A 
ATOM      3  N   UNL     1       3.281   3.937  19.341  0.00  0.00    +0.000 NA
ATOM      4  C   UNL     1       3.916   4.947  18.662  0.00  0.00    +0.000 A 
ATOM      5  C   UNL     1       3.402   6.173  19.027  0.00  0.00    +0.000 A 
ATOM      6  N   UNL     1       2.431   5.920  19.968  0.00  0.00    +0.000 N 
ATOM      7  H   UNL     1       1.431   2.937  20.897  0.00  0.00    +0.000 HD
ATOM      8  H   UNL     1       0.803   4.465  21.369  0.00  0.00    +0.000 HD
ENDROOT
BRANCH   4   9
ATOM      9  C   UNL     1       4.988   4.722  17.709  0.00  0.00    +0.000 A 
ATOM     10  C   UNL     1       4.771   4.161  16.445  0.00  0.00    +0.000 A 
ATOM     11  C   UNL     1       5.839   3.986  15.566  0.00  0.00    +0.000 A 
ATOM     12  C   UNL     1       7.100   4.377  15.978  0.00  0.00    +0.000 A 
ATOM     13  N   UNL     1       7.357   4.917  17.186  0.00  0.00    +0.000 NA
ATOM     14  C   UNL     1       6.295   5.078  18.021  0.00  0.00    +0.000 A 
ENDBRANCH   4   9
BRANCH   6  15
ATOM     15  N   UNL     1       1.599   6.778  20.647  0.00  0.00    +0.000 NA
ATOM     16  C   UNL     1       1.647   8.031  20.331  0.00  0.00    +0.000 C 
BRANCH  16  17
ATOM     17  C   UNL     1       0.794   9.033  21.003  0.00  0.00    +0.000 A 
ATOM     18  C   UNL     1       0.253  10.109  20.294  0.00  0.00    +0.000 A 
ATOM     19  C   UNL     1      -0.541  11.047  20.957  0.00  0.00    +0.000 A 
ATOM     20  C   UNL     1      -0.789  10.904  22.324  0.00  0.00    +0.000 A 
ATOM     21 CL   UNL     1      -1.760  12.064  23.142  0.00  0.00    +0.000 Cl
ATOM     22  C   UNL     1      -0.254   9.829  23.033  0.00  0.00    +0.000 A 
ATOM     23  C   UNL     1       0.541   8.888  22.371  0.00  0.00    +0.000 A 
ENDBRANCH  16  17
ENDBRANCH   6  15
TORSDOF 3
ENDMDL
MODEL 5
REMARK VINA RESULT:      -7.3      1.386      1.607
REMARK  Name = 
REMARK  3 active torsions:
REMARK  status: ('A' for Active; 'I' for Inactive)
REMARK    1  A    between atoms: C_4  and  C_5
REMARK    2  A    between atoms: N_12  and  N_13
REMARK    3  A    between atoms: C_14  and  C_15
REMARK                            x       y       z     vdW  Elec       q    Type
REMARK                         _______ _______ _______ _____ _____    ______ ____
ROOT
ATOM      1  N   UNL     1       2.571   5.325  20.830  0.00  0.00    +0.000 N 
ATOM      2  C   UNL     1       3.120   5.681  19.652  0.00  0.00    +0.000 A 
ATOM      3  N   UNL     1       3.973   4.977  18.946  0.00  0.00    +0.000 NA
ATOM      4  C   UNL     1       4.273   5.751  17.854  0.00  0.00    +0.000 A 
ATOM      5  C   UNL     1       3.564   6.933  17.890  0.00  0.00    +0.000 A 
ATOM      6  N   UNL     1       2.813   6.899  19.041  0.00  0.00    +0.000 N 
ATOM      7  H   UNL     1       2.620   4.349  21.096  0.00  0.00    +0.000 HD
ATOM      8  H   UNL     1       1.751   5.830  21.154  0.00  0.00    +0.000 HD
ENDROOT
BRANCH   4   9
ATOM      9  C   UNL     1       5.222   5.357  16.828  0.00  0.00    +0.000 A 
ATOM     10  C   UNL     1       4.997   4.283  15.961  0.00  0.00    +0.000 A 
ATOM     11  C   UNL     1       5.938   3.964  14.984  0.00  0.00    +0.000 A 
ATOM     12  C   UNL     1       7.086   4.731  14.903  0.00  0.00    +0.000 A 
ATOM     13  N   UNL     1       7.349   5.772  15.719  0.00  0.00    +0.000 NA
ATOM     14  C   UNL     1       6.410   6.061  16.660  0.00  0.00    +0.000 A 
ENDBRANCH   4   9
BRANCH   6  15
ATOM     15  N   UNL     1       1.920   7.810  19.555  0.00  0.00    +0.000 NA
ATOM     16  C   UNL     1       1.567   8.793  18.793  0.00  0.00    +0.000 C 
BRANCH  16  17
ATOM     17  C   UNL     1       0.614   9.826  19.252  0.00  0.00    +0.000 A 
ATOM     18  C   UNL     1      -0.408  10.283  18.416  0.00  0.00    +0.000 A 
ATOM     19  C   UNL     1      -1.287  11.267  18.872  0.00  0.00    +0.000 A 
ATOM     20  C   UNL     1      -1.140  11.787  20.159  0.00  0.00    +0.000 A 
ATOM     21 CL   UNL     1      -2.219  13.004  20.718  0.00  0.00    +0.000 Cl
ATOM     22  C   UNL     1      -0.124  11.328  20.997  0.00  0.00    +0.000 A 
ATOM     23  C   UNL     1       0.758  10.343  20.543  0.00  0.00    +0.000 A 
ENDBRANCH  16  17
ENDBRANCH   6  15
TORSDOF 3
ENDMDL
MODEL 6
REMARK VINA RESULT:      -7.3      1.083      1.196
REMARK  Name = 
REMARK  3 active torsions:
REMARK  status: ('A' for Active; 'I' for Inactive)
REMARK    1  A    between atoms: C_4  and  C_5
REMARK    2  A    between atoms: N_12  and  N_13
REMARK    3  A    between atoms: C_14  and  C_15
REMARK                            x       y       z     vdW  Elec       q    Type
REMARK                         _______ _______ _______ _____ _____    ______ ____
ROOT
ATOM      1  N   UNL     1       1.459   3.959  21.004  0.00  0.00    +0.000 N 
ATOM      2  C   UNL     1       2.333   4.566  20.177  0.00  0.00    +0.000 A 
ATOM      3  N   UNL     1       3.219   3.976  19.410  0.00  0.00    +0.000 NA
ATOM      4  C   UNL     1       3.897   4.992  18.783  0.00  0.00    +0.000 A 
ATOM      5  C   UNL     1       3.387   6.217  19.159  0.00  0.00    +0.000 A 
ATOM      6  N   UNL     1       2.377   5.957  20.054  0.00  0.00    +0.000 N 
ATOM      7  H   UNL     1       1.293   2.969  20.866  0.00  0.00    +0.000 HD
ATOM      8  H   UNL     1       0.670   4.495  21.352  0.00  0.00    +0.000 HD
ENDROOT
BRANCH   4   9
ATOM      9  C   UNL     1       5.001   4.772  17.867  0.00  0.00    +0.000 A 
ATOM     10  C   UNL     1       6.340   4.917  18.248  0.00  0.00    +0.000 A 
ATOM     11  C   UNL     1       7.359   4.674  17.328  0.00  0.00    +0.000 A 
ATOM     12  C   UNL     1       7.007   4.294  16.044  0.00  0.00    +0.000 A 
ATOM     13  N   UNL     1       5.732   4.146  15.631  0.00  0.00    +0.000 NA
ATOM     14  C   UNL     1       4.761   4.387  16.553  0.00  0.00    +0.000 A 
ENDBRANCH   4   9
BRANCH   6  15
ATOM     15  N   UNL     1       1.531   6.812  20.722  0.00  0.00    +0.000 NA
ATOM     16  C   UNL     1       1.588   8.066  20.415  0.00  0.00    +0.000 C 
BRANCH  16  17
ATOM     17  C   UNL     1       0.722   9.066  21.077  0.00  0.00    +0.000 A 
ATOM     18  C   UNL     1       0.202  10.150  20.365  0.00  0.00    +0.000 A 
ATOM     19  C   UNL     1      -0.604  11.085  21.018  0.00  0.00    +0.000 A 
ATOM     20  C   UNL     1      -0.885  10.930  22.377  0.00  0.00    +0.000 A 
ATOM     21 CL   UNL     1      -1.871  12.086  23.183  0.00  0.00    +0.000 Cl
ATOM     22  C   UNL     1      -0.371   9.846  23.088  0.00  0.00    +0.000 A 
ATOM     23  C   UNL     1       0.437   8.908  22.436  0.00  0.00    +0.000 A 
ENDBRANCH  16  17
ENDBRANCH   6  15
TORSDOF 3
ENDMDL
MODEL 7
REMARK VINA RESULT:      -7.3      1.218      1.728
REMARK  Name = 
REMARK  3 active torsions:
REMARK  status: ('A' for Active; 'I' for Inactive)
REMARK    1  A    between atoms: C_4  and  C_5
REMARK    2  A    between atoms: N_12  and  N_13
REMARK    3  A    between atoms: C_14  and  C_15
REMARK                            x       y       z     vdW  Elec       q    Type
REMARK                         _______ _______ _______ _____ _____    ______ ____
ROOT
ATOM      1  N   UNL     1       2.550   5.095  20.886  0.00  0.00    +0.000 N 
ATOM      2  C   UNL     1       3.109   5.497  19.729  0.00  0.00    +0.000 A 
ATOM      3  N   UNL     1       3.965   4.821  19.000  0.00  0.00    +0.000 NA
ATOM      4  C   UNL     1       4.276   5.640  17.943  0.00  0.00    +0.000 A 
ATOM      5  C   UNL     1       3.569   6.821  18.023  0.00  0.00    +0.000 A 
ATOM      6  N   UNL     1       2.810   6.741  19.166  0.00  0.00    +0.000 N 
ATOM      7  H   UNL     1       2.594   4.108  21.111  0.00  0.00    +0.000 HD
ATOM      8  H   UNL     1       1.728   5.587  21.225  0.00  0.00    +0.000 HD
ENDROOT
BRANCH   4   9
ATOM      9  C   UNL     1       5.232   5.286  16.909  0.00  0.00    +0.000 A 
ATOM     10  C   UNL     1       5.042   4.205  16.041  0.00  0.00    +0.000 A 
ATOM     11  C   UNL     1       5.988   3.926  15.056  0.00  0.00    +0.000 A 
ATOM     12  C   UNL     1       7.104   4.739  14.968  0.00  0.00    +0.000 A 
ATOM     13  N   UNL     1       7.331   5.788  15.784  0.00  0.00    +0.000 NA
ATOM     14  C   UNL     1       6.389   6.037  16.733  0.00  0.00    +0.000 A 
ENDBRANCH   4   9
BRANCH   6  15
ATOM     15  N   UNL     1       1.915   7.632  19.711  0.00  0.00    +0.000 NA
ATOM     16  C   UNL     1       1.625   8.684  19.017  0.00  0.00    +0.000 C 
BRANCH  16  17
ATOM     17  C   UNL     1       0.676   9.702  19.515  0.00  0.00    +0.000 A 
ATOM     18  C   UNL     1       0.671  10.084  20.859  0.00  0.00    +0.000 A 
ATOM     19  C   UNL     1      -0.244  11.041  21.304  0.00  0.00    +0.000 A 
ATOM     20  C   UNL     1      -1.146  11.610  20.403  0.00  0.00    +0.000 A 
ATOM     21 CL   UNL     1      -2.277  12.783  20.953  0.00  0.00    +0.000 Cl
ATOM     22  C   UNL     1      -1.140  11.235  19.060  0.00  0.00    +0.000 A 
ATOM     23  C   UNL     1      -0.225  10.276  18.612  0.00  0.00    +0.000 A 
ENDBRANCH  16  17
ENDBRANCH   6  15
TORSDOF 3
ENDMDL
MODEL 8
REMARK VINA RESULT:      -7.2      1.918      3.109
REMARK  Name = 
REMARK  3 active torsions:
REMARK  status: ('A' for Active; 'I' for Inactive)
REMARK    1  A    between atoms: C_4  and  C_5
REMARK    2  A    between atoms: N_12  and  N_13
REMARK    3  A    between atoms: C_14  and  C_15
REMARK                            x       y       z     vdW  Elec       q    Type
REMARK                         _______ _______ _______ _____ _____    ______ ____
ROOT
ATOM      1  N   UNL     1       3.620   3.299  18.656  0.00  0.00    +0.000 N 
ATOM      2  C   UNL     1       4.166   4.027  17.662  0.00  0.00    +0.000 A 
ATOM      3  N   UNL     1       4.816   3.561  16.623  0.00  0.00    +0.000 NA
ATOM      4  C   UNL     1       5.209   4.666  15.910  0.00  0.00    +0.000 A 
ATOM      5  C   UNL     1       4.760   5.818  16.519  0.00  0.00    +0.000 A 
ATOM      6  N   UNL     1       4.082   5.421  17.646  0.00  0.00    +0.000 N 
ATOM      7  H   UNL     1       3.483   2.309  18.493  0.00  0.00    +0.000 HD
ATOM      8  H   UNL     1       2.939   3.744  19.264  0.00  0.00    +0.000 HD
ENDROOT
BRANCH   4   9
ATOM      9  C   UNL     1       6.001   4.596  14.695  0.00  0.00    +0.000 A 
ATOM     10  C   UNL     1       5.662   3.770  13.617  0.00  0.00    +0.000 A 
ATOM     11  C   UNL     1       6.452   3.760  12.469  0.00  0.00    +0.000 A 
ATOM     12  C   UNL     1       7.566   4.580  12.431  0.00  0.00    +0.000 A 
ATOM     13  N   UNL     1       7.934   5.389  13.445  0.00  0.00    +0.000 NA
ATOM     14  C   UNL     1       7.141   5.379  14.551  0.00  0.00    +0.000 A 
ENDBRANCH   4   9
BRANCH   6  15
ATOM     15  N   UNL     1       3.423   6.159  18.602  0.00  0.00    +0.000 NA
ATOM     16  C   UNL     1       2.734   7.176  18.198  0.00  0.00    +0.000 C 
BRANCH  16  17
ATOM     17  C   UNL     1       1.992   8.034  19.146  0.00  0.00    +0.000 A 
ATOM     18  C   UNL     1       1.802   7.642  20.474  0.00  0.00    +0.000 A 
ATOM     19  C   UNL     1       1.088   8.467  21.345  0.00  0.00    +0.000 A 
ATOM     20  C   UNL     1       0.568   9.678  20.884  0.00  0.00    +0.000 A 
ATOM     21 CL   UNL     1      -0.318  10.690  21.955  0.00  0.00    +0.000 Cl
ATOM     22  C   UNL     1       0.761  10.074  19.560  0.00  0.00    +0.000 A 
ATOM     23  C   UNL     1       1.476   9.250  18.686  0.00  0.00    +0.000 A 
ENDBRANCH  16  17
ENDBRANCH   6  15
TORSDOF 3
ENDMDL
MODEL 9
REMARK VINA RESULT:      -7.2      0.671      1.496
REMARK  Name = 
REMARK  3 active torsions:
REMARK  status: ('A' for Active; 'I' for Inactive)
REMARK    1  A    between atoms: C_4  and  C_5
REMARK    2  A    between atoms: N_12  and  N_13
REMARK    3  A    between atoms: C_14  and  C_15
REMARK                            x       y       z     vdW  Elec       q    Type
REMARK                         _______ _______ _______ _____ _____    ______ ____
ROOT
ATOM      1  N   UNL     1       2.289   4.540  21.464  0.00  0.00    +0.000 N 
ATOM      2  C   UNL     1       2.705   5.088  20.305  0.00  0.00    +0.000 A 
ATOM      3  N   UNL     1       3.440   4.506  19.387  0.00  0.00    +0.000 NA
ATOM      4  C   UNL     1       3.634   5.455  18.415  0.00  0.00    +0.000 A 
ATOM      5  C   UNL     1       2.977   6.622  18.742  0.00  0.00    +0.000 A 
ATOM      6  N   UNL     1       2.371   6.398  19.955  0.00  0.00    +0.000 N 
ATOM      7  H   UNL     1       2.335   3.532  21.550  0.00  0.00    +0.000 HD
ATOM      8  H   UNL     1       1.533   4.992  21.969  0.00  0.00    +0.000 HD
ENDROOT
BRANCH   4   9
ATOM      9  C   UNL     1       4.438   5.232  17.227  0.00  0.00    +0.000 A 
ATOM     10  C   UNL     1       4.809   6.265  16.359  0.00  0.00    +0.000 A 
ATOM     11  C   UNL     1       5.598   5.991  15.243  0.00  0.00    +0.000 A 
ATOM     12  C   UNL     1       5.993   4.684  15.024  0.00  0.00    +0.000 A 
ATOM     13  N   UNL     1       5.657   3.656  15.829  0.00  0.00    +0.000 NA
ATOM     14  C   UNL     1       4.890   3.955  16.911  0.00  0.00    +0.000 A 
ENDBRANCH   4   9
BRANCH   6  15
ATOM     15  N   UNL     1       1.580   7.218  20.724  0.00  0.00    +0.000 NA
ATOM     16  C   UNL     1       1.390   8.427  20.306  0.00  0.00    +0.000 C 
BRANCH  16  17
ATOM     17  C   UNL     1       0.557   9.387  21.062  0.00  0.00    +0.000 A 
ATOM     18  C   UNL     1       0.184   9.129  22.384  0.00  0.00    +0.000 A 
ATOM     19  C   UNL     1      -0.612  10.048  23.071  0.00  0.00    +0.000 A 
ATOM     20  C   UNL     1      -1.029  11.218  22.433  0.00  0.00    +0.000 A 
ATOM     21 CL   UNL     1      -2.016  12.346  23.276  0.00  0.00    +0.000 Cl
ATOM     22  C   UNL     1      -0.653  11.480  21.115  0.00  0.00    +0.000 A 
ATOM     23  C   UNL     1       0.144  10.561  20.425  0.00  0.00    +0.000 A 
ENDBRANCH  16  17
ENDBRANCH   6  15
TORSDOF 3
ENDMDL
