MODEL 1
REMARK VINA RESULT:      -7.5      0.000      0.000
REMARK  Name = 
REMARK  6 active torsions:
REMARK  status: ('A' for Active; 'I' for Inactive)
REMARK    1  A    between atoms: C_1  and  C_2
REMARK    2  A    between atoms: C_2  and  O_3
REMARK    3  A    between atoms: C_2  and  C_20
REMARK    4  A    between atoms: O_3  and  C_4
REMARK    5  A    between atoms: C_9  and  C_10
REMARK    6  A    between atoms: N_12  and  C_13
REMARK                            x       y       z     vdW  Elec       q    Type
REMARK                         _______ _______ _______ _____ _____    ______ ____
ROOT
ATOM      1  C   UNL     1       5.224   6.149  18.359  0.00  0.00    +0.000 A 
ATOM      2  C   UNL     1       6.115   5.689  19.256  0.00  0.00    +0.000 A 
ATOM      3  N   UNL     1       7.216   4.979  18.843  0.00  0.00    +0.000 N 
ATOM      4  C   UNL     1       7.496   4.677  17.527  0.00  0.00    +0.000 A 
ATOM      5  O   UNL     1       8.493   4.029  17.220  0.00  0.00    +0.000 OA
ATOM      6  C   UNL     1       6.527   5.185  16.513  0.00  0.00    +0.000 A 
ATOM      7  C   UNL     1       5.465   5.891  16.953  0.00  0.00    +0.000 A 
ATOM      8  H   UNL     1       7.879   4.631  19.526  0.00  0.00    +0.000 HD
ENDROOT
BRANCH   6   9
ATOM      9  C   UNL     1       6.648   4.953  15.042  0.00  0.00    +0.000 C 
ATOM     10  O   UNL     1       7.580   5.430  14.400  0.00  0.00    +0.000 OA
ATOM     11  N   UNL     1       5.667   4.196  14.445  0.00  0.00    +0.000 N 
ATOM     12  H   UNL     1       4.986   3.732  15.046  0.00  0.00    +0.000 HD
BRANCH  11  13
ATOM     13  C   UNL     1       5.718   3.852  13.025  0.00  0.00    +0.000 C 
ATOM     14  C   UNL     1       4.332   3.493  12.487  0.00  0.00    +0.000 C 
ATOM     15  C   UNL     1       4.424   3.008  11.046  0.00  0.00    +0.000 C 
ATOM     16  O   UNL     1       5.332   1.914  10.938  0.00  0.00    +0.000 OA
ATOM     17  C   UNL     1       6.660   2.285  11.304  0.00  0.00    +0.000 C 
ATOM     18  C   UNL     1       6.714   2.718  12.763  0.00  0.00    +0.000 C 
ENDBRANCH  11  13
ENDBRANCH   6   9
BRANCH   1  19
ATOM     19  O   UNL     1       4.058   6.838  18.589  0.00  0.00    +0.000 OA
BRANCH  19  21
ATOM     20  C   UNL     1       1.773   7.483  17.968  0.00  0.00    +0.000 C 
ATOM     21  C   UNL     1       2.818   6.359  18.050  0.00  0.00    +0.000 C 
BRANCH  21  22
ATOM     22  C   UNL     1       2.316   5.186  18.894  0.00  0.00    +0.000 A 
ATOM     23  C   UNL     1       1.810   5.400  20.199  0.00  0.00    +0.000 A 
ATOM     24 CL   UNL     1       1.610   6.979  20.885  0.00  0.00    +0.000 Cl
ATOM     25  C   UNL     1       1.438   4.330  21.030  0.00  0.00    +0.000 A 
ATOM     26  C   UNL     1       1.560   3.021  20.585  0.00  0.00    +0.000 A 
ATOM     27  C   UNL     1       2.019   2.787  19.297  0.00  0.00    +0.000 A 
ATOM     28  F   UNL     1       2.122   1.514  18.887  0.00  0.00    +0.000 F 
ATOM     29  C   UNL     1       2.377   3.844  18.447  0.00  0.00    +0.000 A 
ATOM     30 CL   UNL     1       2.878   3.412  16.847  0.00  0.00    +0.000 Cl
ENDBRANCH  21  22
ENDBRANCH  19  21
ENDBRANCH   1  19
TORSDOF 5
ENDMDL
MODEL 2
REMARK VINA RESULT:      -7.4      5.589      7.972
REMARK  Name = 
REMARK  6 active torsions:
REMARK  status: ('A' for Active; 'I' for Inactive)
REMARK    1  A    between atoms: C_1  and  C_2
REMARK    2  A    between atoms: C_2  and  O_3
REMARK    3  A    between atoms: C_2  and  C_20
REMARK    4  A    between atoms: O_3  and  C_4
REMARK    5  A    between atoms: C_9  and  C_10
REMARK    6  A    between atoms: N_12  and  C_13
REMARK                            x       y       z     vdW  Elec       q    Type
REMARK                         _______ _______ _______ _____ _____    ______ ____
ROOT
ATOM      1  C   UNL     1       0.266  10.497  20.403  0.00  0.00    +0.000 A 
ATOM      2  C   UNL     1       0.051   9.809  21.539  0.00  0.00    +0.000 A 
ATOM      3  N   UNL     1       0.556   8.540  21.692  0.00  0.00    +0.000 N 
ATOM      4  C   UNL     1       1.293   7.878  20.734  0.00  0.00    +0.000 A 
ATOM      5  O   UNL     1       1.711   6.739  20.925  0.00  0.00    +0.000 OA
ATOM      6  C   UNL     1       1.553   8.624  19.469  0.00  0.00    +0.000 A 
ATOM      7  C   UNL     1       1.055   9.873  19.359  0.00  0.00    +0.000 A 
ATOM      8  H   UNL     1       0.384   8.027  22.550  0.00  0.00    +0.000 HD
ENDROOT
BRANCH   6   9
ATOM      9  C   UNL     1       2.320   8.075  18.310  0.00  0.00    +0.000 C 
ATOM     10  O   UNL     1       2.361   8.672  17.237  0.00  0.00    +0.000 OA
ATOM     11  N   UNL     1       2.961   6.873  18.497  0.00  0.00    +0.000 N 
ATOM     12  H   UNL     1       2.987   6.483  19.439  0.00  0.00    +0.000 HD
BRANCH  11  13
ATOM     13  C   UNL     1       3.791   6.273  17.454  0.00  0.00    +0.000 C 
ATOM     14  C   UNL     1       3.716   4.746  17.489  0.00  0.00    +0.000 C 
ATOM     15  C   UNL     1       4.689   4.137  16.487  0.00  0.00    +0.000 C 
ATOM     16  O   UNL     1       6.015   4.606  16.722  0.00  0.00    +0.000 OA
ATOM     17  C   UNL     1       6.120   6.018  16.549  0.00  0.00    +0.000 C 
ATOM     18  C   UNL     1       5.244   6.749  17.557  0.00  0.00    +0.000 C 
ENDBRANCH  11  13
ENDBRANCH   6   9
BRANCH   1  19
ATOM     19  O   UNL     1      -0.188  11.747  20.063  0.00  0.00    +0.000 OA
BRANCH  19  21
ATOM     20  C   UNL     1      -0.371  13.398  18.255  0.00  0.00    +0.000 C 
ATOM     21  C   UNL     1      -0.726  11.988  18.755  0.00  0.00    +0.000 C 
BRANCH  21  22
ATOM     22  C   UNL     1      -2.240  11.766  18.779  0.00  0.00    +0.000 A 
ATOM     23  C   UNL     1      -2.851  10.864  17.875  0.00  0.00    +0.000 A 
ATOM     24 CL   UNL     1      -1.946   9.872  16.778  0.00  0.00    +0.000 Cl
ATOM     25  C   UNL     1      -4.246  10.718  17.807  0.00  0.00    +0.000 A 
ATOM     26  C   UNL     1      -5.069  11.467  18.637  0.00  0.00    +0.000 A 
ATOM     27  C   UNL     1      -4.493  12.331  19.557  0.00  0.00    +0.000 A 
ATOM     28  F   UNL     1      -5.309  13.039  20.352  0.00  0.00    +0.000 F 
ATOM     29  C   UNL     1      -3.101  12.475  19.650  0.00  0.00    +0.000 A 
ATOM     30 CL   UNL     1      -2.516  13.544  20.880  0.00  0.00    +0.000 Cl
ENDBRANCH  21  22
ENDBRANCH  19  21
ENDBRANCH   1  19
TORSDOF 5
ENDMDL
MODEL 3
REMARK VINA RESULT:      -7.3      5.728     10.099
REMARK  Name = 
REMARK  6 active torsions:
REMARK  status: ('A' for Active; 'I' for Inactive)
REMARK    1  A    between atoms: C_1  and  C_2
REMARK    2  A    between atoms: C_2  and  O_3
REMARK    3  A    between atoms: C_2  and  C_20
REMARK    4  A    between atoms: O_3  and  C_4
REMARK    5  A    between atoms: C_9  and  C_10
REMARK    6  A    between atoms: N_12  and  C_13
REMARK                            x       y       z     vdW  Elec       q    Type
REMARK                         _______ _______ _______ _____ _____    ______ ____
ROOT
ATOM      1  C   UNL     1       1.877   8.323  18.907  0.00  0.00    +0.000 A 
ATOM      2  C   UNL     1       1.827   9.035  17.767  0.00  0.00    +0.000 A 
ATOM      3  N   UNL     1       1.278  10.295  17.755  0.00  0.00    +0.000 N 
ATOM      4  C   UNL     1       0.744  10.918  18.862  0.00  0.00    +0.000 A 
ATOM      5  O   UNL     1       0.258  12.044  18.788  0.00  0.00    +0.000 OA
ATOM      6  C   UNL     1       0.796  10.152  20.141  0.00  0.00    +0.000 A 
ATOM      7  C   UNL     1       1.355   8.924  20.118  0.00  0.00    +0.000 A 
ATOM      8  H   UNL     1       1.240  10.822  16.890  0.00  0.00    +0.000 HD
ENDROOT
BRANCH   6   9
ATOM      9  C   UNL     1       0.260  10.649  21.444  0.00  0.00    +0.000 C 
ATOM     10  O   UNL     1       0.557  10.102  22.502  0.00  0.00    +0.000 OA
ATOM     11  N   UNL     1      -0.587  11.732  21.399  0.00  0.00    +0.000 N 
ATOM     12  H   UNL     1      -0.705  12.214  20.508  0.00  0.00    +0.000 HD
BRANCH  11  13
ATOM     13  C   UNL     1      -1.121  12.342  22.616  0.00  0.00    +0.000 C 
ATOM     14  C   UNL     1      -2.644  12.221  22.679  0.00  0.00    +0.000 C 
ATOM     15  C   UNL     1      -3.194  12.979  23.882  0.00  0.00    +0.000 C 
ATOM     16  O   UNL     1      -2.772  14.341  23.856  0.00  0.00    +0.000 OA
ATOM     17  C   UNL     1      -1.354  14.462  23.942  0.00  0.00    +0.000 C 
ATOM     18  C   UNL     1      -0.685  13.806  22.741  0.00  0.00    +0.000 C 
ENDBRANCH  11  13
ENDBRANCH   6   9
BRANCH   1  19
ATOM     19  O   UNL     1       2.350   7.048  19.098  0.00  0.00    +0.000 OA
BRANCH  19  21
ATOM     20  C   UNL     1       1.829   5.004  17.842  0.00  0.00    +0.000 C 
ATOM     21  C   UNL     1       2.730   6.243  17.973  0.00  0.00    +0.000 C 
BRANCH  21  22
ATOM     22  C   UNL     1       4.204   5.854  18.100  0.00  0.00    +0.000 A 
ATOM     23  C   UNL     1       4.664   5.123  19.223  0.00  0.00    +0.000 A 
ATOM     24 CL   UNL     1       3.602   4.521  20.454  0.00  0.00    +0.000 Cl
ATOM     25  C   UNL     1       6.027   4.843  19.413  0.00  0.00    +0.000 A 
ATOM     26  C   UNL     1       6.968   5.282  18.492  0.00  0.00    +0.000 A 
ATOM     27  C   UNL     1       6.538   5.968  17.365  0.00  0.00    +0.000 A 
ATOM     28  F   UNL     1       7.466   6.376  16.485  0.00  0.00    +0.000 F 
ATOM     29  C   UNL     1       5.179   6.240  17.150  0.00  0.00    +0.000 A 
ATOM     30 CL   UNL     1       4.779   7.053  15.674  0.00  0.00    +0.000 Cl
ENDBRANCH  21  22
ENDBRANCH  19  21
ENDBRANCH   1  19
TORSDOF 5
ENDMDL
MODEL 4
REMARK VINA RESULT:      -7.1      4.948      7.259
REMARK  Name = 
REMARK  6 active torsions:
REMARK  status: ('A' for Active; 'I' for Inactive)
REMARK    1  A    between atoms: C_1  and  C_2
REMARK    2  A    between atoms: C_2  and  O_3
REMARK    3  A    between atoms: C_2  and  C_20
REMARK    4  A    between atoms: O_3  and  C_4
REMARK    5  A    between atoms: C_9  and  C_10
REMARK    6  A    between atoms: N_12  and  C_13
REMARK                            x       y       z     vdW  Elec       q    Type
REMARK                         _______ _______ _______ _____ _____    ______ ____
ROOT
ATOM      1  C   UNL     1       1.423   8.924  19.745  0.00  0.00    +0.000 A 
ATOM      2  C   UNL     1       1.023   8.499  20.957  0.00  0.00    +0.000 A 
ATOM      3  N   UNL     1       1.277   7.211  21.364  0.00  0.00    +0.000 N 
ATOM      4  C   UNL     1       1.932   6.271  20.597  0.00  0.00    +0.000 A 
ATOM      5  O   UNL     1       2.121   5.130  21.011  0.00  0.00    +0.000 OA
ATOM      6  C   UNL     1       2.393   6.721  19.251  0.00  0.00    +0.000 A 
ATOM      7  C   UNL     1       2.139   7.996  18.892  0.00  0.00    +0.000 A 
ATOM      8  H   UNL     1       0.967   6.898  22.277  0.00  0.00    +0.000 HD
ENDROOT
BRANCH   6   9
ATOM      9  C   UNL     1       3.107   5.849  18.271  0.00  0.00    +0.000 C 
ATOM     10  O   UNL     1       2.513   4.970  17.653  0.00  0.00    +0.000 OA
ATOM     11  N   UNL     1       4.455   6.068  18.106  0.00  0.00    +0.000 N 
ATOM     12  H   UNL     1       4.869   6.883  18.558  0.00  0.00    +0.000 HD
BRANCH  11  13
ATOM     13  C   UNL     1       5.242   5.318  17.129  0.00  0.00    +0.000 C 
ATOM     14  C   UNL     1       6.680   5.111  17.609  0.00  0.00    +0.000 C 
ATOM     15  C   UNL     1       7.519   4.449  16.523  0.00  0.00    +0.000 C 
ATOM     16  O   UNL     1       7.469   5.205  15.315  0.00  0.00    +0.000 OA
ATOM     17  C   UNL     1       6.146   5.278  14.786  0.00  0.00    +0.000 C 
ATOM     18  C   UNL     1       5.220   5.998  15.756  0.00  0.00    +0.000 C 
ENDBRANCH  11  13
ENDBRANCH   6   9
BRANCH   1  19
ATOM     19  O   UNL     1       1.226  10.151  19.162  0.00  0.00    +0.000 OA
BRANCH  19  21
ATOM     20  C   UNL     1      -0.897  10.337  17.943  0.00  0.00    +0.000 C 
ATOM     21  C   UNL     1      -0.075  10.755  19.172  0.00  0.00    +0.000 C 
BRANCH  21  22
ATOM     22  C   UNL     1       0.070  12.276  19.259  0.00  0.00    +0.000 A 
ATOM     23  C   UNL     1      -0.939  13.064  19.864  0.00  0.00    +0.000 A 
ATOM     24 CL   UNL     1      -2.327  12.380  20.644  0.00  0.00    +0.000 Cl
ATOM     25  C   UNL     1      -0.877  14.468  19.865  0.00  0.00    +0.000 A 
ATOM     26  C   UNL     1       0.189  15.122  19.264  0.00  0.00    +0.000 A 
ATOM     27  C   UNL     1       1.208  14.372  18.697  0.00  0.00    +0.000 A 
ATOM     28  F   UNL     1       2.231  15.027  18.127  0.00  0.00    +0.000 F 
ATOM     29  C   UNL     1       1.172  12.969  18.703  0.00  0.00    +0.000 A 
ATOM     30 CL   UNL     1       2.537  12.159  18.011  0.00  0.00    +0.000 Cl
ENDBRANCH  21  22
ENDBRANCH  19  21
ENDBRANCH   1  19
TORSDOF 5
ENDMDL
MODEL 5
REMARK VINA RESULT:      -7.1      5.487      7.725
REMARK  Name = 
REMARK  6 active torsions:
REMARK  status: ('A' for Active; 'I' for Inactive)
REMARK    1  A    between atoms: C_1  and  C_2
REMARK    2  A    between atoms: C_2  and  O_3
REMARK    3  A    between atoms: C_2  and  C_20
REMARK    4  A    between atoms: O_3  and  C_4
REMARK    5  A    between atoms: C_9  and  C_10
REMARK    6  A    between atoms: N_12  and  C_13
REMARK                            x       y       z     vdW  Elec       q    Type
REMARK                         _______ _______ _______ _____ _____    ______ ____
ROOT
ATOM      1  C   UNL     1       0.437  10.500  20.479  0.00  0.00    +0.000 A 
ATOM      2  C   UNL     1       0.180   9.788  21.591  0.00  0.00    +0.000 A 
ATOM      3  N   UNL     1       0.612   8.489  21.703  0.00  0.00    +0.000 N 
ATOM      4  C   UNL     1       1.315   7.818  20.724  0.00  0.00    +0.000 A 
ATOM      5  O   UNL     1       1.667   6.652  20.878  0.00  0.00    +0.000 OA
ATOM      6  C   UNL     1       1.620   8.590  19.484  0.00  0.00    +0.000 A 
ATOM      7  C   UNL     1       1.192   9.867  19.415  0.00  0.00    +0.000 A 
ATOM      8  H   UNL     1       0.409   7.958  22.542  0.00  0.00    +0.000 HD
ENDROOT
BRANCH   6   9
ATOM      9  C   UNL     1       2.357   8.037  18.308  0.00  0.00    +0.000 C 
ATOM     10  O   UNL     1       2.327   8.602  17.218  0.00  0.00    +0.000 OA
ATOM     11  N   UNL     1       3.056   6.869  18.501  0.00  0.00    +0.000 N 
ATOM     12  H   UNL     1       3.140   6.510  19.452  0.00  0.00    +0.000 HD
BRANCH  11  13
ATOM     13  C   UNL     1       3.865   6.272  17.440  0.00  0.00    +0.000 C 
ATOM     14  C   UNL     1       3.748   4.746  17.439  0.00  0.00    +0.000 C 
ATOM     15  C   UNL     1       4.700   4.135  16.418  0.00  0.00    +0.000 C 
ATOM     16  O   UNL     1       6.039   4.562  16.657  0.00  0.00    +0.000 OA
ATOM     17  C   UNL     1       6.182   5.975  16.517  0.00  0.00    +0.000 C 
ATOM     18  C   UNL     1       5.330   6.705  17.547  0.00  0.00    +0.000 C 
ENDBRANCH  11  13
ENDBRANCH   6   9
BRANCH   1  19
ATOM     19  O   UNL     1       0.054  11.785  20.179  0.00  0.00    +0.000 OA
BRANCH  19  21
ATOM     20  C   UNL     1       0.064  13.408  18.338  0.00  0.00    +0.000 C 
ATOM     21  C   UNL     1      -0.501  12.091  18.893  0.00  0.00    +0.000 C 
BRANCH  21  22
ATOM     22  C   UNL     1      -2.028  12.134  18.995  0.00  0.00    +0.000 A 
ATOM     23  C   UNL     1      -2.660  12.814  20.064  0.00  0.00    +0.000 A 
ATOM     24 CL   UNL     1      -1.785  13.732  21.246  0.00  0.00    +0.000 Cl
ATOM     25  C   UNL     1      -4.054  12.783  20.236  0.00  0.00    +0.000 A 
ATOM     26  C   UNL     1      -4.853  12.073  19.351  0.00  0.00    +0.000 A 
ATOM     27  C   UNL     1      -4.261  11.429  18.275  0.00  0.00    +0.000 A 
ATOM     28  F   UNL     1      -5.055  10.755  17.429  0.00  0.00    +0.000 F 
ATOM     29  C   UNL     1      -2.872  11.466  18.077  0.00  0.00    +0.000 A 
ATOM     30 CL   UNL     1      -2.273  10.667  16.663  0.00  0.00    +0.000 Cl
ENDBRANCH  21  22
ENDBRANCH  19  21
ENDBRANCH   1  19
TORSDOF 5
ENDMDL
MODEL 6
REMARK VINA RESULT:      -7.1      4.949      7.158
REMARK  Name = 
REMARK  6 active torsions:
REMARK  status: ('A' for Active; 'I' for Inactive)
REMARK    1  A    between atoms: C_1  and  C_2
REMARK    2  A    between atoms: C_2  and  O_3
REMARK    3  A    between atoms: C_2  and  C_20
REMARK    4  A    between atoms: O_3  and  C_4
REMARK    5  A    between atoms: C_9  and  C_10
REMARK    6  A    between atoms: N_12  and  C_13
REMARK                            x       y       z     vdW  Elec       q    Type
REMARK                         _______ _______ _______ _____ _____    ______ ____
ROOT
ATOM      1  C   UNL     1       1.368   8.991  19.593  0.00  0.00    +0.000 A 
ATOM      2  C   UNL     1       1.004   8.623  20.835  0.00  0.00    +0.000 A 
ATOM      3  N   UNL     1       1.303   7.367  21.305  0.00  0.00    +0.000 N 
ATOM      4  C   UNL     1       1.968   6.404  20.577  0.00  0.00    +0.000 A 
ATOM      5  O   UNL     1       2.199   5.294  21.049  0.00  0.00    +0.000 OA
ATOM      6  C   UNL     1       2.390   6.792  19.200  0.00  0.00    +0.000 A 
ATOM      7  C   UNL     1       2.093   8.038  18.776  0.00  0.00    +0.000 A 
ATOM      8  H   UNL     1       1.020   7.096  22.241  0.00  0.00    +0.000 HD
ENDROOT
BRANCH   6   9
ATOM      9  C   UNL     1       3.109   5.887  18.253  0.00  0.00    +0.000 C 
ATOM     10  O   UNL     1       2.528   4.957  17.700  0.00  0.00    +0.000 OA
ATOM     11  N   UNL     1       4.445   6.136  18.043  0.00  0.00    +0.000 N 
ATOM     12  H   UNL     1       4.843   6.988  18.438  0.00  0.00    +0.000 HD
BRANCH  11  13
ATOM     13  C   UNL     1       5.233   5.355  17.091  0.00  0.00    +0.000 C 
ATOM     14  C   UNL     1       6.669   5.160  17.581  0.00  0.00    +0.000 C 
ATOM     15  C   UNL     1       7.510   4.464  16.518  0.00  0.00    +0.000 C 
ATOM     16  O   UNL     1       7.465   5.183  15.288  0.00  0.00    +0.000 OA
ATOM     17  C   UNL     1       6.144   5.244  14.753  0.00  0.00    +0.000 C 
ATOM     18  C   UNL     1       5.216   5.995  15.699  0.00  0.00    +0.000 C 
ENDBRANCH  11  13
ENDBRANCH   6   9
BRANCH   1  19
ATOM     19  O   UNL     1       1.124  10.179  18.948  0.00  0.00    +0.000 OA
BRANCH  19  21
ATOM     20  C   UNL     1      -0.877  11.467  18.348  0.00  0.00    +0.000 C 
ATOM     21  C   UNL     1       0.126  11.080  19.447  0.00  0.00    +0.000 C 
BRANCH  21  22
ATOM     22  C   UNL     1       0.806  12.313  20.046  0.00  0.00    +0.000 A 
ATOM     23  C   UNL     1       0.336  12.878  21.257  0.00  0.00    +0.000 A 
ATOM     24 CL   UNL     1      -0.935  12.169  22.197  0.00  0.00    +0.000 Cl
ATOM     25  C   UNL     1       0.877  14.067  21.774  0.00  0.00    +0.000 A 
ATOM     26  C   UNL     1       1.898  14.724  21.100  0.00  0.00    +0.000 A 
ATOM     27  C   UNL     1       2.399  14.170  19.931  0.00  0.00    +0.000 A 
ATOM     28  F   UNL     1       3.390  14.820  19.301  0.00  0.00    +0.000 F 
ATOM     29  C   UNL     1       1.883  12.973  19.411  0.00  0.00    +0.000 A 
ATOM     30 CL   UNL     1       2.641  12.366  17.977  0.00  0.00    +0.000 Cl
ENDBRANCH  21  22
ENDBRANCH  19  21
ENDBRANCH   1  19
TORSDOF 5
ENDMDL
MODEL 7
REMARK VINA RESULT:      -7.1      5.509      9.827
REMARK  Name = 
REMARK  6 active torsions:
REMARK  status: ('A' for Active; 'I' for Inactive)
REMARK    1  A    between atoms: C_1  and  C_2
REMARK    2  A    between atoms: C_2  and  O_3
REMARK    3  A    between atoms: C_2  and  C_20
REMARK    4  A    between atoms: O_3  and  C_4
REMARK    5  A    between atoms: C_9  and  C_10
REMARK    6  A    between atoms: N_12  and  C_13
REMARK                            x       y       z     vdW  Elec       q    Type
REMARK                         _______ _______ _______ _____ _____    ______ ____
ROOT
ATOM      1  C   UNL     1       2.040   7.984  19.144  0.00  0.00    +0.000 A 
ATOM      2  C   UNL     1       1.889   8.549  17.932  0.00  0.00    +0.000 A 
ATOM      3  N   UNL     1       1.113   9.673  17.778  0.00  0.00    +0.000 N 
ATOM      4  C   UNL     1       0.439  10.297  18.806  0.00  0.00    +0.000 A 
ATOM      5  O   UNL     1      -0.248  11.294  18.605  0.00  0.00    +0.000 OA
ATOM      6  C   UNL     1       0.598   9.694  20.162  0.00  0.00    +0.000 A 
ATOM      7  C   UNL     1       1.379   8.600  20.278  0.00  0.00    +0.000 A 
ATOM      8  H   UNL     1       1.001  10.088  16.860  0.00  0.00    +0.000 HD
ENDROOT
BRANCH   6   9
ATOM      9  C   UNL     1      -0.060  10.215  21.398  0.00  0.00    +0.000 C 
ATOM     10  O   UNL     1      -0.273   9.482  22.360  0.00  0.00    +0.000 OA
ATOM     11  N   UNL     1      -0.424  11.541  21.401  0.00  0.00    +0.000 N 
ATOM     12  H   UNL     1      -0.119  12.125  20.623  0.00  0.00    +0.000 HD
BRANCH  11  13
ATOM     13  C   UNL     1      -1.017  12.173  22.578  0.00  0.00    +0.000 C 
ATOM     14  C   UNL     1      -2.541  12.040  22.576  0.00  0.00    +0.000 C 
ATOM     15  C   UNL     1      -3.150  12.819  23.735  0.00  0.00    +0.000 C 
ATOM     16  O   UNL     1      -2.739  14.184  23.697  0.00  0.00    +0.000 OA
ATOM     17  C   UNL     1      -1.327  14.321  23.843  0.00  0.00    +0.000 C 
ATOM     18  C   UNL     1      -0.600  13.643  22.689  0.00  0.00    +0.000 C 
ENDBRANCH  11  13
ENDBRANCH   6   9
BRANCH   1  19
ATOM     19  O   UNL     1       2.739   6.850  19.477  0.00  0.00    +0.000 OA
BRANCH  19  21
ATOM     20  C   UNL     1       2.140   5.151  21.143  0.00  0.00    +0.000 C 
ATOM     21  C   UNL     1       2.048   5.610  19.679  0.00  0.00    +0.000 C 
BRANCH  21  22
ATOM     22  C   UNL     1       2.608   4.554  18.724  0.00  0.00    +0.000 A 
ATOM     23  C   UNL     1       1.943   3.316  18.547  0.00  0.00    +0.000 A 
ATOM     24 CL   UNL     1       0.417   2.953  19.285  0.00  0.00    +0.000 Cl
ATOM     25  C   UNL     1       2.489   2.291  17.756  0.00  0.00    +0.000 A 
ATOM     26  C   UNL     1       3.710   2.472  17.121  0.00  0.00    +0.000 A 
ATOM     27  C   UNL     1       4.363   3.689  17.250  0.00  0.00    +0.000 A 
ATOM     28  F   UNL     1       5.539   3.842  16.621  0.00  0.00    +0.000 F 
ATOM     29  C   UNL     1       3.823   4.729  18.021  0.00  0.00    +0.000 A 
ATOM     30 CL   UNL     1       4.715   6.213  18.047  0.00  0.00    +0.000 Cl
ENDBRANCH  21  22
ENDBRANCH  19  21
ENDBRANCH   1  19
TORSDOF 5
ENDMDL
MODEL 8
REMARK VINA RESULT:      -7.0      4.954      7.262
REMARK  Name = 
REMARK  6 active torsions:
REMARK  status: ('A' for Active; 'I' for Inactive)
REMARK    1  A    between atoms: C_1  and  C_2
REMARK    2  A    between atoms: C_2  and  O_3
REMARK    3  A    between atoms: C_2  and  C_20
REMARK    4  A    between atoms: O_3  and  C_4
REMARK    5  A    between atoms: C_9  and  C_10
REMARK    6  A    between atoms: N_12  and  C_13
REMARK                            x       y       z     vdW  Elec       q    Type
REMARK                         _______ _______ _______ _____ _____    ______ ____
ROOT
ATOM      1  C   UNL     1       1.371   8.865  19.732  0.00  0.00    +0.000 A 
ATOM      2  C   UNL     1       1.002   8.447  20.956  0.00  0.00    +0.000 A 
ATOM      3  N   UNL     1       1.295   7.172  21.375  0.00  0.00    +0.000 N 
ATOM      4  C   UNL     1       1.961   6.238  20.610  0.00  0.00    +0.000 A 
ATOM      5  O   UNL     1       2.186   5.108  21.037  0.00  0.00    +0.000 OA
ATOM      6  C   UNL     1       2.389   6.681  19.252  0.00  0.00    +0.000 A 
ATOM      7  C   UNL     1       2.097   7.944  18.879  0.00  0.00    +0.000 A 
ATOM      8  H   UNL     1       1.008   6.864  22.297  0.00  0.00    +0.000 HD
ENDROOT
BRANCH   6   9
ATOM      9  C   UNL     1       3.109   5.814  18.271  0.00  0.00    +0.000 C 
ATOM     10  O   UNL     1       2.526   4.915  17.671  0.00  0.00    +0.000 OA
ATOM     11  N   UNL     1       4.449   6.061  18.084  0.00  0.00    +0.000 N 
ATOM     12  H   UNL     1       4.851   6.891  18.521  0.00  0.00    +0.000 HD
BRANCH  11  13
ATOM     13  C   UNL     1       5.239   5.318  17.104  0.00  0.00    +0.000 C 
ATOM     14  C   UNL     1       6.671   5.094  17.595  0.00  0.00    +0.000 C 
ATOM     15  C   UNL     1       7.515   4.440  16.508  0.00  0.00    +0.000 C 
ATOM     16  O   UNL     1       7.482   5.211  15.309  0.00  0.00    +0.000 OA
ATOM     17  C   UNL     1       6.164   5.301  14.770  0.00  0.00    +0.000 C 
ATOM     18  C   UNL     1       5.234   6.016  15.741  0.00  0.00    +0.000 C 
ENDBRANCH  11  13
ENDBRANCH   6   9
BRANCH   1  19
ATOM     19  O   UNL     1       1.134  10.080  19.136  0.00  0.00    +0.000 OA
BRANCH  19  21
ATOM     20  C   UNL     1      -0.920  11.088  18.248  0.00  0.00    +0.000 C 
ATOM     21  C   UNL     1      -0.035  10.836  19.479  0.00  0.00    +0.000 C 
BRANCH  21  22
ATOM     22  C   UNL     1       0.384  12.147  20.147  0.00  0.00    +0.000 A 
ATOM     23  C   UNL     1       1.492  12.883  19.660  0.00  0.00    +0.000 A 
ATOM     24 CL   UNL     1       2.366  12.434  18.232  0.00  0.00    +0.000 Cl
ATOM     25  C   UNL     1       1.959  14.033  20.316  0.00  0.00    +0.000 A 
ATOM     26  C   UNL     1       1.337  14.482  21.473  0.00  0.00    +0.000 A 
ATOM     27  C   UNL     1       0.227  13.799  21.949  0.00  0.00    +0.000 A 
ATOM     28  F   UNL     1      -0.361  14.255  23.066  0.00  0.00    +0.000 F 
ATOM     29  C   UNL     1      -0.264  12.659  21.296  0.00  0.00    +0.000 A 
ATOM     30 CL   UNL     1      -1.690  11.940  21.966  0.00  0.00    +0.000 Cl
ENDBRANCH  21  22
ENDBRANCH  19  21
ENDBRANCH   1  19
TORSDOF 5
ENDMDL
MODEL 9
REMARK VINA RESULT:      -7.0      4.875      7.007
REMARK  Name = 
REMARK  6 active torsions:
REMARK  status: ('A' for Active; 'I' for Inactive)
REMARK    1  A    between atoms: C_1  and  C_2
REMARK    2  A    between atoms: C_2  and  O_3
REMARK    3  A    between atoms: C_2  and  C_20
REMARK    4  A    between atoms: O_3  and  C_4
REMARK    5  A    between atoms: C_9  and  C_10
REMARK    6  A    between atoms: N_12  and  C_13
REMARK                            x       y       z     vdW  Elec       q    Type
REMARK                         _______ _______ _______ _____ _____    ______ ____
ROOT
ATOM      1  C   UNL     1       0.836   9.354  20.481  0.00  0.00    +0.000 A 
ATOM      2  C   UNL     1       0.590   8.463  21.458  0.00  0.00    +0.000 A 
ATOM      3  N   UNL     1       1.103   7.190  21.385  0.00  0.00    +0.000 N 
ATOM      4  C   UNL     1       1.880   6.724  20.346  0.00  0.00    +0.000 A 
ATOM      5  O   UNL     1       2.303   5.571  20.332  0.00  0.00    +0.000 OA
ATOM      6  C   UNL     1       2.174   7.698  19.254  0.00  0.00    +0.000 A 
ATOM      7  C   UNL     1       1.667   8.942  19.365  0.00  0.00    +0.000 A 
ATOM      8  H   UNL     1       0.908   6.523  22.123  0.00  0.00    +0.000 HD
ENDROOT
BRANCH   6   9
ATOM      9  C   UNL     1       2.985   7.382  18.040  0.00  0.00    +0.000 C 
ATOM     10  O   UNL     1       2.861   8.034  17.007  0.00  0.00    +0.000 OA
ATOM     11  N   UNL     1       3.861   6.325  18.131  0.00  0.00    +0.000 N 
ATOM     12  H   UNL     1       4.005   5.896  19.045  0.00  0.00    +0.000 HD
BRANCH  11  13
ATOM     13  C   UNL     1       4.750   5.966  17.026  0.00  0.00    +0.000 C 
ATOM     14  C   UNL     1       4.647   4.478  16.688  0.00  0.00    +0.000 C 
ATOM     15  C   UNL     1       5.675   4.095  15.631  0.00  0.00    +0.000 C 
ATOM     16  O   UNL     1       6.990   4.451  16.053  0.00  0.00    +0.000 OA
ATOM     17  C   UNL     1       7.130   5.859  16.231  0.00  0.00    +0.000 C 
ATOM     18  C   UNL     1       6.200   6.356  17.331  0.00  0.00    +0.000 C 
ENDBRANCH  11  13
ENDBRANCH   6   9
BRANCH   1  19
ATOM     19  O   UNL     1       0.381  10.645  20.367  0.00  0.00    +0.000 OA
BRANCH  19  21
ATOM     20  C   UNL     1       0.912  12.398  18.733  0.00  0.00    +0.000 C 
ATOM     21  C   UNL     1       0.041  11.180  19.080  0.00  0.00    +0.000 C 
BRANCH  21  22
ATOM     22  C   UNL     1      -1.448  11.528  19.051  0.00  0.00    +0.000 A 
ATOM     23  C   UNL     1      -1.989  12.463  19.967  0.00  0.00    +0.000 A 
ATOM     24 CL   UNL     1      -1.014  13.356  21.087  0.00  0.00    +0.000 Cl
ATOM     25  C   UNL     1      -3.368  12.724  20.028  0.00  0.00    +0.000 A 
ATOM     26  C   UNL     1      -4.244  12.061  19.179  0.00  0.00    +0.000 A 
ATOM     27  C   UNL     1      -3.735  11.168  18.248  0.00  0.00    +0.000 A 
ATOM     28  F   UNL     1      -4.601  10.544  17.434  0.00  0.00    +0.000 F 
ATOM     29  C   UNL     1      -2.358  10.910  18.161  0.00  0.00    +0.000 A 
ATOM     30 CL   UNL     1      -1.855   9.816  16.916  0.00  0.00    +0.000 Cl
ENDBRANCH  21  22
ENDBRANCH  19  21
ENDBRANCH   1  19
TORSDOF 5
ENDMDL
