MODEL 1
REMARK VINA RESULT:      -7.5      0.000      0.000
REMARK  Name = 
REMARK  6 active torsions:
REMARK  status: ('A' for Active; 'I' for Inactive)
REMARK    1  A    between atoms: C_1  and  C_2
REMARK    2  A    between atoms: C_2  and  S_3
REMARK    3  A    between atoms: S_3  and  N_6
REMARK    4  A    between atoms: N_6  and  C_7
REMARK    5  A    between atoms: CA_8  and  C_9
REMARK    6  A    between atoms: C_9  and  OXT_11
REMARK                            x       y       z     vdW  Elec       q    Type
REMARK                         _______ _______ _______ _____ _____    ______ ____
ROOT
ATOM      1  C   UNL     1       5.390   4.242  17.382  0.00  0.00    +0.000 A 
ATOM      2  CA  UNL     1       6.130   4.890  18.357  0.00  0.00    +0.000 A 
ATOM      3  N   UNL     1       5.241   5.265  19.341  0.00  0.00    +0.000 N 
ATOM      4  C   UNL     1       3.970   4.831  19.047  0.00  0.00    +0.000 A 
ATOM      5  C   UNL     1       2.782   4.963  19.776  0.00  0.00    +0.000 A 
ATOM      6  C   UNL     1       1.630   4.369  19.249  0.00  0.00    +0.000 A 
ATOM      7  C   UNL     1       1.669   3.672  18.044  0.00  0.00    +0.000 A 
ATOM      8  C   UNL     1       2.863   3.566  17.320  0.00  0.00    +0.000 A 
ATOM      9  C   UNL     1       4.037   4.162  17.826  0.00  0.00    +0.000 A 
ATOM     10  H   UNL     1       5.488   5.724  20.206  0.00  0.00    +0.000 HD
ENDROOT
BRANCH   1  11
ATOM     11  N   UNL     1       5.885   3.721  16.168  0.00  0.00    +0.000 N 
ATOM     12  H   UNL     1       6.788   3.239  16.293  0.00  0.00    +0.000 HD
BRANCH  11  13
ATOM     13  S   UNL     1       6.192   4.842  14.911  0.00  0.00    +0.000 S 
ATOM     14  O   UNL     1       7.631   4.900  14.784  0.00  0.00    +0.000 OA
ATOM     15  O   UNL     1       5.404   6.040  15.122  0.00  0.00    +0.000 OA
BRANCH  13  17
ATOM     16  C   UNL     1       6.623   3.703  12.474  0.00  0.00    +0.000 C 
ATOM     17  C   UNL     1       5.537   3.962  13.501  0.00  0.00    +0.000 C 
ENDBRANCH  13  17
ENDBRANCH  11  13
ENDBRANCH   1  11
BRANCH   2  18
ATOM     18  C   UNL     1       7.556   5.089  18.378  0.00  0.00    +0.000 C 
ATOM     19  O   UNL     1       8.115   6.044  18.895  0.00  0.00    +0.000 OA
BRANCH  18  20
ATOM     20  OXT UNL     1       8.232   4.102  17.745  0.00  0.00    +0.000 OA
ATOM     21  HXT UNL     1       9.121   4.369  17.446  0.00  0.00    +0.000 HD
ENDBRANCH  18  20
ENDBRANCH   2  18
TORSDOF 5
ENDMDL
MODEL 2
REMARK VINA RESULT:      -7.2      2.613      3.723
REMARK  Name = 
REMARK  6 active torsions:
REMARK  status: ('A' for Active; 'I' for Inactive)
REMARK    1  A    between atoms: C_1  and  C_2
REMARK    2  A    between atoms: C_2  and  S_3
REMARK    3  A    between atoms: S_3  and  N_6
REMARK    4  A    between atoms: N_6  and  C_7
REMARK    5  A    between atoms: CA_8  and  C_9
REMARK    6  A    between atoms: C_9  and  OXT_11
REMARK                            x       y       z     vdW  Elec       q    Type
REMARK                         _______ _______ _______ _____ _____    ______ ____
ROOT
ATOM      1  C   UNL     1       4.708   4.462  18.514  0.00  0.00    +0.000 A 
ATOM      2  CA  UNL     1       4.153   3.629  19.472  0.00  0.00    +0.000 A 
ATOM      3  N   UNL     1       3.133   4.339  20.066  0.00  0.00    +0.000 N 
ATOM      4  C   UNL     1       2.987   5.575  19.482  0.00  0.00    +0.000 A 
ATOM      5  C   UNL     1       2.066   6.595  19.748  0.00  0.00    +0.000 A 
ATOM      6  C   UNL     1       2.122   7.742  18.950  0.00  0.00    +0.000 A 
ATOM      7  C   UNL     1       3.060   7.860  17.927  0.00  0.00    +0.000 A 
ATOM      8  C   UNL     1       3.985   6.836  17.687  0.00  0.00    +0.000 A 
ATOM      9  C   UNL     1       3.955   5.672  18.483  0.00  0.00    +0.000 A 
ATOM     10  H   UNL     1       2.512   3.982  20.778  0.00  0.00    +0.000 HD
ENDROOT
BRANCH   1  11
ATOM     11  N   UNL     1       5.810   4.162  17.686  0.00  0.00    +0.000 N 
ATOM     12  H   UNL     1       6.032   3.155  17.687  0.00  0.00    +0.000 HD
BRANCH  11  13
ATOM     13  S   UNL     1       7.300   4.908  18.079  0.00  0.00    +0.000 S 
ATOM     14  O   UNL     1       8.325   4.011  17.594  0.00  0.00    +0.000 OA
ATOM     15  O   UNL     1       7.276   5.351  19.459  0.00  0.00    +0.000 OA
BRANCH  13  17
ATOM     16  C   UNL     1       7.712   7.582  17.756  0.00  0.00    +0.000 C 
ATOM     17  C   UNL     1       7.256   6.341  17.013  0.00  0.00    +0.000 C 
ENDBRANCH  13  17
ENDBRANCH  11  13
ENDBRANCH   1  11
BRANCH   2  18
ATOM     18  C   UNL     1       4.523   2.268  19.761  0.00  0.00    +0.000 C 
ATOM     19  O   UNL     1       5.031   1.895  20.807  0.00  0.00    +0.000 OA
BRANCH  18  20
ATOM     20  OXT UNL     1       4.261   1.424  18.735  0.00  0.00    +0.000 OA
ATOM     21  HXT UNL     1       4.478   0.494  18.930  0.00  0.00    +0.000 HD
ENDBRANCH  18  20
ENDBRANCH   2  18
TORSDOF 5
ENDMDL
MODEL 3
REMARK VINA RESULT:      -7.0      1.328      1.529
REMARK  Name = 
REMARK  6 active torsions:
REMARK  status: ('A' for Active; 'I' for Inactive)
REMARK    1  A    between atoms: C_1  and  C_2
REMARK    2  A    between atoms: C_2  and  S_3
REMARK    3  A    between atoms: S_3  and  N_6
REMARK    4  A    between atoms: N_6  and  C_7
REMARK    5  A    between atoms: CA_8  and  C_9
REMARK    6  A    between atoms: C_9  and  OXT_11
REMARK                            x       y       z     vdW  Elec       q    Type
REMARK                         _______ _______ _______ _____ _____    ______ ____
ROOT
ATOM      1  C   UNL     1       5.532   5.021  17.726  0.00  0.00    +0.000 A 
ATOM      2  CA  UNL     1       6.190   5.132  18.941  0.00  0.00    +0.000 A 
ATOM      3  N   UNL     1       5.467   4.387  19.847  0.00  0.00    +0.000 N 
ATOM      4  C   UNL     1       4.403   3.765  19.238  0.00  0.00    +0.000 A 
ATOM      5  C   UNL     1       3.440   2.899  19.769  0.00  0.00    +0.000 A 
ATOM      6  C   UNL     1       2.490   2.370  18.890  0.00  0.00    +0.000 A 
ATOM      7  C   UNL     1       2.507   2.694  17.535  0.00  0.00    +0.000 A 
ATOM      8  C   UNL     1       3.468   3.576  17.025  0.00  0.00    +0.000 A 
ATOM      9  C   UNL     1       4.432   4.129  17.892  0.00  0.00    +0.000 A 
ATOM     10  H   UNL     1       5.719   4.240  20.814  0.00  0.00    +0.000 HD
ENDROOT
BRANCH   1  11
ATOM     11  N   UNL     1       5.899   5.654  16.520  0.00  0.00    +0.000 N 
ATOM     12  H   UNL     1       5.088   5.809  15.902  0.00  0.00    +0.000 HD
BRANCH  11  13
ATOM     13  S   UNL     1       7.019   4.829  15.521  0.00  0.00    +0.000 S 
ATOM     14  O   UNL     1       7.771   3.969  16.407  0.00  0.00    +0.000 OA
ATOM     15  O   UNL     1       7.681   5.774  14.646  0.00  0.00    +0.000 OA
BRANCH  13  17
ATOM     16  C   UNL     1       6.349   3.795  13.091  0.00  0.00    +0.000 C 
ATOM     17  C   UNL     1       5.921   3.810  14.546  0.00  0.00    +0.000 C 
ENDBRANCH  13  17
ENDBRANCH  11  13
ENDBRANCH   1  11
BRANCH   2  18
ATOM     18  C   UNL     1       7.417   5.836  19.205  0.00  0.00    +0.000 C 
ATOM     19  O   UNL     1       7.917   6.662  18.457  0.00  0.00    +0.000 OA
BRANCH  18  20
ATOM     20  OXT UNL     1       7.984   5.478  20.381  0.00  0.00    +0.000 OA
ATOM     21  HXT UNL     1       8.934   5.689  20.435  0.00  0.00    +0.000 HD
ENDBRANCH  18  20
ENDBRANCH   2  18
TORSDOF 5
ENDMDL
MODEL 4
REMARK VINA RESULT:      -6.9      1.576      1.747
REMARK  Name = 
REMARK  6 active torsions:
REMARK  status: ('A' for Active; 'I' for Inactive)
REMARK    1  A    between atoms: C_1  and  C_2
REMARK    2  A    between atoms: C_2  and  S_3
REMARK    3  A    between atoms: S_3  and  N_6
REMARK    4  A    between atoms: N_6  and  C_7
REMARK    5  A    between atoms: CA_8  and  C_9
REMARK    6  A    between atoms: C_9  and  OXT_11
REMARK                            x       y       z     vdW  Elec       q    Type
REMARK                         _______ _______ _______ _____ _____    ______ ____
ROOT
ATOM      1  C   UNL     1       4.695   5.106  18.261  0.00  0.00    +0.000 A 
ATOM      2  CA  UNL     1       5.670   4.432  18.977  0.00  0.00    +0.000 A 
ATOM      3  N   UNL     1       5.061   3.322  19.521  0.00  0.00    +0.000 N 
ATOM      4  C   UNL     1       3.745   3.241  19.130  0.00  0.00    +0.000 A 
ATOM      5  C   UNL     1       2.777   2.272  19.418  0.00  0.00    +0.000 A 
ATOM      6  C   UNL     1       1.515   2.423  18.834  0.00  0.00    +0.000 A 
ATOM      7  C   UNL     1       1.238   3.500  17.995  0.00  0.00    +0.000 A 
ATOM      8  C   UNL     1       2.213   4.469  17.731  0.00  0.00    +0.000 A 
ATOM      9  C   UNL     1       3.491   4.343  18.314  0.00  0.00    +0.000 A 
ATOM     10  H   UNL     1       5.525   2.610  20.066  0.00  0.00    +0.000 HD
ENDROOT
BRANCH   1  11
ATOM     11  N   UNL     1       4.862   6.324  17.568  0.00  0.00    +0.000 N 
ATOM     12  H   UNL     1       3.961   6.793  17.386  0.00  0.00    +0.000 HD
BRANCH  11  13
ATOM     13  S   UNL     1       5.597   6.242  16.024  0.00  0.00    +0.000 S 
ATOM     14  O   UNL     1       7.016   6.388  16.260  0.00  0.00    +0.000 OA
ATOM     15  O   UNL     1       4.893   7.108  15.101  0.00  0.00    +0.000 OA
BRANCH  13  17
ATOM     16  C   UNL     1       6.341   4.015  14.642  0.00  0.00    +0.000 C 
ATOM     17  C   UNL     1       5.273   4.541  15.581  0.00  0.00    +0.000 C 
ENDBRANCH  13  17
ENDBRANCH  11  13
ENDBRANCH   1  11
BRANCH   2  18
ATOM     18  C   UNL     1       7.062   4.781  19.093  0.00  0.00    +0.000 C 
ATOM     19  O   UNL     1       7.532   5.472  19.984  0.00  0.00    +0.000 OA
BRANCH  18  20
ATOM     20  OXT UNL     1       7.815   4.269  18.092  0.00  0.00    +0.000 OA
ATOM     21  HXT UNL     1       8.054   3.333  18.222  0.00  0.00    +0.000 HD
ENDBRANCH  18  20
ENDBRANCH   2  18
TORSDOF 5
ENDMDL
MODEL 5
REMARK VINA RESULT:      -6.8      1.895      3.698
REMARK  Name = 
REMARK  6 active torsions:
REMARK  status: ('A' for Active; 'I' for Inactive)
REMARK    1  A    between atoms: C_1  and  C_2
REMARK    2  A    between atoms: C_2  and  S_3
REMARK    3  A    between atoms: S_3  and  N_6
REMARK    4  A    between atoms: N_6  and  C_7
REMARK    5  A    between atoms: CA_8  and  C_9
REMARK    6  A    between atoms: C_9  and  OXT_11
REMARK                            x       y       z     vdW  Elec       q    Type
REMARK                         _______ _______ _______ _____ _____    ______ ____
ROOT
ATOM      1  C   UNL     1       4.720   5.169  17.686  0.00  0.00    +0.000 A 
ATOM      2  CA  UNL     1       4.546   4.229  16.683  0.00  0.00    +0.000 A 
ATOM      3  N   UNL     1       3.423   3.503  17.015  0.00  0.00    +0.000 N 
ATOM      4  C   UNL     1       2.849   3.985  18.168  0.00  0.00    +0.000 A 
ATOM      5  C   UNL     1       1.692   3.571  18.839  0.00  0.00    +0.000 A 
ATOM      6  C   UNL     1       1.313   4.288  19.979  0.00  0.00    +0.000 A 
ATOM      7  C   UNL     1       2.062   5.375  20.424  0.00  0.00    +0.000 A 
ATOM      8  C   UNL     1       3.226   5.764  19.750  0.00  0.00    +0.000 A 
ATOM      9  C   UNL     1       3.634   5.052  18.603  0.00  0.00    +0.000 A 
ATOM     10  H   UNL     1       3.017   2.768  16.455  0.00  0.00    +0.000 HD
ENDROOT
BRANCH   1  11
ATOM     11  N   UNL     1       5.771   6.105  17.779  0.00  0.00    +0.000 N 
ATOM     12  H   UNL     1       6.090   6.422  16.850  0.00  0.00    +0.000 HD
BRANCH  11  13
ATOM     13  S   UNL     1       7.209   5.583  18.547  0.00  0.00    +0.000 S 
ATOM     14  O   UNL     1       7.834   4.665  17.622  0.00  0.00    +0.000 OA
ATOM     15  O   UNL     1       6.921   5.196  19.913  0.00  0.00    +0.000 OA
BRANCH  13  17
ATOM     16  C   UNL     1       7.637   8.072  17.524  0.00  0.00    +0.000 C 
ATOM     17  C   UNL     1       8.157   7.098  18.564  0.00  0.00    +0.000 C 
ENDBRANCH  13  17
ENDBRANCH  11  13
ENDBRANCH   1  11
BRANCH   2  18
ATOM     18  C   UNL     1       5.342   4.069  15.494  0.00  0.00    +0.000 C 
ATOM     19  O   UNL     1       5.201   4.721  14.472  0.00  0.00    +0.000 OA
BRANCH  18  20
ATOM     20  OXT UNL     1       6.273   3.094  15.615  0.00  0.00    +0.000 OA
ATOM     21  HXT UNL     1       6.393   2.780  16.530  0.00  0.00    +0.000 HD
ENDBRANCH  18  20
ENDBRANCH   2  18
TORSDOF 5
ENDMDL
MODEL 6
REMARK VINA RESULT:      -6.8      2.804      3.414
REMARK  Name = 
REMARK  6 active torsions:
REMARK  status: ('A' for Active; 'I' for Inactive)
REMARK    1  A    between atoms: C_1  and  C_2
REMARK    2  A    between atoms: C_2  and  S_3
REMARK    3  A    between atoms: S_3  and  N_6
REMARK    4  A    between atoms: N_6  and  C_7
REMARK    5  A    between atoms: CA_8  and  C_9
REMARK    6  A    between atoms: C_9  and  OXT_11
REMARK                            x       y       z     vdW  Elec       q    Type
REMARK                         _______ _______ _______ _____ _____    ______ ____
ROOT
ATOM      1  C   UNL     1       3.554   5.484  18.237  0.00  0.00    +0.000 A 
ATOM      2  CA  UNL     1       3.519   4.761  19.418  0.00  0.00    +0.000 A 
ATOM      3  N   UNL     1       2.886   5.556  20.347  0.00  0.00    +0.000 N 
ATOM      4  C   UNL     1       2.470   6.739  19.783  0.00  0.00    +0.000 A 
ATOM      5  C   UNL     1       1.767   7.809  20.348  0.00  0.00    +0.000 A 
ATOM      6  C   UNL     1       1.430   8.877  19.510  0.00  0.00    +0.000 A 
ATOM      7  C   UNL     1       1.781   8.869  18.162  0.00  0.00    +0.000 A 
ATOM      8  C   UNL     1       2.499   7.797  17.618  0.00  0.00    +0.000 A 
ATOM      9  C   UNL     1       2.858   6.712  18.444  0.00  0.00    +0.000 A 
ATOM     10  H   UNL     1       2.673   5.287  21.298  0.00  0.00    +0.000 HD
ENDROOT
BRANCH   1  11
ATOM     11  N   UNL     1       4.145   5.073  17.024  0.00  0.00    +0.000 N 
ATOM     12  H   UNL     1       4.292   4.053  16.991  0.00  0.00    +0.000 HD
BRANCH  11  13
ATOM     13  S   UNL     1       5.688   5.719  16.657  0.00  0.00    +0.000 S 
ATOM     14  O   UNL     1       6.335   5.931  17.932  0.00  0.00    +0.000 OA
ATOM     15  O   UNL     1       5.552   6.791  15.692  0.00  0.00    +0.000 OA
BRANCH  13  17
ATOM     16  C   UNL     1       6.715   4.606  14.391  0.00  0.00    +0.000 C 
ATOM     17  C   UNL     1       6.462   4.319  15.859  0.00  0.00    +0.000 C 
ENDBRANCH  13  17
ENDBRANCH  11  13
ENDBRANCH   1  11
BRANCH   2  18
ATOM     18  C   UNL     1       3.998   3.420  19.630  0.00  0.00    +0.000 C 
ATOM     19  O   UNL     1       3.331   2.512  20.103  0.00  0.00    +0.000 OA
BRANCH  18  20
ATOM     20  OXT UNL     1       5.291   3.260  19.262  0.00  0.00    +0.000 OA
ATOM     21  HXT UNL     1       5.910   3.824  19.759  0.00  0.00    +0.000 HD
ENDBRANCH  18  20
ENDBRANCH   2  18
TORSDOF 5
ENDMDL
MODEL 7
REMARK VINA RESULT:      -6.7      1.279      1.480
REMARK  Name = 
REMARK  6 active torsions:
REMARK  status: ('A' for Active; 'I' for Inactive)
REMARK    1  A    between atoms: C_1  and  C_2
REMARK    2  A    between atoms: C_2  and  S_3
REMARK    3  A    between atoms: S_3  and  N_6
REMARK    4  A    between atoms: N_6  and  C_7
REMARK    5  A    between atoms: CA_8  and  C_9
REMARK    6  A    between atoms: C_9  and  OXT_11
REMARK                            x       y       z     vdW  Elec       q    Type
REMARK                         _______ _______ _______ _____ _____    ______ ____
ROOT
ATOM      1  C   UNL     1       5.398   5.554  16.964  0.00  0.00    +0.000 A 
ATOM      2  CA  UNL     1       6.163   5.998  18.030  0.00  0.00    +0.000 A 
ATOM      3  N   UNL     1       5.546   5.539  19.173  0.00  0.00    +0.000 N 
ATOM      4  C   UNL     1       4.445   4.774  18.866  0.00  0.00    +0.000 A 
ATOM      5  C   UNL     1       3.556   4.095  19.707  0.00  0.00    +0.000 A 
ATOM      6  C   UNL     1       2.542   3.344  19.106  0.00  0.00    +0.000 A 
ATOM      7  C   UNL     1       2.425   3.276  17.719  0.00  0.00    +0.000 A 
ATOM      8  C   UNL     1       3.313   3.977  16.894  0.00  0.00    +0.000 A 
ATOM      9  C   UNL     1       4.340   4.748  17.476  0.00  0.00    +0.000 A 
ATOM     10  H   UNL     1       5.890   5.667  20.114  0.00  0.00    +0.000 HD
ENDROOT
BRANCH   1  11
ATOM     11  N   UNL     1       5.635   5.823  15.599  0.00  0.00    +0.000 N 
ATOM     12  H   UNL     1       4.773   5.766  15.037  0.00  0.00    +0.000 HD
BRANCH  11  13
ATOM     13  S   UNL     1       6.723   4.784  14.782  0.00  0.00    +0.000 S 
ATOM     14  O   UNL     1       7.158   3.821  15.769  0.00  0.00    +0.000 OA
ATOM     15  O   UNL     1       7.676   5.570  14.025  0.00  0.00    +0.000 OA
BRANCH  13  17
ATOM     16  C   UNL     1       6.354   3.548  12.382  0.00  0.00    +0.000 C 
ATOM     17  C   UNL     1       5.619   3.962  13.642  0.00  0.00    +0.000 C 
ENDBRANCH  13  17
ENDBRANCH  11  13
ENDBRANCH   1  11
BRANCH   2  18
ATOM     18  C   UNL     1       7.392   6.745  17.968  0.00  0.00    +0.000 C 
ATOM     19  O   UNL     1       7.725   7.457  17.034  0.00  0.00    +0.000 OA
BRANCH  18  20
ATOM     20  OXT UNL     1       8.168   6.567  19.063  0.00  0.00    +0.000 OA
ATOM     21  HXT UNL     1       8.150   5.657  19.410  0.00  0.00    +0.000 HD
ENDBRANCH  18  20
ENDBRANCH   2  18
TORSDOF 5
ENDMDL
MODEL 8
REMARK VINA RESULT:      -6.7      0.973      1.144
REMARK  Name = 
REMARK  6 active torsions:
REMARK  status: ('A' for Active; 'I' for Inactive)
REMARK    1  A    between atoms: C_1  and  C_2
REMARK    2  A    between atoms: C_2  and  S_3
REMARK    3  A    between atoms: S_3  and  N_6
REMARK    4  A    between atoms: N_6  and  C_7
REMARK    5  A    between atoms: CA_8  and  C_9
REMARK    6  A    between atoms: C_9  and  OXT_11
REMARK                            x       y       z     vdW  Elec       q    Type
REMARK                         _______ _______ _______ _____ _____    ______ ____
ROOT
ATOM      1  C   UNL     1       5.312   4.197  17.294  0.00  0.00    +0.000 A 
ATOM      2  CA  UNL     1       6.060   4.880  18.238  0.00  0.00    +0.000 A 
ATOM      3  N   UNL     1       5.188   5.249  19.239  0.00  0.00    +0.000 N 
ATOM      4  C   UNL     1       3.921   4.777  18.987  0.00  0.00    +0.000 A 
ATOM      5  C   UNL     1       2.750   4.889  19.745  0.00  0.00    +0.000 A 
ATOM      6  C   UNL     1       1.601   4.257  19.259  0.00  0.00    +0.000 A 
ATOM      7  C   UNL     1       1.627   3.541  18.065  0.00  0.00    +0.000 A 
ATOM      8  C   UNL     1       2.803   3.454  17.311  0.00  0.00    +0.000 A 
ATOM      9  C   UNL     1       3.974   4.089  17.775  0.00  0.00    +0.000 A 
ATOM     10  H   UNL     1       5.445   5.728  20.090  0.00  0.00    +0.000 HD
ENDROOT
BRANCH   1  11
ATOM     11  N   UNL     1       5.788   3.669  16.076  0.00  0.00    +0.000 N 
ATOM     12  H   UNL     1       6.780   3.391  16.135  0.00  0.00    +0.000 HD
BRANCH  11  13
ATOM     13  S   UNL     1       5.736   4.700  14.710  0.00  0.00    +0.000 S 
ATOM     14  O   UNL     1       5.185   5.949  15.186  0.00  0.00    +0.000 OA
ATOM     15  O   UNL     1       5.150   3.996  13.588  0.00  0.00    +0.000 OA
BRANCH  13  17
ATOM     16  C   UNL     1       7.732   5.187  12.921  0.00  0.00    +0.000 C 
ATOM     17  C   UNL     1       7.479   4.938  14.395  0.00  0.00    +0.000 C 
ENDBRANCH  13  17
ENDBRANCH  11  13
ENDBRANCH   1  11
BRANCH   2  18
ATOM     18  C   UNL     1       7.480   5.117  18.218  0.00  0.00    +0.000 C 
ATOM     19  O   UNL     1       8.016   6.151  18.586  0.00  0.00    +0.000 OA
BRANCH  18  20
ATOM     20  OXT UNL     1       8.180   4.067  17.728  0.00  0.00    +0.000 OA
ATOM     21  HXT UNL     1       9.093   4.016  18.065  0.00  0.00    +0.000 HD
ENDBRANCH  18  20
ENDBRANCH   2  18
TORSDOF 5
ENDMDL
MODEL 9
REMARK VINA RESULT:      -6.7      2.156      3.679
REMARK  Name = 
REMARK  6 active torsions:
REMARK  status: ('A' for Active; 'I' for Inactive)
REMARK    1  A    between atoms: C_1  and  C_2
REMARK    2  A    between atoms: C_2  and  S_3
REMARK    3  A    between atoms: S_3  and  N_6
REMARK    4  A    between atoms: N_6  and  C_7
REMARK    5  A    between atoms: CA_8  and  C_9
REMARK    6  A    between atoms: C_9  and  OXT_11
REMARK                            x       y       z     vdW  Elec       q    Type
REMARK                         _______ _______ _______ _____ _____    ______ ____
ROOT
ATOM      1  C   UNL     1       4.656   3.620  18.301  0.00  0.00    +0.000 A 
ATOM      2  CA  UNL     1       4.305   3.699  16.964  0.00  0.00    +0.000 A 
ATOM      3  N   UNL     1       2.953   3.440  16.896  0.00  0.00    +0.000 N 
ATOM      4  C   UNL     1       2.425   3.252  18.152  0.00  0.00    +0.000 A 
ATOM      5  C   UNL     1       1.106   2.999  18.546  0.00  0.00    +0.000 A 
ATOM      6  C   UNL     1       0.847   2.900  19.916  0.00  0.00    +0.000 A 
ATOM      7  C   UNL     1       1.868   3.052  20.852  0.00  0.00    +0.000 A 
ATOM      8  C   UNL     1       3.185   3.287  20.438  0.00  0.00    +0.000 A 
ATOM      9  C   UNL     1       3.473   3.382  19.061  0.00  0.00    +0.000 A 
ATOM     10  H   UNL     1       2.396   3.464  16.054  0.00  0.00    +0.000 HD
ENDROOT
BRANCH   1  11
ATOM     11  N   UNL     1       5.953   3.778  18.833  0.00  0.00    +0.000 N 
ATOM     12  H   UNL     1       6.064   3.288  19.734  0.00  0.00    +0.000 HD
BRANCH  11  13
ATOM     13  S   UNL     1       6.462   5.377  19.174  0.00  0.00    +0.000 S 
ATOM     14  O   UNL     1       7.349   5.270  20.309  0.00  0.00    +0.000 OA
ATOM     15  O   UNL     1       5.314   6.261  19.194  0.00  0.00    +0.000 OA
BRANCH  13  17
ATOM     16  C   UNL     1       7.467   7.230  17.448  0.00  0.00    +0.000 C 
ATOM     17  C   UNL     1       7.443   5.739  17.725  0.00  0.00    +0.000 C 
ENDBRANCH  13  17
ENDBRANCH  11  13
ENDBRANCH   1  11
BRANCH   2  18
ATOM     18  C   UNL     1       5.162   4.038  15.857  0.00  0.00    +0.000 C 
ATOM     19  O   UNL     1       5.050   5.046  15.177  0.00  0.00    +0.000 OA
BRANCH  18  20
ATOM     20  OXT UNL     1       6.117   3.106  15.629  0.00  0.00    +0.000 OA
ATOM     21  HXT UNL     1       5.800   2.341  15.115  0.00  0.00    +0.000 HD
ENDBRANCH  18  20
ENDBRANCH   2  18
TORSDOF 5
ENDMDL
