MODEL 1
REMARK VINA RESULT:      -9.3      0.000      0.000
REMARK  Name = 
REMARK  6 active torsions:
REMARK  status: ('A' for Active; 'I' for Inactive)
REMARK    1  A    between atoms: C_2  and  C_3
REMARK    2  A    between atoms: C_4  and  C_5
REMARK    3  A    between atoms: N_12  and  C_13
REMARK    4  A    between atoms: C_15  and  S_16
REMARK    5  A    between atoms: S_16  and  C_17
REMARK    6  A    between atoms: C_22  and  O_23
REMARK                            x       y       z     vdW  Elec       q    Type
REMARK                         _______ _______ _______ _____ _____    ______ ____
ROOT
ATOM      1  C   UNL     1       5.795   6.700  17.148  0.00  0.00    +0.000 A 
ATOM      2  C   UNL     1       4.753   6.563  18.083  0.00  0.00    +0.000 A 
ATOM      3  C   UNL     1       3.852   5.487  18.062  0.00  0.00    +0.000 A 
ATOM      4  C   UNL     1       4.010   4.539  17.043  0.00  0.00    +0.000 A 
ATOM      5  C   UNL     1       5.044   4.628  16.084  0.00  0.00    +0.000 A 
ATOM      6  C   UNL     1       5.197   3.624  15.102  0.00  0.00    +0.000 A 
ATOM      7  C   UNL     1       6.195   3.682  14.138  0.00  0.00    +0.000 A 
ATOM      8  C   UNL     1       7.063   4.761  14.127  0.00  0.00    +0.000 A 
ATOM      9  C   UNL     1       6.940   5.762  15.097  0.00  0.00    +0.000 A 
ATOM     10  C   UNL     1       5.943   5.726  16.111  0.00  0.00    +0.000 A 
ENDROOT
BRANCH   1  13
ATOM     11  O   UNL     1       8.303   7.081  18.728  0.00  0.00    +0.000 OA
ATOM     12  C   UNL     1       7.824   7.931  17.987  0.00  0.00    +0.000 C 
ATOM     13  N   UNL     1       6.689   7.811  17.207  0.00  0.00    +0.000 N 
ATOM     14  H   UNL     1       6.509   8.562  16.560  0.00  0.00    +0.000 HD
BRANCH  12  15
ATOM     15  C   UNL     1       8.497   9.251  17.812  0.00  0.00    +0.000 C 
ATOM     16  C   UNL     1       9.031   9.879  18.877  0.00  0.00    +0.000 C 
BRANCH  16  17
ATOM     17  C   UNL     1       9.727  11.157  18.735  0.00  0.00    +0.000 A 
ATOM     18  C   UNL     1       9.254  12.133  17.848  0.00  0.00    +0.000 A 
ATOM     19  C   UNL     1       9.950  13.334  17.688  0.00  0.00    +0.000 A 
ATOM     20  C   UNL     1      11.118  13.562  18.416  0.00  0.00    +0.000 A 
ATOM     21 CL   UNL     1      11.989  15.030  18.202  0.00  0.00    +0.000 Cl
ATOM     22  C   UNL     1      11.589  12.602  19.311  0.00  0.00    +0.000 A 
ATOM     23  C   UNL     1      10.892  11.402  19.471  0.00  0.00    +0.000 A 
ENDBRANCH  16  17
ENDBRANCH  12  15
ENDBRANCH   1  13
BRANCH   4  24
ATOM     24  O   UNL     1       3.136   3.487  16.901  0.00  0.00    +0.000 OA
ATOM     25  H   UNL     1       2.255   3.888  16.744  0.00  0.00    +0.000 HD
ENDBRANCH   4  24
BRANCH   3  26
ATOM     26  S   UNL     1       2.501   5.586  19.242  0.00  0.00    +0.000 S 
BRANCH  26  27
ATOM     27  C   UNL     1       2.684   4.234  20.288  0.00  0.00    +0.000 A 
ATOM     28  N   UNL     1       3.373   3.129  20.125  0.00  0.00    +0.000 NA
ATOM     29  C   UNL     1       3.008   2.381  21.215  0.00  0.00    +0.000 A 
ATOM     30  N   UNL     1       2.143   2.966  22.044  0.00  0.00    +0.000 NA
ATOM     31  N   UNL     1       1.958   4.155  21.437  0.00  0.00    +0.000 N 
ATOM     32  H   UNL     1       1.318   4.831  21.832  0.00  0.00    +0.000 HD
ENDBRANCH  26  27
ENDBRANCH   3  26
TORSDOF 6
ENDMDL
MODEL 2
REMARK VINA RESULT:      -9.3      5.490      8.143
REMARK  Name = 
REMARK  6 active torsions:
REMARK  status: ('A' for Active; 'I' for Inactive)
REMARK    1  A    between atoms: C_2  and  C_3
REMARK    2  A    between atoms: C_4  and  C_5
REMARK    3  A    between atoms: N_12  and  C_13
REMARK    4  A    between atoms: C_15  and  S_16
REMARK    5  A    between atoms: S_16  and  C_17
REMARK    6  A    between atoms: C_22  and  O_23
REMARK                            x       y       z     vdW  Elec       q    Type
REMARK                         _______ _______ _______ _____ _____    ______ ____
ROOT
ATOM      1  C   UNL     1       2.989   6.211  19.551  0.00  0.00    +0.000 A 
ATOM      2  C   UNL     1       4.263   6.342  18.969  0.00  0.00    +0.000 A 
ATOM      3  C   UNL     1       5.082   5.238  18.682  0.00  0.00    +0.000 A 
ATOM      4  C   UNL     1       4.591   3.971  19.020  0.00  0.00    +0.000 A 
ATOM      5  C   UNL     1       3.316   3.786  19.600  0.00  0.00    +0.000 A 
ATOM      6  C   UNL     1       2.840   2.485  19.880  0.00  0.00    +0.000 A 
ATOM      7  C   UNL     1       1.597   2.265  20.458  0.00  0.00    +0.000 A 
ATOM      8  C   UNL     1       0.799   3.349  20.781  0.00  0.00    +0.000 A 
ATOM      9  C   UNL     1       1.242   4.646  20.502  0.00  0.00    +0.000 A 
ATOM     10  C   UNL     1       2.501   4.910  19.893  0.00  0.00    +0.000 A 
ENDROOT
BRANCH   1  13
ATOM     11  O   UNL     1       2.062   8.400  17.739  0.00  0.00    +0.000 OA
ATOM     12  C   UNL     1       1.819   8.354  18.938  0.00  0.00    +0.000 C 
ATOM     13  N   UNL     1       2.188   7.360  19.826  0.00  0.00    +0.000 N 
ATOM     14  H   UNL     1       1.795   7.417  20.752  0.00  0.00    +0.000 HD
BRANCH  12  15
ATOM     15  C   UNL     1       1.003   9.421  19.588  0.00  0.00    +0.000 C 
ATOM     16  C   UNL     1       0.922   9.480  20.931  0.00  0.00    +0.000 C 
BRANCH  16  17
ATOM     17  C   UNL     1       0.160  10.532  21.600  0.00  0.00    +0.000 A 
ATOM     18  C   UNL     1      -0.689  10.227  22.672  0.00  0.00    +0.000 A 
ATOM     19  C   UNL     1      -1.446  11.235  23.278  0.00  0.00    +0.000 A 
ATOM     20  C   UNL     1      -1.354  12.547  22.815  0.00  0.00    +0.000 A 
ATOM     21 CL   UNL     1      -2.302  13.782  23.544  0.00  0.00    +0.000 Cl
ATOM     22  C   UNL     1      -0.501  12.862  21.758  0.00  0.00    +0.000 A 
ATOM     23  C   UNL     1       0.256  11.855  21.153  0.00  0.00    +0.000 A 
ENDBRANCH  16  17
ENDBRANCH  12  15
ENDBRANCH   1  13
BRANCH   4  24
ATOM     24  O   UNL     1       5.349   2.838  18.838  0.00  0.00    +0.000 OA
ATOM     25  H   UNL     1       4.761   2.188  18.398  0.00  0.00    +0.000 HD
ENDBRANCH   4  24
BRANCH   3  26
ATOM     26  S   UNL     1       6.732   5.634  18.091  0.00  0.00    +0.000 S 
BRANCH  26  27
ATOM     27  C   UNL     1       6.770   5.164  16.438  0.00  0.00    +0.000 A 
ATOM     28  N   UNL     1       6.245   4.117  15.847  0.00  0.00    +0.000 NA
ATOM     29  C   UNL     1       6.739   4.210  14.571  0.00  0.00    +0.000 A 
ATOM     30  N   UNL     1       7.528   5.260  14.341  0.00  0.00    +0.000 NA
ATOM     31  N   UNL     1       7.525   5.862  15.546  0.00  0.00    +0.000 N 
ATOM     32  H   UNL     1       8.070   6.702  15.695  0.00  0.00    +0.000 HD
ENDBRANCH  26  27
ENDBRANCH   3  26
TORSDOF 6
ENDMDL
MODEL 3
REMARK VINA RESULT:      -9.2      5.593      7.984
REMARK  Name = 
REMARK  6 active torsions:
REMARK  status: ('A' for Active; 'I' for Inactive)
REMARK    1  A    between atoms: C_2  and  C_3
REMARK    2  A    between atoms: C_4  and  C_5
REMARK    3  A    between atoms: N_12  and  C_13
REMARK    4  A    between atoms: C_15  and  S_16
REMARK    5  A    between atoms: S_16  and  C_17
REMARK    6  A    between atoms: C_22  and  O_23
REMARK                            x       y       z     vdW  Elec       q    Type
REMARK                         _______ _______ _______ _____ _____    ______ ____
ROOT
ATOM      1  C   UNL     1       3.201   6.082  19.129  0.00  0.00    +0.000 A 
ATOM      2  C   UNL     1       4.496   5.996  18.588  0.00  0.00    +0.000 A 
ATOM      3  C   UNL     1       5.257   4.816  18.627  0.00  0.00    +0.000 A 
ATOM      4  C   UNL     1       4.683   3.704  19.253  0.00  0.00    +0.000 A 
ATOM      5  C   UNL     1       3.383   3.737  19.806  0.00  0.00    +0.000 A 
ATOM      6  C   UNL     1       2.823   2.576  20.386  0.00  0.00    +0.000 A 
ATOM      7  C   UNL     1       1.553   2.573  20.948  0.00  0.00    +0.000 A 
ATOM      8  C   UNL     1       0.812   3.742  20.950  0.00  0.00    +0.000 A 
ATOM      9  C   UNL     1       1.338   4.901  20.370  0.00  0.00    +0.000 A 
ATOM     10  C   UNL     1       2.628   4.938  19.769  0.00  0.00    +0.000 A 
ENDROOT
BRANCH   1  13
ATOM     11  O   UNL     1       3.006   8.118  16.951  0.00  0.00    +0.000 OA
ATOM     12  C   UNL     1       2.440   8.216  18.033  0.00  0.00    +0.000 C 
ATOM     13  N   UNL     1       2.462   7.301  19.069  0.00  0.00    +0.000 N 
ATOM     14  H   UNL     1       1.837   7.481  19.839  0.00  0.00    +0.000 HD
BRANCH  12  15
ATOM     15  C   UNL     1       1.577   9.395  18.334  0.00  0.00    +0.000 C 
ATOM     16  C   UNL     1       0.737   9.361  19.385  0.00  0.00    +0.000 C 
BRANCH  16  17
ATOM     17  C   UNL     1      -0.098  10.511  19.728  0.00  0.00    +0.000 A 
ATOM     18  C   UNL     1      -1.219  10.835  18.954  0.00  0.00    +0.000 A 
ATOM     19  C   UNL     1      -1.987  11.962  19.266  0.00  0.00    +0.000 A 
ATOM     20  C   UNL     1      -1.635  12.763  20.352  0.00  0.00    +0.000 A 
ATOM     21 CL   UNL     1      -2.565  14.162  20.722  0.00  0.00    +0.000 Cl
ATOM     22  C   UNL     1      -0.529  12.440  21.136  0.00  0.00    +0.000 A 
ATOM     23  C   UNL     1       0.238  11.313  20.825  0.00  0.00    +0.000 A 
ENDBRANCH  16  17
ENDBRANCH  12  15
ENDBRANCH   1  13
BRANCH   4  24
ATOM     24  O   UNL     1       5.377   2.525  19.398  0.00  0.00    +0.000 OA
ATOM     25  H   UNL     1       5.764   2.331  18.518  0.00  0.00    +0.000 HD
ENDBRANCH   4  24
BRANCH   3  26
ATOM     26  S   UNL     1       6.944   4.965  18.026  0.00  0.00    +0.000 S 
BRANCH  26  27
ATOM     27  C   UNL     1       6.851   4.843  16.314  0.00  0.00    +0.000 A 
ATOM     28  N   UNL     1       6.239   3.957  15.564  0.00  0.00    +0.000 NA
ATOM     29  C   UNL     1       6.652   4.292  14.300  0.00  0.00    +0.000 A 
ATOM     30  N   UNL     1       7.474   5.340  14.229  0.00  0.00    +0.000 NA
ATOM     31  N   UNL     1       7.579   5.683  15.527  0.00  0.00    +0.000 N 
ATOM     32  H   UNL     1       8.171   6.455  15.802  0.00  0.00    +0.000 HD
ENDBRANCH  26  27
ENDBRANCH   3  26
TORSDOF 6
ENDMDL
MODEL 4
REMARK VINA RESULT:      -9.1      5.622      8.318
REMARK  Name = 
REMARK  6 active torsions:
REMARK  status: ('A' for Active; 'I' for Inactive)
REMARK    1  A    between atoms: C_2  and  C_3
REMARK    2  A    between atoms: C_4  and  C_5
REMARK    3  A    between atoms: N_12  and  C_13
REMARK    4  A    between atoms: C_15  and  S_16
REMARK    5  A    between atoms: S_16  and  C_17
REMARK    6  A    between atoms: C_22  and  O_23
REMARK                            x       y       z     vdW  Elec       q    Type
REMARK                         _______ _______ _______ _____ _____    ______ ____
ROOT
ATOM      1  C   UNL     1       2.965   6.532  19.146  0.00  0.00    +0.000 A 
ATOM      2  C   UNL     1       4.104   6.706  18.338  0.00  0.00    +0.000 A 
ATOM      3  C   UNL     1       5.027   5.676  18.097  0.00  0.00    +0.000 A 
ATOM      4  C   UNL     1       4.787   4.443  18.716  0.00  0.00    +0.000 A 
ATOM      5  C   UNL     1       3.656   4.216  19.531  0.00  0.00    +0.000 A 
ATOM      6  C   UNL     1       3.427   2.942  20.097  0.00  0.00    +0.000 A 
ATOM      7  C   UNL     1       2.331   2.683  20.910  0.00  0.00    +0.000 A 
ATOM      8  C   UNL     1       1.438   3.704  21.186  0.00  0.00    +0.000 A 
ATOM      9  C   UNL     1       1.635   4.971  20.627  0.00  0.00    +0.000 A 
ATOM     10  C   UNL     1       2.735   5.268  19.774  0.00  0.00    +0.000 A 
ENDROOT
BRANCH   1  13
ATOM     11  O   UNL     1       2.253   8.850  17.398  0.00  0.00    +0.000 OA
ATOM     12  C   UNL     1       1.791   8.669  18.519  0.00  0.00    +0.000 C 
ATOM     13  N   UNL     1       2.052   7.607  19.365  0.00  0.00    +0.000 N 
ATOM     14  H   UNL     1       1.489   7.549  20.198  0.00  0.00    +0.000 HD
BRANCH  12  15
ATOM     15  C   UNL     1       0.798   9.622  19.093  0.00  0.00    +0.000 C 
ATOM     16  C   UNL     1       0.549   9.615  20.416  0.00  0.00    +0.000 C 
BRANCH  16  17
ATOM     17  C   UNL     1      -0.393  10.558  21.017  0.00  0.00    +0.000 A 
ATOM     18  C   UNL     1      -1.058  11.505  20.227  0.00  0.00    +0.000 A 
ATOM     19  C   UNL     1      -1.925  12.429  20.817  0.00  0.00    +0.000 A 
ATOM     20  C   UNL     1      -2.128  12.409  22.196  0.00  0.00    +0.000 A 
ATOM     21 CL   UNL     1      -3.176  13.562  22.926  0.00  0.00    +0.000 Cl
ATOM     22  C   UNL     1      -1.481  11.462  22.989  0.00  0.00    +0.000 A 
ATOM     23  C   UNL     1      -0.616  10.536  22.399  0.00  0.00    +0.000 A 
ENDBRANCH  16  17
ENDBRANCH  12  15
ENDBRANCH   1  13
BRANCH   4  24
ATOM     24  O   UNL     1       5.670   3.396  18.592  0.00  0.00    +0.000 OA
ATOM     25  H   UNL     1       5.352   2.864  17.833  0.00  0.00    +0.000 HD
ENDBRANCH   4  24
BRANCH   3  26
ATOM     26  S   UNL     1       6.492   6.153  17.172  0.00  0.00    +0.000 S 
BRANCH  26  27
ATOM     27  C   UNL     1       6.388   5.335  15.663  0.00  0.00    +0.000 A 
ATOM     28  N   UNL     1       5.515   4.451  15.242  0.00  0.00    +0.000 NA
ATOM     29  C   UNL     1       6.039   4.058  14.037  0.00  0.00    +0.000 A 
ATOM     30  N   UNL     1       7.178   4.657  13.689  0.00  0.00    +0.000 NA
ATOM     31  N   UNL     1       7.377   5.478  14.739  0.00  0.00    +0.000 N 
ATOM     32  H   UNL     1       8.199   6.066  14.774  0.00  0.00    +0.000 HD
ENDBRANCH  26  27
ENDBRANCH   3  26
TORSDOF 6
ENDMDL
MODEL 5
REMARK VINA RESULT:      -9.1      5.097      7.913
REMARK  Name = 
REMARK  6 active torsions:
REMARK  status: ('A' for Active; 'I' for Inactive)
REMARK    1  A    between atoms: C_2  and  C_3
REMARK    2  A    between atoms: C_4  and  C_5
REMARK    3  A    between atoms: N_12  and  C_13
REMARK    4  A    between atoms: C_15  and  S_16
REMARK    5  A    between atoms: S_16  and  C_17
REMARK    6  A    between atoms: C_22  and  O_23
REMARK                            x       y       z     vdW  Elec       q    Type
REMARK                         _______ _______ _______ _____ _____    ______ ____
ROOT
ATOM      1  C   UNL     1       2.802   6.051  18.702  0.00  0.00    +0.000 A 
ATOM      2  C   UNL     1       3.866   6.068  17.782  0.00  0.00    +0.000 A 
ATOM      3  C   UNL     1       4.480   4.895  17.313  0.00  0.00    +0.000 A 
ATOM      4  C   UNL     1       4.005   3.678  17.816  0.00  0.00    +0.000 A 
ATOM      5  C   UNL     1       2.936   3.608  18.736  0.00  0.00    +0.000 A 
ATOM      6  C   UNL     1       2.456   2.355  19.180  0.00  0.00    +0.000 A 
ATOM      7  C   UNL     1       1.413   2.247  20.092  0.00  0.00    +0.000 A 
ATOM      8  C   UNL     1       0.829   3.398  20.590  0.00  0.00    +0.000 A 
ATOM      9  C   UNL     1       1.276   4.650  20.156  0.00  0.00    +0.000 A 
ATOM     10  C   UNL     1       2.329   4.800  19.210  0.00  0.00    +0.000 A 
ENDROOT
BRANCH   1  13
ATOM     11  O   UNL     1       2.289   8.610  17.245  0.00  0.00    +0.000 OA
ATOM     12  C   UNL     1       2.024   8.430  18.428  0.00  0.00    +0.000 C 
ATOM     13  N   UNL     1       2.206   7.267  19.153  0.00  0.00    +0.000 N 
ATOM     14  H   UNL     1       1.816   7.253  20.082  0.00  0.00    +0.000 HD
BRANCH  12  15
ATOM     15  C   UNL     1       1.394   9.512  19.238  0.00  0.00    +0.000 C 
ATOM     16  C   UNL     1       0.756   9.208  20.383  0.00  0.00    +0.000 C 
BRANCH  16  17
ATOM     17  C   UNL     1       0.157  10.249  21.218  0.00  0.00    +0.000 A 
ATOM     18  C   UNL     1      -0.531   9.914  22.391  0.00  0.00    +0.000 A 
ATOM     19  C   UNL     1      -1.136  10.913  23.161  0.00  0.00    +0.000 A 
ATOM     20  C   UNL     1      -1.052  12.246  22.759  0.00  0.00    +0.000 A 
ATOM     21 CL   UNL     1      -1.816  13.472  23.692  0.00  0.00    +0.000 Cl
ATOM     22  C   UNL     1      -0.357  12.589  21.600  0.00  0.00    +0.000 A 
ATOM     23  C   UNL     1       0.248  11.591  20.832  0.00  0.00    +0.000 A 
ENDBRANCH  16  17
ENDBRANCH  12  15
ENDBRANCH   1  13
BRANCH   4  24
ATOM     24  O   UNL     1       4.588   2.482  17.465  0.00  0.00    +0.000 OA
ATOM     25  H   UNL     1       3.996   2.081  16.795  0.00  0.00    +0.000 HD
ENDBRANCH   4  24
BRANCH   3  26
ATOM     26  S   UNL     1       5.922   5.144  16.270  0.00  0.00    +0.000 S 
BRANCH  26  27
ATOM     27  C   UNL     1       6.974   6.179  17.151  0.00  0.00    +0.000 A 
ATOM     28  N   UNL     1       7.659   5.949  18.246  0.00  0.00    +0.000 NA
ATOM     29  C   UNL     1       8.177   7.184  18.545  0.00  0.00    +0.000 A 
ATOM     30  N   UNL     1       7.858   8.156  17.690  0.00  0.00    +0.000 NA
ATOM     31  N   UNL     1       7.097   7.488  16.801  0.00  0.00    +0.000 N 
ATOM     32  H   UNL     1       6.679   7.979  16.021  0.00  0.00    +0.000 HD
ENDBRANCH  26  27
ENDBRANCH   3  26
TORSDOF 6
ENDMDL
MODEL 6
REMARK VINA RESULT:      -9.1      5.569      8.225
REMARK  Name = 
REMARK  6 active torsions:
REMARK  status: ('A' for Active; 'I' for Inactive)
REMARK    1  A    between atoms: C_2  and  C_3
REMARK    2  A    between atoms: C_4  and  C_5
REMARK    3  A    between atoms: N_12  and  C_13
REMARK    4  A    between atoms: C_15  and  S_16
REMARK    5  A    between atoms: S_16  and  C_17
REMARK    6  A    between atoms: C_22  and  O_23
REMARK                            x       y       z     vdW  Elec       q    Type
REMARK                         _______ _______ _______ _____ _____    ______ ____
ROOT
ATOM      1  C   UNL     1       3.047   6.474  19.238  0.00  0.00    +0.000 A 
ATOM      2  C   UNL     1       4.270   6.640  18.564  0.00  0.00    +0.000 A 
ATOM      3  C   UNL     1       5.185   5.589  18.384  0.00  0.00    +0.000 A 
ATOM      4  C   UNL     1       4.845   4.344  18.927  0.00  0.00    +0.000 A 
ATOM      5  C   UNL     1       3.627   4.125  19.606  0.00  0.00    +0.000 A 
ATOM      6  C   UNL     1       3.302   2.840  20.096  0.00  0.00    +0.000 A 
ATOM      7  C   UNL     1       2.118   2.588  20.777  0.00  0.00    +0.000 A 
ATOM      8  C   UNL     1       1.229   3.627  20.994  0.00  0.00    +0.000 A 
ATOM      9  C   UNL     1       1.521   4.905  20.508  0.00  0.00    +0.000 A 
ATOM     10  C   UNL     1       2.714   5.197  19.790  0.00  0.00    +0.000 A 
ENDROOT
BRANCH   1  13
ATOM     11  O   UNL     1       2.378   8.716  17.378  0.00  0.00    +0.000 OA
ATOM     12  C   UNL     1       1.905   8.593  18.501  0.00  0.00    +0.000 C 
ATOM     13  N   UNL     1       2.146   7.569  19.399  0.00  0.00    +0.000 N 
ATOM     14  H   UNL     1       1.576   7.557  20.229  0.00  0.00    +0.000 HD
BRANCH  12  15
ATOM     15  C   UNL     1       0.919   9.585  19.023  0.00  0.00    +0.000 C 
ATOM     16  C   UNL     1       0.732   9.710  20.350  0.00  0.00    +0.000 C 
BRANCH  16  17
ATOM     17  C   UNL     1      -0.201  10.696  20.895  0.00  0.00    +0.000 A 
ATOM     18  C   UNL     1      -0.447  10.760  22.272  0.00  0.00    +0.000 A 
ATOM     19  C   UNL     1      -1.372  11.678  22.779  0.00  0.00    +0.000 A 
ATOM     20  C   UNL     1      -2.050  12.532  21.911  0.00  0.00    +0.000 A 
ATOM     21 CL   UNL     1      -3.206  13.645  22.531  0.00  0.00    +0.000 Cl
ATOM     22  C   UNL     1      -1.801  12.484  20.539  0.00  0.00    +0.000 A 
ATOM     23  C   UNL     1      -0.875  11.568  20.033  0.00  0.00    +0.000 A 
ENDBRANCH  16  17
ENDBRANCH  12  15
ENDBRANCH   1  13
BRANCH   4  24
ATOM     24  O   UNL     1       5.707   3.274  18.858  0.00  0.00    +0.000 OA
ATOM     25  H   UNL     1       6.069   3.278  17.947  0.00  0.00    +0.000 HD
ENDBRANCH   4  24
BRANCH   3  26
ATOM     26  S   UNL     1       6.754   6.051  17.640  0.00  0.00    +0.000 S 
BRANCH  26  27
ATOM     27  C   UNL     1       6.803   5.268  16.110  0.00  0.00    +0.000 A 
ATOM     28  N   UNL     1       7.420   5.615  15.005  0.00  0.00    +0.000 NA
ATOM     29  C   UNL     1       6.963   4.693  14.099  0.00  0.00    +0.000 A 
ATOM     30  N   UNL     1       6.109   3.792  14.586  0.00  0.00    +0.000 NA
ATOM     31  N   UNL     1       6.030   4.173  15.876  0.00  0.00    +0.000 N 
ATOM     32  H   UNL     1       5.423   3.676  16.515  0.00  0.00    +0.000 HD
ENDBRANCH  26  27
ENDBRANCH   3  26
TORSDOF 6
ENDMDL
MODEL 7
REMARK VINA RESULT:      -9.1      5.766      8.132
REMARK  Name = 
REMARK  6 active torsions:
REMARK  status: ('A' for Active; 'I' for Inactive)
REMARK    1  A    between atoms: C_2  and  C_3
REMARK    2  A    between atoms: C_4  and  C_5
REMARK    3  A    between atoms: N_12  and  C_13
REMARK    4  A    between atoms: C_15  and  S_16
REMARK    5  A    between atoms: S_16  and  C_17
REMARK    6  A    between atoms: C_22  and  O_23
REMARK                            x       y       z     vdW  Elec       q    Type
REMARK                         _______ _______ _______ _____ _____    ______ ____
ROOT
ATOM      1  C   UNL     1       2.988   6.081  18.216  0.00  0.00    +0.000 A 
ATOM      2  C   UNL     1       4.214   6.278  17.554  0.00  0.00    +0.000 A 
ATOM      3  C   UNL     1       4.987   5.215  17.058  0.00  0.00    +0.000 A 
ATOM      4  C   UNL     1       4.500   3.919  17.265  0.00  0.00    +0.000 A 
ATOM      5  C   UNL     1       3.273   3.668  17.917  0.00  0.00    +0.000 A 
ATOM      6  C   UNL     1       2.796   2.346  18.061  0.00  0.00    +0.000 A 
ATOM      7  C   UNL     1       1.599   2.061  18.705  0.00  0.00    +0.000 A 
ATOM      8  C   UNL     1       0.851   3.099  19.233  0.00  0.00    +0.000 A 
ATOM      9  C   UNL     1       1.294   4.418  19.092  0.00  0.00    +0.000 A 
ATOM     10  C   UNL     1       2.505   4.750  18.423  0.00  0.00    +0.000 A 
ENDROOT
BRANCH   1  13
ATOM     11  O   UNL     1       2.624   8.822  17.082  0.00  0.00    +0.000 OA
ATOM     12  C   UNL     1       2.132   8.447  18.139  0.00  0.00    +0.000 C 
ATOM     13  N   UNL     1       2.234   7.189  18.705  0.00  0.00    +0.000 N 
ATOM     14  H   UNL     1       1.662   7.015  19.516  0.00  0.00    +0.000 HD
BRANCH  12  15
ATOM     15  C   UNL     1       1.279   9.366  18.947  0.00  0.00    +0.000 C 
ATOM     16  C   UNL     1       0.825   8.974  20.153  0.00  0.00    +0.000 C 
BRANCH  16  17
ATOM     17  C   UNL     1       0.016   9.863  20.985  0.00  0.00    +0.000 A 
ATOM     18  C   UNL     1      -0.579  11.007  20.439  0.00  0.00    +0.000 A 
ATOM     19  C   UNL     1      -1.317  11.872  21.253  0.00  0.00    +0.000 A 
ATOM     20  C   UNL     1      -1.461  11.594  22.611  0.00  0.00    +0.000 A 
ATOM     21 CL   UNL     1      -2.348  12.671  23.618  0.00  0.00    +0.000 Cl
ATOM     22  C   UNL     1      -0.883  10.450  23.161  0.00  0.00    +0.000 A 
ATOM     23  C   UNL     1      -0.147   9.585  22.347  0.00  0.00    +0.000 A 
ENDBRANCH  16  17
ENDBRANCH  12  15
ENDBRANCH   1  13
BRANCH   4  24
ATOM     24  O   UNL     1       5.219   2.814  16.873  0.00  0.00    +0.000 OA
ATOM     25  H   UNL     1       5.192   2.808  15.893  0.00  0.00    +0.000 HD
ENDBRANCH   4  24
BRANCH   3  26
ATOM     26  S   UNL     1       6.591   5.673  16.392  0.00  0.00    +0.000 S 
BRANCH  26  27
ATOM     27  C   UNL     1       6.635   5.052  14.790  0.00  0.00    +0.000 A 
ATOM     28  N   UNL     1       5.909   4.114  14.229  0.00  0.00    +0.000 NA
ATOM     29  C   UNL     1       6.506   3.959  13.004  0.00  0.00    +0.000 A 
ATOM     30  N   UNL     1       7.550   4.756  12.775  0.00  0.00    +0.000 NA
ATOM     31  N   UNL     1       7.608   5.454  13.927  0.00  0.00    +0.000 N 
ATOM     32  H   UNL     1       8.334   6.145  14.065  0.00  0.00    +0.000 HD
ENDBRANCH  26  27
ENDBRANCH   3  26
TORSDOF 6
ENDMDL
MODEL 8
REMARK VINA RESULT:      -9.0      5.163      7.929
REMARK  Name = 
REMARK  6 active torsions:
REMARK  status: ('A' for Active; 'I' for Inactive)
REMARK    1  A    between atoms: C_2  and  C_3
REMARK    2  A    between atoms: C_4  and  C_5
REMARK    3  A    between atoms: N_12  and  C_13
REMARK    4  A    between atoms: C_15  and  S_16
REMARK    5  A    between atoms: S_16  and  C_17
REMARK    6  A    between atoms: C_22  and  O_23
REMARK                            x       y       z     vdW  Elec       q    Type
REMARK                         _______ _______ _______ _____ _____    ______ ____
ROOT
ATOM      1  C   UNL     1       2.790   6.208  18.682  0.00  0.00    +0.000 A 
ATOM      2  C   UNL     1       3.885   6.255  17.800  0.00  0.00    +0.000 A 
ATOM      3  C   UNL     1       4.550   5.101  17.355  0.00  0.00    +0.000 A 
ATOM      4  C   UNL     1       4.094   3.871  17.844  0.00  0.00    +0.000 A 
ATOM      5  C   UNL     1       2.995   3.769  18.726  0.00  0.00    +0.000 A 
ATOM      6  C   UNL     1       2.538   2.503  19.156  0.00  0.00    +0.000 A 
ATOM      7  C   UNL     1       1.467   2.365  20.029  0.00  0.00    +0.000 A 
ATOM      8  C   UNL     1       0.831   3.499  20.504  0.00  0.00    +0.000 A 
ATOM      9  C   UNL     1       1.256   4.763  20.083  0.00  0.00    +0.000 A 
ATOM     10  C   UNL     1       2.337   4.943  19.175  0.00  0.00    +0.000 A 
ENDROOT
BRANCH   1  13
ATOM     11  O   UNL     1       2.323   8.777  17.228  0.00  0.00    +0.000 OA
ATOM     12  C   UNL     1       1.986   8.575  18.389  0.00  0.00    +0.000 C 
ATOM     13  N   UNL     1       2.142   7.405  19.109  0.00  0.00    +0.000 N 
ATOM     14  H   UNL     1       1.693   7.371  20.011  0.00  0.00    +0.000 HD
BRANCH  12  15
ATOM     15  C   UNL     1       1.283   9.634  19.170  0.00  0.00    +0.000 C 
ATOM     16  C   UNL     1       0.744   9.338  20.368  0.00  0.00    +0.000 C 
BRANCH  16  17
ATOM     17  C   UNL     1       0.078  10.360  21.174  0.00  0.00    +0.000 A 
ATOM     18  C   UNL     1       0.113  11.707  20.791  0.00  0.00    +0.000 A 
ATOM     19  C   UNL     1      -0.491  12.681  21.592  0.00  0.00    +0.000 A 
ATOM     20  C   UNL     1      -1.130  12.310  22.774  0.00  0.00    +0.000 A 
ATOM     21 CL   UNL     1      -1.852  13.511  23.772  0.00  0.00    +0.000 Cl
ATOM     22  C   UNL     1      -1.181  10.970  23.157  0.00  0.00    +0.000 A 
ATOM     23  C   UNL     1      -0.579   9.996  22.356  0.00  0.00    +0.000 A 
ENDBRANCH  16  17
ENDBRANCH  12  15
ENDBRANCH   1  13
BRANCH   4  24
ATOM     24  O   UNL     1       4.724   2.693  17.517  0.00  0.00    +0.000 OA
ATOM     25  H   UNL     1       4.092   1.978  17.741  0.00  0.00    +0.000 HD
ENDBRANCH   4  24
BRANCH   3  26
ATOM     26  S   UNL     1       6.020   5.391  16.364  0.00  0.00    +0.000 S 
BRANCH  26  27
ATOM     27  C   UNL     1       6.929   6.587  17.200  0.00  0.00    +0.000 A 
ATOM     28  N   UNL     1       7.153   7.843  16.893  0.00  0.00    +0.000 NA
ATOM     29  C   UNL     1       8.059   8.232  17.846  0.00  0.00    +0.000 A 
ATOM     30  N   UNL     1       8.396   7.290  18.728  0.00  0.00    +0.000 NA
ATOM     31  N   UNL     1       7.653   6.250  18.302  0.00  0.00    +0.000 N 
ATOM     32  H   UNL     1       7.711   5.358  18.775  0.00  0.00    +0.000 HD
ENDBRANCH  26  27
ENDBRANCH   3  26
TORSDOF 6
ENDMDL
MODEL 9
REMARK VINA RESULT:      -9.0      5.840      8.769
REMARK  Name = 
REMARK  6 active torsions:
REMARK  status: ('A' for Active; 'I' for Inactive)
REMARK    1  A    between atoms: C_2  and  C_3
REMARK    2  A    between atoms: C_4  and  C_5
REMARK    3  A    between atoms: N_12  and  C_13
REMARK    4  A    between atoms: C_15  and  S_16
REMARK    5  A    between atoms: S_16  and  C_17
REMARK    6  A    between atoms: C_22  and  O_23
REMARK                            x       y       z     vdW  Elec       q    Type
REMARK                         _______ _______ _______ _____ _____    ______ ____
ROOT
ATOM      1  C   UNL     1       2.922   6.551  18.816  0.00  0.00    +0.000 A 
ATOM      2  C   UNL     1       4.104   6.734  18.075  0.00  0.00    +0.000 A 
ATOM      3  C   UNL     1       5.102   5.751  17.985  0.00  0.00    +0.000 A 
ATOM      4  C   UNL     1       4.892   4.559  18.689  0.00  0.00    +0.000 A 
ATOM      5  C   UNL     1       3.720   4.323  19.442  0.00  0.00    +0.000 A 
ATOM      6  C   UNL     1       3.528   3.086  20.097  0.00  0.00    +0.000 A 
ATOM      7  C   UNL     1       2.393   2.822  20.853  0.00  0.00    +0.000 A 
ATOM      8  C   UNL     1       1.423   3.801  20.981  0.00  0.00    +0.000 A 
ATOM      9  C   UNL     1       1.583   5.029  20.331  0.00  0.00    +0.000 A 
ATOM     10  C   UNL     1       2.722   5.329  19.532  0.00  0.00    +0.000 A 
ENDROOT
BRANCH   1  13
ATOM     11  O   UNL     1       2.659   9.085  17.254  0.00  0.00    +0.000 OA
ATOM     12  C   UNL     1       1.888   8.745  18.142  0.00  0.00    +0.000 C 
ATOM     13  N   UNL     1       1.932   7.577  18.881  0.00  0.00    +0.000 N 
ATOM     14  H   UNL     1       1.146   7.398  19.485  0.00  0.00    +0.000 HD
BRANCH  12  15
ATOM     15  C   UNL     1       0.720   9.600  18.502  0.00  0.00    +0.000 C 
ATOM     16  C   UNL     1      -0.398   9.561  17.752  0.00  0.00    +0.000 C 
BRANCH  16  17
ATOM     17  C   UNL     1      -1.572  10.360  18.096  0.00  0.00    +0.000 A 
ATOM     18  C   UNL     1      -1.478  11.404  19.025  0.00  0.00    +0.000 A 
ATOM     19  C   UNL     1      -2.616  12.136  19.379  0.00  0.00    +0.000 A 
ATOM     20  C   UNL     1      -3.848  11.825  18.804  0.00  0.00    +0.000 A 
ATOM     21 CL   UNL     1      -5.253  12.708  19.256  0.00  0.00    +0.000 Cl
ATOM     22  C   UNL     1      -3.948  10.796  17.868  0.00  0.00    +0.000 A 
ATOM     23  C   UNL     1      -2.811  10.066  17.514  0.00  0.00    +0.000 A 
ENDBRANCH  16  17
ENDBRANCH  12  15
ENDBRANCH   1  13
BRANCH   4  24
ATOM     24  O   UNL     1       5.843   3.565  18.714  0.00  0.00    +0.000 OA
ATOM     25  H   UNL     1       6.610   3.938  19.197  0.00  0.00    +0.000 HD
ENDBRANCH   4  24
BRANCH   3  26
ATOM     26  S   UNL     1       6.599   6.247  17.124  0.00  0.00    +0.000 S 
BRANCH  26  27
ATOM     27  C   UNL     1       6.651   5.312  15.683  0.00  0.00    +0.000 A 
ATOM     28  N   UNL     1       7.459   5.396  14.652  0.00  0.00    +0.000 NA
ATOM     29  C   UNL     1       6.915   4.502  13.766  0.00  0.00    +0.000 A 
ATOM     30  N   UNL     1       5.825   3.865  14.197  0.00  0.00    +0.000 NA
ATOM     31  N   UNL     1       5.681   4.391  15.429  0.00  0.00    +0.000 N 
ATOM     32  H   UNL     1       4.904   4.110  16.013  0.00  0.00    +0.000 HD
ENDBRANCH  26  27
ENDBRANCH   3  26
TORSDOF 6
ENDMDL
