MODEL 1
REMARK VINA RESULT:      -8.8      0.000      0.000
REMARK  Name = 
REMARK  6 active torsions:
REMARK  status: ('A' for Active; 'I' for Inactive)
REMARK    1  A    between atoms: C_1  and  C_2
REMARK    2  A    between atoms: C_2  and  C_3
REMARK    3  A    between atoms: C_6  and  C_8
REMARK    4  A    between atoms: C_11  and  N_12
REMARK    5  A    between atoms: C_15  and  C_16
REMARK    6  A    between atoms: C_21  and  C_22
REMARK                            x       y       z     vdW  Elec       q    Type
REMARK                         _______ _______ _______ _____ _____    ______ ____
ROOT
ATOM      1  N   UNL     1       0.809  10.254  20.639  0.00  0.00    +0.000 N 
ATOM      2  C   UNL     1      -0.319  11.013  20.372  0.00  0.00    +0.000 A 
ATOM      3  N   UNL     1      -1.016  10.810  19.275  0.00  0.00    +0.000 NA
ATOM      4  C   UNL     1      -2.126  11.567  18.979  0.00  0.00    +0.000 A 
ATOM      5  C   UNL     1      -2.582  12.525  19.805  0.00  0.00    +0.000 A 
ATOM      6  N   UNL     1      -1.897  12.773  20.982  0.00  0.00    +0.000 N 
ATOM      7  C   UNL     1      -2.067  13.694  21.988  0.00  0.00    +0.000 A 
ATOM      8  C   UNL     1      -0.988  13.496  22.829  0.00  0.00    +0.000 A 
ATOM      9  N   UNL     1      -0.179  12.471  22.389  0.00  0.00    +0.000 NA
ATOM     10  C   UNL     1      -0.757  12.066  21.277  0.00  0.00    +0.000 A 
ATOM     11  H   UNL     1       1.476  10.650  21.293  0.00  0.00    +0.000 HD
ENDROOT
BRANCH   1  15
ATOM     12  C   UNL     1       2.530   7.095  18.421  0.00  0.00    +0.000 A 
ATOM     13  C   UNL     1       2.060   8.230  17.764  0.00  0.00    +0.000 A 
ATOM     14  C   UNL     1       1.466   9.261  18.491  0.00  0.00    +0.000 A 
ATOM     15  C   UNL     1       1.255   9.159  19.873  0.00  0.00    +0.000 A 
ATOM     16  C   UNL     1       1.597   7.947  20.485  0.00  0.00    +0.000 A 
ATOM     17  F   UNL     1       1.349   7.775  21.793  0.00  0.00    +0.000 F 
ATOM     18  C   UNL     1       2.230   6.923  19.777  0.00  0.00    +0.000 A 
BRANCH  12  24
ATOM     19  C   UNL     1       6.606   4.569  18.219  0.00  0.00    +0.000 C 
ATOM     20  C   UNL     1       6.599   5.115  16.777  0.00  0.00    +0.000 C 
ATOM     21  C   UNL     1       7.341   4.118  15.874  0.00  0.00    +0.000 C 
ATOM     22  C   UNL     1       5.138   5.278  16.264  0.00  0.00    +0.000 C 
ATOM     23  N   UNL     1       4.436   6.362  16.961  0.00  0.00    +0.000 N 
ATOM     24  C   UNL     1       3.305   6.043  17.715  0.00  0.00    +0.000 C 
ATOM     25  O   UNL     1       2.911   4.884  17.855  0.00  0.00    +0.000 OA
ATOM     26  C   UNL     1       5.164   7.640  16.913  0.00  0.00    +0.000 C 
ATOM     27  C   UNL     1       6.630   7.495  17.357  0.00  0.00    +0.000 C 
ATOM     28  N   UNL     1       7.344   6.397  16.695  0.00  0.00    +0.000 NA
ATOM     29  H   UNL     1       8.264   6.287  17.123  0.00  0.00    +0.000 HD
ENDBRANCH  12  24
ENDBRANCH   1  15
BRANCH   7  30
ATOM     30  C   UNL     1      -3.143  14.699  22.119  0.00  0.00    +0.000 A 
ATOM     31  C   UNL     1      -3.239  15.996  21.574  0.00  0.00    +0.000 A 
ATOM     32  N   UNL     1      -4.337  16.638  21.977  0.00  0.00    +0.000 NA
ATOM     33  N   UNL     1      -4.952  15.744  22.766  0.00  0.00    +0.000 N 
ATOM     34  C   UNL     1      -4.295  14.551  22.854  0.00  0.00    +0.000 A 
ATOM     35  H   UNL     1      -5.814  16.024  23.226  0.00  0.00    +0.000 HD
ENDBRANCH   7  30
BRANCH   4  36
ATOM     36  C   UNL     1      -2.768  11.205  17.705  0.00  0.00    +0.000 C 
ATOM     37  C   UNL     1      -2.195  10.122  16.828  0.00  0.00    +0.000 C 
ATOM     38  C   UNL     1      -3.448   9.859  17.608  0.00  0.00    +0.000 C 
ENDBRANCH   4  36
TORSDOF 4
ENDMDL
MODEL 2
REMARK VINA RESULT:      -8.7      2.208      2.950
REMARK  Name = 
REMARK  6 active torsions:
REMARK  status: ('A' for Active; 'I' for Inactive)
REMARK    1  A    between atoms: C_1  and  C_2
REMARK    2  A    between atoms: C_2  and  C_3
REMARK    3  A    between atoms: C_6  and  C_8
REMARK    4  A    between atoms: C_11  and  N_12
REMARK    5  A    between atoms: C_15  and  C_16
REMARK    6  A    between atoms: C_21  and  C_22
REMARK                            x       y       z     vdW  Elec       q    Type
REMARK                         _______ _______ _______ _____ _____    ______ ____
ROOT
ATOM      1  N   UNL     1       0.489  10.801  20.471  0.00  0.00    +0.000 N 
ATOM      2  C   UNL     1      -0.731  11.344  20.102  0.00  0.00    +0.000 A 
ATOM      3  N   UNL     1      -1.486  10.743  19.207  0.00  0.00    +0.000 NA
ATOM      4  C   UNL     1      -2.691  11.275  18.809  0.00  0.00    +0.000 A 
ATOM      5  C   UNL     1      -3.182  12.411  19.336  0.00  0.00    +0.000 A 
ATOM      6  N   UNL     1      -2.437  13.079  20.293  0.00  0.00    +0.000 N 
ATOM      7  C   UNL     1      -2.628  14.260  20.969  0.00  0.00    +0.000 A 
ATOM      8  C   UNL     1      -1.471  14.430  21.708  0.00  0.00    +0.000 A 
ATOM      9  N   UNL     1      -0.594  13.383  21.528  0.00  0.00    +0.000 NA
ATOM     10  C   UNL     1      -1.209  12.596  20.670  0.00  0.00    +0.000 A 
ATOM     11  H   UNL     1       1.158  11.438  20.890  0.00  0.00    +0.000 HD
ENDROOT
BRANCH   1  15
ATOM     12  C   UNL     1       2.356   7.183  19.339  0.00  0.00    +0.000 A 
ATOM     13  C   UNL     1       2.155   8.186  18.394  0.00  0.00    +0.000 A 
ATOM     14  C   UNL     1       1.514   9.370  18.758  0.00  0.00    +0.000 A 
ATOM     15  C   UNL     1       0.990   9.555  20.046  0.00  0.00    +0.000 A 
ATOM     16  C   UNL     1       1.068   8.473  20.931  0.00  0.00    +0.000 A 
ATOM     17  F   UNL     1       0.518   8.577  22.151  0.00  0.00    +0.000 F 
ATOM     18  C   UNL     1       1.744   7.299  20.593  0.00  0.00    +0.000 A 
BRANCH  12  24
ATOM     19  C   UNL     1       2.485   2.843  17.295  0.00  0.00    +0.000 C 
ATOM     20  C   UNL     1       2.954   2.447  18.709  0.00  0.00    +0.000 C 
ATOM     21  C   UNL     1       3.854   1.208  18.597  0.00  0.00    +0.000 C 
ATOM     22  C   UNL     1       3.762   3.608  19.359  0.00  0.00    +0.000 C 
ATOM     23  N   UNL     1       2.905   4.756  19.675  0.00  0.00    +0.000 N 
ATOM     24  C   UNL     1       3.166   5.973  19.042  0.00  0.00    +0.000 C 
ATOM     25  O   UNL     1       4.053   6.101  18.197  0.00  0.00    +0.000 OA
ATOM     26  C   UNL     1       1.740   4.393  20.498  0.00  0.00    +0.000 C 
ATOM     27  C   UNL     1       0.956   3.206  19.909  0.00  0.00    +0.000 C 
ATOM     28  N   UNL     1       1.799   2.056  19.557  0.00  0.00    +0.000 NA
ATOM     29  H   UNL     1       1.233   1.362  19.067  0.00  0.00    +0.000 HD
ENDBRANCH  12  24
ENDBRANCH   1  15
BRANCH   7  30
ATOM     30  C   UNL     1      -3.792  15.167  20.893  0.00  0.00    +0.000 A 
ATOM     31  C   UNL     1      -5.155  14.911  21.152  0.00  0.00    +0.000 A 
ATOM     32  N   UNL     1      -5.928  15.970  20.902  0.00  0.00    +0.000 NA
ATOM     33  N   UNL     1      -5.057  16.908  20.501  0.00  0.00    +0.000 N 
ATOM     34  C   UNL     1      -3.758  16.487  20.514  0.00  0.00    +0.000 A 
ATOM     35  H   UNL     1      -5.424  17.813  20.218  0.00  0.00    +0.000 HD
ENDBRANCH   7  30
BRANCH   4  36
ATOM     36  C   UNL     1      -3.387  10.471  17.792  0.00  0.00    +0.000 C 
ATOM     37  C   UNL     1      -4.284  11.121  16.770  0.00  0.00    +0.000 C 
ATOM     38  C   UNL     1      -2.941  10.601  16.354  0.00  0.00    +0.000 C 
ENDBRANCH   4  36
TORSDOF 4
ENDMDL
MODEL 3
REMARK VINA RESULT:      -8.7      2.572      3.531
REMARK  Name = 
REMARK  6 active torsions:
REMARK  status: ('A' for Active; 'I' for Inactive)
REMARK    1  A    between atoms: C_1  and  C_2
REMARK    2  A    between atoms: C_2  and  C_3
REMARK    3  A    between atoms: C_6  and  C_8
REMARK    4  A    between atoms: C_11  and  N_12
REMARK    5  A    between atoms: C_15  and  C_16
REMARK    6  A    between atoms: C_21  and  C_22
REMARK                            x       y       z     vdW  Elec       q    Type
REMARK                         _______ _______ _______ _____ _____    ______ ____
ROOT
ATOM      1  N   UNL     1      -0.377  11.109  20.640  0.00  0.00    +0.000 N 
ATOM      2  C   UNL     1      -1.576  11.353  19.989  0.00  0.00    +0.000 A 
ATOM      3  N   UNL     1      -1.891  10.688  18.899  0.00  0.00    +0.000 NA
ATOM      4  C   UNL     1      -3.065  10.929  18.223  0.00  0.00    +0.000 A 
ATOM      5  C   UNL     1      -3.970  11.824  18.656  0.00  0.00    +0.000 A 
ATOM      6  N   UNL     1      -3.698  12.545  19.807  0.00  0.00    +0.000 N 
ATOM      7  C   UNL     1      -4.373  13.545  20.465  0.00  0.00    +0.000 A 
ATOM      8  C   UNL     1      -3.524  13.922  21.491  0.00  0.00    +0.000 A 
ATOM      9  N   UNL     1      -2.369  13.171  21.498  0.00  0.00    +0.000 NA
ATOM     10  C   UNL     1      -2.511  12.359  20.471  0.00  0.00    +0.000 A 
ATOM     11  H   UNL     1      -0.037  11.844  21.252  0.00  0.00    +0.000 HD
ENDROOT
BRANCH   1  15
ATOM     12  C   UNL     1       2.075   7.884  19.438  0.00  0.00    +0.000 A 
ATOM     13  C   UNL     1       1.551   7.915  20.729  0.00  0.00    +0.000 A 
ATOM     14  C   UNL     1       0.765   8.993  21.137  0.00  0.00    +0.000 A 
ATOM     15  C   UNL     1       0.544  10.098  20.303  0.00  0.00    +0.000 A 
ATOM     16  C   UNL     1       1.206  10.113  19.070  0.00  0.00    +0.000 A 
ATOM     17  F   UNL     1       1.083  11.181  18.267  0.00  0.00    +0.000 F 
ATOM     18  C   UNL     1       1.962   9.023  18.632  0.00  0.00    +0.000 A 
BRANCH  12  24
ATOM     19  C   UNL     1       1.687   3.486  17.557  0.00  0.00    +0.000 C 
ATOM     20  C   UNL     1       2.624   3.153  18.735  0.00  0.00    +0.000 C 
ATOM     21  C   UNL     1       3.484   1.941  18.347  0.00  0.00    +0.000 C 
ATOM     22  C   UNL     1       3.554   4.361  19.048  0.00  0.00    +0.000 C 
ATOM     23  N   UNL     1       2.807   5.489  19.615  0.00  0.00    +0.000 N 
ATOM     24  C   UNL     1       2.787   6.693  18.907  0.00  0.00    +0.000 C 
ATOM     25  O   UNL     1       3.328   6.822  17.808  0.00  0.00    +0.000 OA
ATOM     26  C   UNL     1       2.007   5.115  20.792  0.00  0.00    +0.000 C 
ATOM     27  C   UNL     1       1.122   3.883  20.528  0.00  0.00    +0.000 C 
ATOM     28  N   UNL     1       1.842   2.752  19.932  0.00  0.00    +0.000 NA
ATOM     29  H   UNL     1       1.174   2.023  19.678  0.00  0.00    +0.000 HD
ENDBRANCH  12  24
ENDBRANCH   1  15
BRANCH   7  30
ATOM     30  C   UNL     1      -5.693  14.118  20.129  0.00  0.00    +0.000 A 
ATOM     31  C   UNL     1      -6.949  13.486  20.016  0.00  0.00    +0.000 A 
ATOM     32  N   UNL     1      -7.907  14.326  19.619  0.00  0.00    +0.000 NA
ATOM     33  N   UNL     1      -7.266  15.498  19.496  0.00  0.00    +0.000 N 
ATOM     34  C   UNL     1      -5.943  15.435  19.826  0.00  0.00    +0.000 A 
ATOM     35  H   UNL     1      -7.796  16.301  19.166  0.00  0.00    +0.000 HD
ENDBRANCH   7  30
BRANCH   4  36
ATOM     36  C   UNL     1      -3.239  10.099  17.021  0.00  0.00    +0.000 C 
ATOM     37  C   UNL     1      -4.050  10.589  15.850  0.00  0.00    +0.000 C 
ATOM     38  C   UNL     1      -2.556  10.539  15.747  0.00  0.00    +0.000 C 
ENDBRANCH   4  36
TORSDOF 4
ENDMDL
MODEL 4
REMARK VINA RESULT:      -8.6      2.928      4.239
REMARK  Name = 
REMARK  6 active torsions:
REMARK  status: ('A' for Active; 'I' for Inactive)
REMARK    1  A    between atoms: C_1  and  C_2
REMARK    2  A    between atoms: C_2  and  C_3
REMARK    3  A    between atoms: C_6  and  C_8
REMARK    4  A    between atoms: C_11  and  N_12
REMARK    5  A    between atoms: C_15  and  C_16
REMARK    6  A    between atoms: C_21  and  C_22
REMARK                            x       y       z     vdW  Elec       q    Type
REMARK                         _______ _______ _______ _____ _____    ______ ____
ROOT
ATOM      1  N   UNL     1      -1.202  10.628  22.423  0.00  0.00    +0.000 N 
ATOM      2  C   UNL     1      -1.248  11.998  22.630  0.00  0.00    +0.000 A 
ATOM      3  N   UNL     1      -0.255  12.766  22.237  0.00  0.00    +0.000 NA
ATOM      4  C   UNL     1      -0.269  14.125  22.453  0.00  0.00    +0.000 A 
ATOM      5  C   UNL     1      -1.308  14.747  23.038  0.00  0.00    +0.000 A 
ATOM      6  N   UNL     1      -2.387  13.990  23.460  0.00  0.00    +0.000 N 
ATOM      7  C   UNL     1      -3.549  14.306  24.123  0.00  0.00    +0.000 A 
ATOM      8  C   UNL     1      -4.166  13.088  24.347  0.00  0.00    +0.000 A 
ATOM      9  N   UNL     1      -3.436  12.044  23.822  0.00  0.00    +0.000 NA
ATOM     10  C   UNL     1      -2.376  12.626  23.302  0.00  0.00    +0.000 A 
ATOM     11  H   UNL     1      -1.802  10.061  23.013  0.00  0.00    +0.000 HD
ENDROOT
BRANCH   1  15
ATOM     12  C   UNL     1       1.539   8.263  20.243  0.00  0.00    +0.000 A 
ATOM     13  C   UNL     1       1.642   8.346  21.630  0.00  0.00    +0.000 A 
ATOM     14  C   UNL     1       0.756   9.148  22.348  0.00  0.00    +0.000 A 
ATOM     15  C   UNL     1      -0.201   9.945  21.704  0.00  0.00    +0.000 A 
ATOM     16  C   UNL     1      -0.184   9.962  20.305  0.00  0.00    +0.000 A 
ATOM     17  F   UNL     1      -1.034  10.763  19.644  0.00  0.00    +0.000 F 
ATOM     18  C   UNL     1       0.670   9.133  19.574  0.00  0.00    +0.000 A 
BRANCH  12  24
ATOM     19  C   UNL     1       1.566   4.340  17.479  0.00  0.00    +0.000 C 
ATOM     20  C   UNL     1       2.600   3.890  18.531  0.00  0.00    +0.000 C 
ATOM     21  C   UNL     1       3.574   2.904  17.869  0.00  0.00    +0.000 C 
ATOM     22  C   UNL     1       3.398   5.114  19.068  0.00  0.00    +0.000 C 
ATOM     23  N   UNL     1       2.556   5.996  19.883  0.00  0.00    +0.000 N 
ATOM     24  C   UNL     1       2.355   7.309  19.450  0.00  0.00    +0.000 C 
ATOM     25  O   UNL     1       2.816   7.731  18.388  0.00  0.00    +0.000 OA
ATOM     26  C   UNL     1       1.872   5.287  20.976  0.00  0.00    +0.000 C 
ATOM     27  C   UNL     1       1.124   4.036  20.482  0.00  0.00    +0.000 C 
ATOM     28  N   UNL     1       1.938   3.153  19.638  0.00  0.00    +0.000 NA
ATOM     29  H   UNL     1       1.347   2.415  19.254  0.00  0.00    +0.000 HD
ENDBRANCH  12  24
ENDBRANCH   1  15
BRANCH   7  30
ATOM     30  C   UNL     1      -4.016  15.645  24.539  0.00  0.00    +0.000 A 
ATOM     31  C   UNL     1      -5.253  16.283  24.305  0.00  0.00    +0.000 A 
ATOM     32  N   UNL     1      -5.279  17.531  24.778  0.00  0.00    +0.000 NA
ATOM     33  N   UNL     1      -4.065  17.683  25.329  0.00  0.00    +0.000 N 
ATOM     34  C   UNL     1      -3.283  16.568  25.245  0.00  0.00    +0.000 A 
ATOM     35  H   UNL     1      -3.834  18.587  25.735  0.00  0.00    +0.000 HD
ENDBRANCH   7  30
BRANCH   4  36
ATOM     36  C   UNL     1       0.932  14.816  21.957  0.00  0.00    +0.000 C 
ATOM     37  C   UNL     1       1.848  14.159  20.958  0.00  0.00    +0.000 C 
ATOM     38  C   UNL     1       0.947  15.273  20.517  0.00  0.00    +0.000 C 
ENDBRANCH   4  36
TORSDOF 4
ENDMDL
MODEL 5
REMARK VINA RESULT:      -8.3      1.571      1.971
REMARK  Name = 
REMARK  6 active torsions:
REMARK  status: ('A' for Active; 'I' for Inactive)
REMARK    1  A    between atoms: C_1  and  C_2
REMARK    2  A    between atoms: C_2  and  C_3
REMARK    3  A    between atoms: C_6  and  C_8
REMARK    4  A    between atoms: C_11  and  N_12
REMARK    5  A    between atoms: C_15  and  C_16
REMARK    6  A    between atoms: C_21  and  C_22
REMARK                            x       y       z     vdW  Elec       q    Type
REMARK                         _______ _______ _______ _____ _____    ______ ____
ROOT
ATOM      1  N   UNL     1       0.371  10.561  20.300  0.00  0.00    +0.000 N 
ATOM      2  C   UNL     1      -0.874  10.916  19.806  0.00  0.00    +0.000 A 
ATOM      3  N   UNL     1      -1.319  10.398  18.682  0.00  0.00    +0.000 NA
ATOM      4  C   UNL     1      -2.542  10.753  18.162  0.00  0.00    +0.000 A 
ATOM      5  C   UNL     1      -3.365  11.612  18.787  0.00  0.00    +0.000 A 
ATOM      6  N   UNL     1      -2.955  12.178  19.982  0.00  0.00    +0.000 N 
ATOM      7  C   UNL     1      -3.523  13.108  20.820  0.00  0.00    +0.000 A 
ATOM      8  C   UNL     1      -2.565  13.333  21.793  0.00  0.00    +0.000 A 
ATOM      9  N   UNL     1      -1.446  12.555  21.594  0.00  0.00    +0.000 NA
ATOM     10  C   UNL     1      -1.718  11.879  20.497  0.00  0.00    +0.000 A 
ATOM     11  H   UNL     1       0.797  11.205  20.958  0.00  0.00    +0.000 HD
ENDROOT
BRANCH   1  15
ATOM     12  C   UNL     1       2.568   7.447  18.473  0.00  0.00    +0.000 A 
ATOM     13  C   UNL     1       2.151   7.320  19.796  0.00  0.00    +0.000 A 
ATOM     14  C   UNL     1       1.451   8.358  20.410  0.00  0.00    +0.000 A 
ATOM     15  C   UNL     1       1.215   9.573  19.753  0.00  0.00    +0.000 A 
ATOM     16  C   UNL     1       1.776   9.734  18.481  0.00  0.00    +0.000 A 
ATOM     17  F   UNL     1       1.637  10.905  17.841  0.00  0.00    +0.000 F 
ATOM     18  C   UNL     1       2.444   8.688  17.839  0.00  0.00    +0.000 A 
BRANCH  12  24
ATOM     19  C   UNL     1       6.256   4.395  18.132  0.00  0.00    +0.000 C 
ATOM     20  C   UNL     1       6.298   4.971  16.703  0.00  0.00    +0.000 C 
ATOM     21  C   UNL     1       6.882   3.905  15.763  0.00  0.00    +0.000 C 
ATOM     22  C   UNL     1       4.865   5.345  16.224  0.00  0.00    +0.000 C 
ATOM     23  N   UNL     1       4.330   6.496  16.959  0.00  0.00    +0.000 N 
ATOM     24  C   UNL     1       3.180   6.316  17.729  0.00  0.00    +0.000 C 
ATOM     25  O   UNL     1       2.633   5.218  17.852  0.00  0.00    +0.000 OA
ATOM     26  C   UNL     1       5.224   7.665  16.923  0.00  0.00    +0.000 C 
ATOM     27  C   UNL     1       6.665   7.310  17.334  0.00  0.00    +0.000 C 
ATOM     28  N   UNL     1       7.210   6.141  16.633  0.00  0.00    +0.000 NA
ATOM     29  H   UNL     1       8.114   5.897  17.039  0.00  0.00    +0.000 HD
ENDBRANCH  12  24
ENDBRANCH   1  15
BRANCH   7  30
ATOM     30  C   UNL     1      -4.846  13.754  20.689  0.00  0.00    +0.000 A 
ATOM     31  C   UNL     1      -6.137  13.196  20.795  0.00  0.00    +0.000 A 
ATOM     32  N   UNL     1      -7.099  14.086  20.540  0.00  0.00    +0.000 NA
ATOM     33  N   UNL     1      -6.421  15.217  20.289  0.00  0.00    +0.000 N 
ATOM     34  C   UNL     1      -5.068  15.079  20.402  0.00  0.00    +0.000 A 
ATOM     35  H   UNL     1      -6.951  16.045  20.031  0.00  0.00    +0.000 HD
ENDBRANCH   7  30
BRANCH   4  36
ATOM     36  C   UNL     1      -2.864  10.081  16.892  0.00  0.00    +0.000 C 
ATOM     37  C   UNL     1      -4.026  10.536  16.047  0.00  0.00    +0.000 C 
ATOM     38  C   UNL     1      -2.625  10.838  15.606  0.00  0.00    +0.000 C 
ENDBRANCH   4  36
TORSDOF 4
ENDMDL
MODEL 6
REMARK VINA RESULT:      -8.2      0.958      1.200
REMARK  Name = 
REMARK  6 active torsions:
REMARK  status: ('A' for Active; 'I' for Inactive)
REMARK    1  A    between atoms: C_1  and  C_2
REMARK    2  A    between atoms: C_2  and  C_3
REMARK    3  A    between atoms: C_6  and  C_8
REMARK    4  A    between atoms: C_11  and  N_12
REMARK    5  A    between atoms: C_15  and  C_16
REMARK    6  A    between atoms: C_21  and  C_22
REMARK                            x       y       z     vdW  Elec       q    Type
REMARK                         _______ _______ _______ _____ _____    ______ ____
ROOT
ATOM      1  N   UNL     1       0.502  10.531  20.217  0.00  0.00    +0.000 N 
ATOM      2  C   UNL     1      -0.726  11.070  19.865  0.00  0.00    +0.000 A 
ATOM      3  N   UNL     1      -1.419  10.557  18.872  0.00  0.00    +0.000 NA
ATOM      4  C   UNL     1      -2.629  11.089  18.490  0.00  0.00    +0.000 A 
ATOM      5  C   UNL     1      -3.188  12.131  19.131  0.00  0.00    +0.000 A 
ATOM      6  N   UNL     1      -2.510  12.703  20.193  0.00  0.00    +0.000 N 
ATOM      7  C   UNL     1      -2.776  13.783  21.001  0.00  0.00    +0.000 A 
ATOM      8  C   UNL     1      -1.656  13.902  21.804  0.00  0.00    +0.000 A 
ATOM      9  N   UNL     1      -0.729  12.919  21.535  0.00  0.00    +0.000 NA
ATOM     10  C   UNL     1      -1.277  12.222  20.562  0.00  0.00    +0.000 A 
ATOM     11  H   UNL     1       1.127  11.136  20.741  0.00  0.00    +0.000 HD
ENDROOT
BRANCH   1  15
ATOM     12  C   UNL     1       2.575   7.195  18.658  0.00  0.00    +0.000 A 
ATOM     13  C   UNL     1       2.135   8.202  17.802  0.00  0.00    +0.000 A 
ATOM     14  C   UNL     1       1.426   9.290  18.310  0.00  0.00    +0.000 A 
ATOM     15  C   UNL     1       1.071   9.367  19.665  0.00  0.00    +0.000 A 
ATOM     16  C   UNL     1       1.391   8.271  20.474  0.00  0.00    +0.000 A 
ATOM     17  F   UNL     1       1.009   8.267  21.761  0.00  0.00    +0.000 F 
ATOM     18  C   UNL     1       2.136   7.195  19.988  0.00  0.00    +0.000 A 
BRANCH  12  24
ATOM     19  C   UNL     1       6.930   5.190  18.878  0.00  0.00    +0.000 C 
ATOM     20  C   UNL     1       6.829   5.358  17.349  0.00  0.00    +0.000 C 
ATOM     21  C   UNL     1       7.673   4.263  16.680  0.00  0.00    +0.000 C 
ATOM     22  C   UNL     1       5.350   5.219  16.883  0.00  0.00    +0.000 C 
ATOM     23  N   UNL     1       4.531   6.352  17.330  0.00  0.00    +0.000 N 
ATOM     24  C   UNL     1       3.462   6.099  18.193  0.00  0.00    +0.000 C 
ATOM     25  O   UNL     1       3.218   4.972  18.628  0.00  0.00    +0.000 OA
ATOM     26  C   UNL     1       5.092   7.655  16.938  0.00  0.00    +0.000 C 
ATOM     27  C   UNL     1       6.573   7.795  17.333  0.00  0.00    +0.000 C 
ATOM     28  N   UNL     1       7.406   6.658  16.923  0.00  0.00    +0.000 NA
ATOM     29  H   UNL     1       8.340   6.766  17.319  0.00  0.00    +0.000 HD
ENDBRANCH  12  24
ENDBRANCH   1  15
BRANCH   7  30
ATOM     30  C   UNL     1      -3.973  14.648  20.986  0.00  0.00    +0.000 A 
ATOM     31  C   UNL     1      -5.330  14.316  21.184  0.00  0.00    +0.000 A 
ATOM     32  N   UNL     1      -6.140  15.364  21.021  0.00  0.00    +0.000 NA
ATOM     33  N   UNL     1      -5.298  16.370  20.737  0.00  0.00    +0.000 N 
ATOM     34  C   UNL     1      -3.984  16.000  20.741  0.00  0.00    +0.000 A 
ATOM     35  H   UNL     1      -5.696  17.284  20.536  0.00  0.00    +0.000 HD
ENDBRANCH   7  30
BRANCH   4  36
ATOM     36  C   UNL     1      -3.251  10.392  17.353  0.00  0.00    +0.000 C 
ATOM     37  C   UNL     1      -4.203  11.109  16.430  0.00  0.00    +0.000 C 
ATOM     38  C   UNL     1      -2.819  10.780  15.958  0.00  0.00    +0.000 C 
ENDBRANCH   4  36
TORSDOF 4
ENDMDL
MODEL 7
REMARK VINA RESULT:      -8.0      3.084     10.426
REMARK  Name = 
REMARK  6 active torsions:
REMARK  status: ('A' for Active; 'I' for Inactive)
REMARK    1  A    between atoms: C_1  and  C_2
REMARK    2  A    between atoms: C_2  and  C_3
REMARK    3  A    between atoms: C_6  and  C_8
REMARK    4  A    between atoms: C_11  and  N_12
REMARK    5  A    between atoms: C_15  and  C_16
REMARK    6  A    between atoms: C_21  and  C_22
REMARK                            x       y       z     vdW  Elec       q    Type
REMARK                         _______ _______ _______ _____ _____    ______ ____
ROOT
ATOM      1  N   UNL     1       1.448  10.591  18.090  0.00  0.00    +0.000 N 
ATOM      2  C   UNL     1       1.676   9.416  18.787  0.00  0.00    +0.000 A 
ATOM      3  N   UNL     1       1.181   9.248  19.994  0.00  0.00    +0.000 NA
ATOM      4  C   UNL     1       1.413   8.099  20.714  0.00  0.00    +0.000 A 
ATOM      5  C   UNL     1       2.120   7.071  20.213  0.00  0.00    +0.000 A 
ATOM      6  N   UNL     1       2.654   7.185  18.941  0.00  0.00    +0.000 N 
ATOM      7  C   UNL     1       3.449   6.359  18.183  0.00  0.00    +0.000 A 
ATOM      8  C   UNL     1       3.728   7.092  17.043  0.00  0.00    +0.000 A 
ATOM      9  N   UNL     1       3.111   8.324  17.067  0.00  0.00    +0.000 NA
ATOM     10  C   UNL     1       2.479   8.342  18.222  0.00  0.00    +0.000 A 
ATOM     11  H   UNL     1       2.096  10.805  17.339  0.00  0.00    +0.000 HD
ENDROOT
BRANCH   1  15
ATOM     12  C   UNL     1      -1.083  13.554  19.726  0.00  0.00    +0.000 A 
ATOM     13  C   UNL     1      -1.618  12.549  18.923  0.00  0.00    +0.000 A 
ATOM     14  C   UNL     1      -0.781  11.587  18.359  0.00  0.00    +0.000 A 
ATOM     15  C   UNL     1       0.611  11.643  18.514  0.00  0.00    +0.000 A 
ATOM     16  C   UNL     1       1.136  12.747  19.196  0.00  0.00    +0.000 A 
ATOM     17  F   UNL     1       2.467  12.881  19.309  0.00  0.00    +0.000 F 
ATOM     18  C   UNL     1       0.308  13.694  19.801  0.00  0.00    +0.000 A 
BRANCH  12  24
ATOM     19  C   UNL     1      -2.181  15.486  23.980  0.00  0.00    +0.000 C 
ATOM     20  C   UNL     1      -3.585  14.989  23.581  0.00  0.00    +0.000 C 
ATOM     21  C   UNL     1      -4.632  15.897  24.244  0.00  0.00    +0.000 C 
ATOM     22  C   UNL     1      -3.764  15.047  22.036  0.00  0.00    +0.000 C 
ATOM     23  N   UNL     1      -2.927  14.054  21.354  0.00  0.00    +0.000 N 
ATOM     24  C   UNL     1      -1.944  14.507  20.472  0.00  0.00    +0.000 C 
ATOM     25  O   UNL     1      -1.725  15.705  20.288  0.00  0.00    +0.000 OA
ATOM     26  C   UNL     1      -3.130  12.688  21.862  0.00  0.00    +0.000 C 
ATOM     27  C   UNL     1      -3.019  12.612  23.395  0.00  0.00    +0.000 C 
ATOM     28  N   UNL     1      -3.825  13.618  24.098  0.00  0.00    +0.000 NA
ATOM     29  H   UNL     1      -3.610  13.585  25.095  0.00  0.00    +0.000 HD
ENDBRANCH  12  24
ENDBRANCH   1  15
BRANCH   7  30
ATOM     30  C   UNL     1       3.932   5.005  18.526  0.00  0.00    +0.000 A 
ATOM     31  C   UNL     1       3.242   3.774  18.526  0.00  0.00    +0.000 A 
ATOM     32  N   UNL     1       3.998   2.768  18.970  0.00  0.00    +0.000 NA
ATOM     33  N   UNL     1       5.176   3.353  19.237  0.00  0.00    +0.000 N 
ATOM     34  C   UNL     1       5.199   4.688  18.952  0.00  0.00    +0.000 A 
ATOM     35  H   UNL     1       5.919   2.779  19.627  0.00  0.00    +0.000 HD
ENDBRANCH   7  30
BRANCH   4  36
ATOM     36  C   UNL     1       0.791   8.098  22.048  0.00  0.00    +0.000 C 
ATOM     37  C   UNL     1       0.546   9.386  22.790  0.00  0.00    +0.000 C 
ATOM     38  C   UNL     1      -0.610   8.651  22.180  0.00  0.00    +0.000 C 
ENDBRANCH   4  36
TORSDOF 4
ENDMDL
MODEL 8
REMARK VINA RESULT:      -8.0      2.051      2.587
REMARK  Name = 
REMARK  6 active torsions:
REMARK  status: ('A' for Active; 'I' for Inactive)
REMARK    1  A    between atoms: C_1  and  C_2
REMARK    2  A    between atoms: C_2  and  C_3
REMARK    3  A    between atoms: C_6  and  C_8
REMARK    4  A    between atoms: C_11  and  N_12
REMARK    5  A    between atoms: C_15  and  C_16
REMARK    6  A    between atoms: C_21  and  C_22
REMARK                            x       y       z     vdW  Elec       q    Type
REMARK                         _______ _______ _______ _____ _____    ______ ____
ROOT
ATOM      1  N   UNL     1       1.009  10.629  20.141  0.00  0.00    +0.000 N 
ATOM      2  C   UNL     1      -0.239  11.165  19.866  0.00  0.00    +0.000 A 
ATOM      3  N   UNL     1      -1.062  10.551  19.044  0.00  0.00    +0.000 NA
ATOM      4  C   UNL     1      -2.297  11.076  18.739  0.00  0.00    +0.000 A 
ATOM      5  C   UNL     1      -2.747  12.217  19.290  0.00  0.00    +0.000 A 
ATOM      6  N   UNL     1      -1.928  12.899  20.174  0.00  0.00    +0.000 N 
ATOM      7  C   UNL     1      -2.066  14.089  20.848  0.00  0.00    +0.000 A 
ATOM      8  C   UNL     1      -0.853  14.270  21.488  0.00  0.00    +0.000 A 
ATOM      9  N   UNL     1       0.009  13.222  21.250  0.00  0.00    +0.000 NA
ATOM     10  C   UNL     1      -0.672  12.423  20.456  0.00  0.00    +0.000 A 
ATOM     11  H   UNL     1       1.709  11.272  20.497  0.00  0.00    +0.000 HD
ENDROOT
BRANCH   1  15
ATOM     12  C   UNL     1       2.027   6.797  18.678  0.00  0.00    +0.000 A 
ATOM     13  C   UNL     1       1.796   6.982  20.039  0.00  0.00    +0.000 A 
ATOM     14  C   UNL     1       1.488   8.251  20.528  0.00  0.00    +0.000 A 
ATOM     15  C   UNL     1       1.477   9.378  19.693  0.00  0.00    +0.000 A 
ATOM     16  C   UNL     1       1.862   9.191  18.360  0.00  0.00    +0.000 A 
ATOM     17  F   UNL     1       1.935  10.251  17.540  0.00  0.00    +0.000 F 
ATOM     18  C   UNL     1       2.132   7.920  17.848  0.00  0.00    +0.000 A 
BRANCH  12  24
ATOM     19  C   UNL     1       2.547   2.097  19.496  0.00  0.00    +0.000 C 
ATOM     20  C   UNL     1       3.798   2.321  18.624  0.00  0.00    +0.000 C 
ATOM     21  C   UNL     1       4.123   1.011  17.890  0.00  0.00    +0.000 C 
ATOM     22  C   UNL     1       3.537   3.442  17.576  0.00  0.00    +0.000 C 
ATOM     23  N   UNL     1       3.416   4.760  18.209  0.00  0.00    +0.000 N 
ATOM     24  C   UNL     1       2.207   5.446  18.087  0.00  0.00    +0.000 C 
ATOM     25  O   UNL     1       1.229   4.963  17.513  0.00  0.00    +0.000 OA
ATOM     26  C   UNL     1       4.565   5.090  19.068  0.00  0.00    +0.000 C 
ATOM     27  C   UNL     1       4.883   3.970  20.075  0.00  0.00    +0.000 C 
ATOM     28  N   UNL     1       4.978   2.637  19.468  0.00  0.00    +0.000 NA
ATOM     29  H   UNL     1       5.072   1.938  20.205  0.00  0.00    +0.000 HD
ENDBRANCH  12  24
ENDBRANCH   1  15
BRANCH   7  30
ATOM     30  C   UNL     1      -3.235  14.993  20.855  0.00  0.00    +0.000 A 
ATOM     31  C   UNL     1      -4.592  14.713  21.122  0.00  0.00    +0.000 A 
ATOM     32  N   UNL     1      -5.374  15.782  20.959  0.00  0.00    +0.000 NA
ATOM     33  N   UNL     1      -4.514  16.749  20.607  0.00  0.00    +0.000 N 
ATOM     34  C   UNL     1      -3.213  16.336  20.567  0.00  0.00    +0.000 A 
ATOM     35  H   UNL     1      -4.890  17.670  20.393  0.00  0.00    +0.000 HD
ENDBRANCH   7  30
BRANCH   4  36
ATOM     36  C   UNL     1      -3.072  10.257  17.792  0.00  0.00    +0.000 C 
ATOM     37  C   UNL     1      -3.978  10.899  16.773  0.00  0.00    +0.000 C 
ATOM     38  C   UNL     1      -2.679  10.292  16.334  0.00  0.00    +0.000 C 
ENDBRANCH   4  36
TORSDOF 4
ENDMDL
MODEL 9
REMARK VINA RESULT:      -8.0      2.833      4.217
REMARK  Name = 
REMARK  6 active torsions:
REMARK  status: ('A' for Active; 'I' for Inactive)
REMARK    1  A    between atoms: C_1  and  C_2
REMARK    2  A    between atoms: C_2  and  C_3
REMARK    3  A    between atoms: C_6  and  C_8
REMARK    4  A    between atoms: C_11  and  N_12
REMARK    5  A    between atoms: C_15  and  C_16
REMARK    6  A    between atoms: C_21  and  C_22
REMARK                            x       y       z     vdW  Elec       q    Type
REMARK                         _______ _______ _______ _____ _____    ______ ____
ROOT
ATOM      1  N   UNL     1      -0.394  10.527  20.340  0.00  0.00    +0.000 N 
ATOM      2  C   UNL     1      -0.166  11.884  20.505  0.00  0.00    +0.000 A 
ATOM      3  N   UNL     1       1.062  12.350  20.578  0.00  0.00    +0.000 NA
ATOM      4  C   UNL     1       1.313  13.690  20.763  0.00  0.00    +0.000 A 
ATOM      5  C   UNL     1       0.326  14.599  20.839  0.00  0.00    +0.000 A 
ATOM      6  N   UNL     1      -0.987  14.168  20.754  0.00  0.00    +0.000 N 
ATOM      7  C   UNL     1      -2.194  14.820  20.847  0.00  0.00    +0.000 A 
ATOM      8  C   UNL     1      -3.140  13.813  20.785  0.00  0.00    +0.000 A 
ATOM      9  N   UNL     1      -2.557  12.575  20.631  0.00  0.00    +0.000 NA
ATOM     10  C   UNL     1      -1.265  12.830  20.620  0.00  0.00    +0.000 A 
ATOM     11  H   UNL     1      -1.310  10.186  20.615  0.00  0.00    +0.000 HD
ENDROOT
BRANCH   1  15
ATOM     12  C   UNL     1       2.288   7.350  19.582  0.00  0.00    +0.000 A 
ATOM     13  C   UNL     1       1.849   7.594  20.882  0.00  0.00    +0.000 A 
ATOM     14  C   UNL     1       0.987   8.659  21.139  0.00  0.00    +0.000 A 
ATOM     15  C   UNL     1       0.600   9.551  20.128  0.00  0.00    +0.000 A 
ATOM     16  C   UNL     1       1.175   9.376  18.864  0.00  0.00    +0.000 A 
ATOM     17  F   UNL     1       0.891  10.247  17.883  0.00  0.00    +0.000 F 
ATOM     18  C   UNL     1       2.007   8.290  18.583  0.00  0.00    +0.000 A 
BRANCH  12  24
ATOM     19  C   UNL     1       2.370   3.125  17.307  0.00  0.00    +0.000 C 
ATOM     20  C   UNL     1       2.807   2.644  18.706  0.00  0.00    +0.000 C 
ATOM     21  C   UNL     1       3.686   1.395  18.541  0.00  0.00    +0.000 C 
ATOM     22  C   UNL     1       3.625   3.753  19.431  0.00  0.00    +0.000 C 
ATOM     23  N   UNL     1       2.785   4.898  19.795  0.00  0.00    +0.000 N 
ATOM     24  C   UNL     1       3.080   6.143  19.233  0.00  0.00    +0.000 C 
ATOM     25  O   UNL     1       3.983   6.298  18.410  0.00  0.00    +0.000 OA
ATOM     26  C   UNL     1       1.599   4.514  20.577  0.00  0.00    +0.000 C 
ATOM     27  C   UNL     1       0.804   3.376  19.913  0.00  0.00    +0.000 C 
ATOM     28  N   UNL     1       1.630   2.231  19.512  0.00  0.00    +0.000 NA
ATOM     29  H   UNL     1       1.060   1.576  18.977  0.00  0.00    +0.000 HD
ENDBRANCH  12  24
ENDBRANCH   1  15
BRANCH   7  30
ATOM     30  C   UNL     1      -2.426  16.270  21.016  0.00  0.00    +0.000 A 
ATOM     31  C   UNL     1      -2.583  17.278  20.043  0.00  0.00    +0.000 A 
ATOM     32  N   UNL     1      -2.704  18.493  20.583  0.00  0.00    +0.000 NA
ATOM     33  N   UNL     1      -2.643  18.257  21.903  0.00  0.00    +0.000 N 
ATOM     34  C   UNL     1      -2.514  16.934  22.216  0.00  0.00    +0.000 A 
ATOM     35  H   UNL     1      -2.681  19.053  22.534  0.00  0.00    +0.000 HD
ENDBRANCH   7  30
BRANCH   4  36
ATOM     36  C   UNL     1       2.745  14.021  20.834  0.00  0.00    +0.000 C 
ATOM     37  C   UNL     1       3.232  15.421  20.561  0.00  0.00    +0.000 C 
ATOM     38  C   UNL     1       3.217  14.902  21.968  0.00  0.00    +0.000 C 
ENDBRANCH   4  36
TORSDOF 4
ENDMDL
