MODEL 1
REMARK VINA RESULT:      -6.2      0.000      0.000
REMARK  Name = 
REMARK  21 active torsions:
REMARK  status: ('A' for Active; 'I' for Inactive)
REMARK    1  A    between atoms: C_1  and  C_2
REMARK    2  A    between atoms: C_2  and  C_3
REMARK    3  A    between atoms: C_3  and  C_4
REMARK    4  A    between atoms: C_4  and  C_5
REMARK    5  A    between atoms: C_5  and  C_6
REMARK    6  A    between atoms: C_6  and  C_7
REMARK    7  A    between atoms: C_7  and  C_8
REMARK    8  A    between atoms: C_8  and  C_9
REMARK    9  A    between atoms: C_10  and  C_11
REMARK   10  A    between atoms: C_11  and  C_12
REMARK   11  A    between atoms: C_12  and  C_13
REMARK   12  A    between atoms: C_13  and  C_14
REMARK   13  A    between atoms: C_14  and  C_15
REMARK   14  A    between atoms: C_15  and  C_16
REMARK   15  A    between atoms: C_16  and  C_17
REMARK   16  A    between atoms: C_17  and  C_18
REMARK   17  A    between atoms: C_18  and  O_20
REMARK   18  A    between atoms: O_20  and  C_21
REMARK   19  A    between atoms: C_21  and  C_22
REMARK   20  A    between atoms: C_24  and  C_25
REMARK   21  A    between atoms: C_25  and  O_27
REMARK                            x       y       z     vdW  Elec       q    Type
REMARK                         _______ _______ _______ _____ _____    ______ ____
ROOT
ATOM      1  C   UNL     1       4.821   5.092  18.579  0.00  0.00    +0.000 C 
ENDROOT
BRANCH   1   2
ATOM      2  C   UNL     1       6.155   5.610  19.113  0.00  0.00    +0.000 C 
BRANCH   2   3
ATOM      3  C   UNL     1       7.288   5.141  18.231  0.00  0.00    +0.000 C 
ATOM      4  O   UNL     1       8.306   4.608  18.653  0.00  0.00    +0.000 OA
BRANCH   3   5
ATOM      5  O   UNL     1       7.054   5.475  16.931  0.00  0.00    +0.000 OA
BRANCH   5   6
ATOM      6  C   UNL     1       7.047   4.386  15.991  0.00  0.00    +0.000 C 
BRANCH   6   7
ATOM      7  C   UNL     1       6.458   4.757  14.628  0.00  0.00    +0.000 C 
ATOM      8  C   UNL     1       5.951   3.530  13.902  0.00  0.00    +0.000 C 
ATOM      9  C   UNL     1       6.192   3.834  12.432  0.00  0.00    +0.000 C 
ATOM     10  C   UNL     1       7.267   4.883  12.490  0.00  0.00    +0.000 C 
ATOM     11  O   UNL     1       7.867   5.383  11.553  0.00  0.00    +0.000 OA
ATOM     12  O   UNL     1       7.465   5.300  13.773  0.00  0.00    +0.000 OA
BRANCH   9  13
ATOM     13  C   UNL     1       6.539   2.575  11.686  0.00  0.00    +0.000 C 
ATOM     14  O   UNL     1       7.636   2.374  11.183  0.00  0.00    +0.000 OA
BRANCH  13  15
ATOM     15  O   UNL     1       5.574   1.643  11.661  0.00  0.00    +0.000 OA
ATOM     16  H   UNL     1       5.889   0.783  11.323  0.00  0.00    +0.000 HD
ENDBRANCH  13  15
ENDBRANCH   9  13
ENDBRANCH   6   7
ENDBRANCH   5   6
ENDBRANCH   3   5
ENDBRANCH   2   3
ENDBRANCH   1   2
BRANCH   1  17
ATOM     17  C   UNL     1       4.665   3.589  18.776  0.00  0.00    +0.000 C 
BRANCH  17  18
ATOM     18  C   UNL     1       3.967   2.994  17.565  0.00  0.00    +0.000 C 
BRANCH  18  19
ATOM     19  C   UNL     1       2.743   2.177  17.964  0.00  0.00    +0.000 C 
BRANCH  19  20
ATOM     20  C   UNL     1       1.511   3.070  18.102  0.00  0.00    +0.000 C 
BRANCH  20  21
ATOM     21  C   UNL     1       0.713   2.789  19.376  0.00  0.00    +0.000 C 
BRANCH  21  23
ATOM     22  C   UNL     1       1.889   4.113  21.149  0.00  0.00    +0.000 C 
ATOM     23  C   UNL     1       1.562   2.934  20.611  0.00  0.00    +0.000 C 
BRANCH  22  24
ATOM     24  C   UNL     1       1.390   5.395  20.568  0.00  0.00    +0.000 C 
BRANCH  24  25
ATOM     25  C   UNL     1       2.514   6.361  20.271  0.00  0.00    +0.000 C 
BRANCH  25  26
ATOM     26  C   UNL     1       1.926   7.642  19.699  0.00  0.00    +0.000 C 
BRANCH  26  27
ATOM     27  C   UNL     1       2.449   7.861  18.293  0.00  0.00    +0.000 C 
BRANCH  27  28
ATOM     28  C   UNL     1       1.907   9.162  17.722  0.00  0.00    +0.000 C 
BRANCH  28  29
ATOM     29  C   UNL     1       1.033   9.858  18.757  0.00  0.00    +0.000 C 
BRANCH  29  31
ATOM     30  C   UNL     1       1.147  11.902  20.192  0.00  0.00    +0.000 C 
ATOM     31  C   UNL     1       1.319  11.354  18.788  0.00  0.00    +0.000 C 
ENDBRANCH  29  31
ENDBRANCH  28  29
ENDBRANCH  27  28
ENDBRANCH  26  27
ENDBRANCH  25  26
ENDBRANCH  24  25
ENDBRANCH  22  24
ENDBRANCH  21  23
ENDBRANCH  20  21
ENDBRANCH  19  20
ENDBRANCH  18  19
ENDBRANCH  17  18
ENDBRANCH   1  17
TORSDOF 20
ENDMDL
MODEL 2
REMARK VINA RESULT:      -6.1      4.975      8.756
REMARK  Name = 
REMARK  21 active torsions:
REMARK  status: ('A' for Active; 'I' for Inactive)
REMARK    1  A    between atoms: C_1  and  C_2
REMARK    2  A    between atoms: C_2  and  C_3
REMARK    3  A    between atoms: C_3  and  C_4
REMARK    4  A    between atoms: C_4  and  C_5
REMARK    5  A    between atoms: C_5  and  C_6
REMARK    6  A    between atoms: C_6  and  C_7
REMARK    7  A    between atoms: C_7  and  C_8
REMARK    8  A    between atoms: C_8  and  C_9
REMARK    9  A    between atoms: C_10  and  C_11
REMARK   10  A    between atoms: C_11  and  C_12
REMARK   11  A    between atoms: C_12  and  C_13
REMARK   12  A    between atoms: C_13  and  C_14
REMARK   13  A    between atoms: C_14  and  C_15
REMARK   14  A    between atoms: C_15  and  C_16
REMARK   15  A    between atoms: C_16  and  C_17
REMARK   16  A    between atoms: C_17  and  C_18
REMARK   17  A    between atoms: C_18  and  O_20
REMARK   18  A    between atoms: O_20  and  C_21
REMARK   19  A    between atoms: C_21  and  C_22
REMARK   20  A    between atoms: C_24  and  C_25
REMARK   21  A    between atoms: C_25  and  O_27
REMARK                            x       y       z     vdW  Elec       q    Type
REMARK                         _______ _______ _______ _____ _____    ______ ____
ROOT
ATOM      1  C   UNL     1       2.591   6.923  19.472  0.00  0.00    +0.000 C 
ENDROOT
BRANCH   1   2
ATOM      2  C   UNL     1       2.103   7.512  18.150  0.00  0.00    +0.000 C 
BRANCH   2   3
ATOM      3  C   UNL     1       1.942   9.009  18.273  0.00  0.00    +0.000 C 
ATOM      4  O   UNL     1       2.306   9.808  17.420  0.00  0.00    +0.000 OA
BRANCH   3   5
ATOM      5  O   UNL     1       1.424   9.337  19.489  0.00  0.00    +0.000 OA
BRANCH   5   6
ATOM      6  C   UNL     1      -0.003   9.520  19.539  0.00  0.00    +0.000 C 
BRANCH   6   7
ATOM      7  C   UNL     1      -0.534  10.488  18.479  0.00  0.00    +0.000 C 
ATOM      8  C   UNL     1      -1.686  11.307  19.018  0.00  0.00    +0.000 C 
ATOM      9  C   UNL     1      -2.585  11.534  17.813  0.00  0.00    +0.000 C 
ATOM     10  C   UNL     1      -2.185  10.413  16.895  0.00  0.00    +0.000 C 
ATOM     11  O   UNL     1      -2.693  10.112  15.828  0.00  0.00    +0.000 OA
ATOM     12  O   UNL     1      -1.078   9.773  17.370  0.00  0.00    +0.000 OA
BRANCH   9  13
ATOM     13  C   UNL     1      -4.029  11.559  18.234  0.00  0.00    +0.000 C 
ATOM     14  O   UNL     1      -4.829  10.682  17.936  0.00  0.00    +0.000 OA
BRANCH  13  15
ATOM     15  O   UNL     1      -4.376  12.588  19.021  0.00  0.00    +0.000 OA
ATOM     16  H   UNL     1      -5.205  13.019  18.736  0.00  0.00    +0.000 HD
ENDBRANCH  13  15
ENDBRANCH   9  13
ENDBRANCH   6   7
ENDBRANCH   5   6
ENDBRANCH   3   5
ENDBRANCH   2   3
ENDBRANCH   1   2
BRANCH   1  17
ATOM     17  C   UNL     1       1.842   5.651  19.847  0.00  0.00    +0.000 C 
BRANCH  17  18
ATOM     18  C   UNL     1       2.518   5.007  21.046  0.00  0.00    +0.000 C 
BRANCH  18  19
ATOM     19  C   UNL     1       2.302   3.497  21.072  0.00  0.00    +0.000 C 
BRANCH  19  20
ATOM     20  C   UNL     1       0.888   3.141  20.618  0.00  0.00    +0.000 C 
BRANCH  20  21
ATOM     21  C   UNL     1       0.828   2.694  19.156  0.00  0.00    +0.000 C 
BRANCH  21  23
ATOM     22  C   UNL     1       2.914   2.143  17.882  0.00  0.00    +0.000 C 
ATOM     23  C   UNL     1       1.993   1.812  18.792  0.00  0.00    +0.000 C 
BRANCH  22  24
ATOM     24  C   UNL     1       2.869   3.458  17.176  0.00  0.00    +0.000 C 
BRANCH  24  25
ATOM     25  C   UNL     1       4.208   4.159  17.194  0.00  0.00    +0.000 C 
BRANCH  25  26
ATOM     26  C   UNL     1       4.656   4.405  15.761  0.00  0.00    +0.000 C 
BRANCH  26  27
ATOM     27  C   UNL     1       6.048   3.840  15.557  0.00  0.00    +0.000 C 
BRANCH  27  28
ATOM     28  C   UNL     1       7.099   4.849  15.991  0.00  0.00    +0.000 C 
BRANCH  28  29
ATOM     29  C   UNL     1       7.576   4.528  17.402  0.00  0.00    +0.000 C 
BRANCH  29  31
ATOM     30  C   UNL     1       6.650   5.587  19.468  0.00  0.00    +0.000 C 
ATOM     31  C   UNL     1       7.565   5.777  18.274  0.00  0.00    +0.000 C 
ENDBRANCH  29  31
ENDBRANCH  28  29
ENDBRANCH  27  28
ENDBRANCH  26  27
ENDBRANCH  25  26
ENDBRANCH  24  25
ENDBRANCH  22  24
ENDBRANCH  21  23
ENDBRANCH  20  21
ENDBRANCH  19  20
ENDBRANCH  18  19
ENDBRANCH  17  18
ENDBRANCH   1  17
TORSDOF 20
ENDMDL
MODEL 3
REMARK VINA RESULT:      -6.1      3.544      6.597
REMARK  Name = 
REMARK  21 active torsions:
REMARK  status: ('A' for Active; 'I' for Inactive)
REMARK    1  A    between atoms: C_1  and  C_2
REMARK    2  A    between atoms: C_2  and  C_3
REMARK    3  A    between atoms: C_3  and  C_4
REMARK    4  A    between atoms: C_4  and  C_5
REMARK    5  A    between atoms: C_5  and  C_6
REMARK    6  A    between atoms: C_6  and  C_7
REMARK    7  A    between atoms: C_7  and  C_8
REMARK    8  A    between atoms: C_8  and  C_9
REMARK    9  A    between atoms: C_10  and  C_11
REMARK   10  A    between atoms: C_11  and  C_12
REMARK   11  A    between atoms: C_12  and  C_13
REMARK   12  A    between atoms: C_13  and  C_14
REMARK   13  A    between atoms: C_14  and  C_15
REMARK   14  A    between atoms: C_15  and  C_16
REMARK   15  A    between atoms: C_16  and  C_17
REMARK   16  A    between atoms: C_17  and  C_18
REMARK   17  A    between atoms: C_18  and  O_20
REMARK   18  A    between atoms: O_20  and  C_21
REMARK   19  A    between atoms: C_21  and  C_22
REMARK   20  A    between atoms: C_24  and  C_25
REMARK   21  A    between atoms: C_25  and  O_27
REMARK                            x       y       z     vdW  Elec       q    Type
REMARK                         _______ _______ _______ _____ _____    ______ ____
ROOT
ATOM      1  C   UNL     1       2.245   7.806  18.843  0.00  0.00    +0.000 C 
ENDROOT
BRANCH   1   2
ATOM      2  C   UNL     1       2.380   6.370  18.342  0.00  0.00    +0.000 C 
BRANCH   2   3
ATOM      3  C   UNL     1       2.365   5.407  19.505  0.00  0.00    +0.000 C 
ATOM      4  O   UNL     1       1.882   5.667  20.600  0.00  0.00    +0.000 OA
BRANCH   3   5
ATOM      5  O   UNL     1       3.036   4.265  19.190  0.00  0.00    +0.000 OA
BRANCH   5   6
ATOM      6  C   UNL     1       3.743   4.273  17.937  0.00  0.00    +0.000 C 
BRANCH   6   7
ATOM      7  C   UNL     1       5.258   4.109  18.087  0.00  0.00    +0.000 C 
ATOM      8  C   UNL     1       5.878   5.336  18.717  0.00  0.00    +0.000 C 
ATOM      9  C   UNL     1       7.255   5.433  18.080  0.00  0.00    +0.000 C 
ATOM     10  C   UNL     1       7.082   4.646  16.811  0.00  0.00    +0.000 C 
ATOM     11  O   UNL     1       7.888   4.509  15.907  0.00  0.00    +0.000 OA
ATOM     12  O   UNL     1       5.882   3.997  16.808  0.00  0.00    +0.000 OA
BRANCH   9  13
ATOM     13  C   UNL     1       7.655   6.873  17.913  0.00  0.00    +0.000 C 
ATOM     14  O   UNL     1       7.236   7.585  17.011  0.00  0.00    +0.000 OA
BRANCH  13  15
ATOM     15  O   UNL     1       8.466   7.354  18.868  0.00  0.00    +0.000 OA
ATOM     16  H   UNL     1       9.409   7.167  18.691  0.00  0.00    +0.000 HD
ENDBRANCH  13  15
ENDBRANCH   9  13
ENDBRANCH   6   7
ENDBRANCH   5   6
ENDBRANCH   3   5
ENDBRANCH   2   3
ENDBRANCH   1   2
BRANCH   1  17
ATOM     17  C   UNL     1       1.537   8.705  17.838  0.00  0.00    +0.000 C 
BRANCH  17  18
ATOM     18  C   UNL     1       1.720  10.157  18.246  0.00  0.00    +0.000 C 
BRANCH  18  19
ATOM     19  C   UNL     1       0.420  10.767  18.761  0.00  0.00    +0.000 C 
BRANCH  19  20
ATOM     20  C   UNL     1      -0.131   9.963  19.937  0.00  0.00    +0.000 C 
BRANCH  20  21
ATOM     21  C   UNL     1       0.675  10.161  21.222  0.00  0.00    +0.000 C 
BRANCH  21  23
ATOM     22  C   UNL     1      -0.894  10.246  23.174  0.00  0.00    +0.000 C 
ATOM     23  C   UNL     1      -0.024   9.570  22.417  0.00  0.00    +0.000 C 
BRANCH  22  24
ATOM     24  C   UNL     1      -1.270  11.655  22.853  0.00  0.00    +0.000 C 
BRANCH  24  25
ATOM     25  C   UNL     1      -2.653  12.002  23.352  0.00  0.00    +0.000 C 
BRANCH  25  26
ATOM     26  C   UNL     1      -3.346  12.878  22.319  0.00  0.00    +0.000 C 
BRANCH  26  27
ATOM     27  C   UNL     1      -2.545  12.879  21.031  0.00  0.00    +0.000 C 
BRANCH  27  28
ATOM     28  C   UNL     1      -3.397  12.380  19.875  0.00  0.00    +0.000 C 
BRANCH  28  29
ATOM     29  C   UNL     1      -4.749  13.080  19.887  0.00  0.00    +0.000 C 
BRANCH  29  31
ATOM     30  C   UNL     1      -6.690  11.837  20.854  0.00  0.00    +0.000 C 
ATOM     31  C   UNL     1      -5.873  12.093  19.602  0.00  0.00    +0.000 C 
ENDBRANCH  29  31
ENDBRANCH  28  29
ENDBRANCH  27  28
ENDBRANCH  26  27
ENDBRANCH  25  26
ENDBRANCH  24  25
ENDBRANCH  22  24
ENDBRANCH  21  23
ENDBRANCH  20  21
ENDBRANCH  19  20
ENDBRANCH  18  19
ENDBRANCH  17  18
ENDBRANCH   1  17
TORSDOF 20
ENDMDL
MODEL 4
REMARK VINA RESULT:      -6.1      5.754      8.727
REMARK  Name = 
REMARK  21 active torsions:
REMARK  status: ('A' for Active; 'I' for Inactive)
REMARK    1  A    between atoms: C_1  and  C_2
REMARK    2  A    between atoms: C_2  and  C_3
REMARK    3  A    between atoms: C_3  and  C_4
REMARK    4  A    between atoms: C_4  and  C_5
REMARK    5  A    between atoms: C_5  and  C_6
REMARK    6  A    between atoms: C_6  and  C_7
REMARK    7  A    between atoms: C_7  and  C_8
REMARK    8  A    between atoms: C_8  and  C_9
REMARK    9  A    between atoms: C_10  and  C_11
REMARK   10  A    between atoms: C_11  and  C_12
REMARK   11  A    between atoms: C_12  and  C_13
REMARK   12  A    between atoms: C_13  and  C_14
REMARK   13  A    between atoms: C_14  and  C_15
REMARK   14  A    between atoms: C_15  and  C_16
REMARK   15  A    between atoms: C_16  and  C_17
REMARK   16  A    between atoms: C_17  and  C_18
REMARK   17  A    between atoms: C_18  and  O_20
REMARK   18  A    between atoms: O_20  and  C_21
REMARK   19  A    between atoms: C_21  and  C_22
REMARK   20  A    between atoms: C_24  and  C_25
REMARK   21  A    between atoms: C_25  and  O_27
REMARK                            x       y       z     vdW  Elec       q    Type
REMARK                         _______ _______ _______ _____ _____    ______ ____
ROOT
ATOM      1  C   UNL     1       7.724   7.141  18.118  0.00  0.00    +0.000 C 
ENDROOT
BRANCH   1   2
ATOM      2  C   UNL     1       6.404   6.505  17.688  0.00  0.00    +0.000 C 
BRANCH   2   3
ATOM      3  C   UNL     1       6.656   5.153  17.064  0.00  0.00    +0.000 C 
ATOM      4  O   UNL     1       7.761   4.630  16.988  0.00  0.00    +0.000 OA
BRANCH   3   5
ATOM      5  O   UNL     1       5.509   4.652  16.527  0.00  0.00    +0.000 OA
BRANCH   5   6
ATOM      6  C   UNL     1       4.327   4.769  17.340  0.00  0.00    +0.000 C 
BRANCH   6   7
ATOM      7  C   UNL     1       3.928   3.463  18.032  0.00  0.00    +0.000 C 
ATOM      8  C   UNL     1       2.676   3.647  18.860  0.00  0.00    +0.000 C 
ATOM      9  C   UNL     1       2.860   2.703  20.037  0.00  0.00    +0.000 C 
ATOM     10  C   UNL     1       4.350   2.513  20.072  0.00  0.00    +0.000 C 
ATOM     11  O   UNL     1       5.001   1.906  20.905  0.00  0.00    +0.000 OA
ATOM     12  O   UNL     1       4.930   3.059  18.965  0.00  0.00    +0.000 OA
BRANCH   9  13
ATOM     13  C   UNL     1       2.240   3.286  21.278  0.00  0.00    +0.000 C 
ATOM     14  O   UNL     1       1.670   2.610  22.124  0.00  0.00    +0.000 OA
BRANCH  13  15
ATOM     15  O   UNL     1       2.409   4.608  21.433  0.00  0.00    +0.000 OA
ATOM     16  H   UNL     1       3.315   4.842  21.710  0.00  0.00    +0.000 HD
ENDBRANCH  13  15
ENDBRANCH   9  13
ENDBRANCH   6   7
ENDBRANCH   5   6
ENDBRANCH   3   5
ENDBRANCH   2   3
ENDBRANCH   1   2
BRANCH   1  17
ATOM     17  C   UNL     1       8.116   8.315  17.230  0.00  0.00    +0.000 C 
BRANCH  17  18
ATOM     18  C   UNL     1       8.042   9.601  18.035  0.00  0.00    +0.000 C 
BRANCH  18  19
ATOM     19  C   UNL     1       9.133   9.664  19.099  0.00  0.00    +0.000 C 
BRANCH  19  20
ATOM     20  C   UNL     1      10.179  10.720  18.746  0.00  0.00    +0.000 C 
BRANCH  20  21
ATOM     21  C   UNL     1      10.600  11.564  19.950  0.00  0.00    +0.000 C 
BRANCH  21  23
ATOM     22  C   UNL     1       9.268  12.736  21.720  0.00  0.00    +0.000 C 
ATOM     23  C   UNL     1       9.510  11.645  20.985  0.00  0.00    +0.000 C 
BRANCH  22  24
ATOM     24  C   UNL     1      10.058  13.988  21.531  0.00  0.00    +0.000 C 
BRANCH  24  25
ATOM     25  C   UNL     1       9.178  15.170  21.195  0.00  0.00    +0.000 C 
BRANCH  25  26
ATOM     26  C   UNL     1       9.843  15.984  20.096  0.00  0.00    +0.000 C 
BRANCH  26  27
ATOM     27  C   UNL     1      10.311  15.061  18.988  0.00  0.00    +0.000 C 
BRANCH  27  28
ATOM     28  C   UNL     1       9.266  14.984  17.886  0.00  0.00    +0.000 C 
BRANCH  28  29
ATOM     29  C   UNL     1       8.337  13.803  18.133  0.00  0.00    +0.000 C 
BRANCH  29  31
ATOM     30  C   UNL     1       6.199  15.038  18.521  0.00  0.00    +0.000 C 
ATOM     31  C   UNL     1       6.941  14.091  17.597  0.00  0.00    +0.000 C 
ENDBRANCH  29  31
ENDBRANCH  28  29
ENDBRANCH  27  28
ENDBRANCH  26  27
ENDBRANCH  25  26
ENDBRANCH  24  25
ENDBRANCH  22  24
ENDBRANCH  21  23
ENDBRANCH  20  21
ENDBRANCH  19  20
ENDBRANCH  18  19
ENDBRANCH  17  18
ENDBRANCH   1  17
TORSDOF 20
ENDMDL
MODEL 5
REMARK VINA RESULT:      -6.1      1.411      2.464
REMARK  Name = 
REMARK  21 active torsions:
REMARK  status: ('A' for Active; 'I' for Inactive)
REMARK    1  A    between atoms: C_1  and  C_2
REMARK    2  A    between atoms: C_2  and  C_3
REMARK    3  A    between atoms: C_3  and  C_4
REMARK    4  A    between atoms: C_4  and  C_5
REMARK    5  A    between atoms: C_5  and  C_6
REMARK    6  A    between atoms: C_6  and  C_7
REMARK    7  A    between atoms: C_7  and  C_8
REMARK    8  A    between atoms: C_8  and  C_9
REMARK    9  A    between atoms: C_10  and  C_11
REMARK   10  A    between atoms: C_11  and  C_12
REMARK   11  A    between atoms: C_12  and  C_13
REMARK   12  A    between atoms: C_13  and  C_14
REMARK   13  A    between atoms: C_14  and  C_15
REMARK   14  A    between atoms: C_15  and  C_16
REMARK   15  A    between atoms: C_16  and  C_17
REMARK   16  A    between atoms: C_17  and  C_18
REMARK   17  A    between atoms: C_18  and  O_20
REMARK   18  A    between atoms: O_20  and  C_21
REMARK   19  A    between atoms: C_21  and  C_22
REMARK   20  A    between atoms: C_24  and  C_25
REMARK   21  A    between atoms: C_25  and  O_27
REMARK                            x       y       z     vdW  Elec       q    Type
REMARK                         _______ _______ _______ _____ _____    ______ ____
ROOT
ATOM      1  C   UNL     1       3.513   2.595  17.327  0.00  0.00    +0.000 C 
ENDROOT
BRANCH   1   2
ATOM      2  C   UNL     1       3.684   3.959  17.992  0.00  0.00    +0.000 C 
BRANCH   2   3
ATOM      3  C   UNL     1       5.001   4.020  18.729  0.00  0.00    +0.000 C 
ATOM      4  O   UNL     1       5.264   3.343  19.715  0.00  0.00    +0.000 OA
BRANCH   3   5
ATOM      5  O   UNL     1       5.802   4.985  18.198  0.00  0.00    +0.000 OA
BRANCH   5   6
ATOM      6  C   UNL     1       6.678   4.565  17.136  0.00  0.00    +0.000 C 
BRANCH   6   7
ATOM      7  C   UNL     1       6.422   5.286  15.810  0.00  0.00    +0.000 C 
ATOM      8  C   UNL     1       5.493   4.485  14.924  0.00  0.00    +0.000 C 
ATOM      9  C   UNL     1       5.963   4.791  13.511  0.00  0.00    +0.000 C 
ATOM     10  C   UNL     1       7.378   5.246  13.730  0.00  0.00    +0.000 C 
ATOM     11  O   UNL     1       8.210   5.517  12.881  0.00  0.00    +0.000 OA
ATOM     12  O   UNL     1       7.631   5.409  15.061  0.00  0.00    +0.000 OA
BRANCH   9  13
ATOM     13  C   UNL     1       5.787   3.585  12.629  0.00  0.00    +0.000 C 
ATOM     14  O   UNL     1       6.630   2.706  12.520  0.00  0.00    +0.000 OA
BRANCH  13  15
ATOM     15  O   UNL     1       4.601   3.502  12.006  0.00  0.00    +0.000 OA
ATOM     16  H   UNL     1       3.881   3.933  12.508  0.00  0.00    +0.000 HD
ENDBRANCH  13  15
ENDBRANCH   9  13
ENDBRANCH   6   7
ENDBRANCH   5   6
ENDBRANCH   3   5
ENDBRANCH   2   3
ENDBRANCH   1   2
BRANCH   1  17
ATOM     17  C   UNL     1       2.239   1.889  17.776  0.00  0.00    +0.000 C 
BRANCH  17  18
ATOM     18  C   UNL     1       1.487   2.782  18.747  0.00  0.00    +0.000 C 
BRANCH  18  19
ATOM     19  C   UNL     1       1.891   2.511  20.192  0.00  0.00    +0.000 C 
BRANCH  19  20
ATOM     20  C   UNL     1       1.503   3.680  21.096  0.00  0.00    +0.000 C 
BRANCH  20  21
ATOM     21  C   UNL     1       1.043   4.910  20.312  0.00  0.00    +0.000 C 
BRANCH  21  23
ATOM     22  C   UNL     1       2.350   6.981  19.781  0.00  0.00    +0.000 C 
ATOM     23  C   UNL     1       1.834   6.136  20.681  0.00  0.00    +0.000 C 
BRANCH  22  24
ATOM     24  C   UNL     1       2.135   6.780  18.318  0.00  0.00    +0.000 C 
BRANCH  24  25
ATOM     25  C   UNL     1       2.331   8.057  17.533  0.00  0.00    +0.000 C 
BRANCH  25  26
ATOM     26  C   UNL     1       1.838   9.229  18.368  0.00  0.00    +0.000 C 
BRANCH  26  27
ATOM     27  C   UNL     1       0.385   9.513  18.042  0.00  0.00    +0.000 C 
BRANCH  27  28
ATOM     28  C   UNL     1      -0.343  10.034  19.271  0.00  0.00    +0.000 C 
BRANCH  28  29
ATOM     29  C   UNL     1       0.592  10.910  20.096  0.00  0.00    +0.000 C 
BRANCH  29  31
ATOM     30  C   UNL     1      -0.397  10.002  22.205  0.00  0.00    +0.000 C 
ATOM     31  C   UNL     1       0.888  10.265  21.444  0.00  0.00    +0.000 C 
ENDBRANCH  29  31
ENDBRANCH  28  29
ENDBRANCH  27  28
ENDBRANCH  26  27
ENDBRANCH  25  26
ENDBRANCH  24  25
ENDBRANCH  22  24
ENDBRANCH  21  23
ENDBRANCH  20  21
ENDBRANCH  19  20
ENDBRANCH  18  19
ENDBRANCH  17  18
ENDBRANCH   1  17
TORSDOF 20
ENDMDL
MODEL 6
REMARK VINA RESULT:      -6.0      5.212      9.757
REMARK  Name = 
REMARK  21 active torsions:
REMARK  status: ('A' for Active; 'I' for Inactive)
REMARK    1  A    between atoms: C_1  and  C_2
REMARK    2  A    between atoms: C_2  and  C_3
REMARK    3  A    between atoms: C_3  and  C_4
REMARK    4  A    between atoms: C_4  and  C_5
REMARK    5  A    between atoms: C_5  and  C_6
REMARK    6  A    between atoms: C_6  and  C_7
REMARK    7  A    between atoms: C_7  and  C_8
REMARK    8  A    between atoms: C_8  and  C_9
REMARK    9  A    between atoms: C_10  and  C_11
REMARK   10  A    between atoms: C_11  and  C_12
REMARK   11  A    between atoms: C_12  and  C_13
REMARK   12  A    between atoms: C_13  and  C_14
REMARK   13  A    between atoms: C_14  and  C_15
REMARK   14  A    between atoms: C_15  and  C_16
REMARK   15  A    between atoms: C_16  and  C_17
REMARK   16  A    between atoms: C_17  and  C_18
REMARK   17  A    between atoms: C_18  and  O_20
REMARK   18  A    between atoms: O_20  and  C_21
REMARK   19  A    between atoms: C_21  and  C_22
REMARK   20  A    between atoms: C_24  and  C_25
REMARK   21  A    between atoms: C_25  and  O_27
REMARK                            x       y       z     vdW  Elec       q    Type
REMARK                         _______ _______ _______ _____ _____    ______ ____
ROOT
ATOM      1  C   UNL     1       2.608   8.362  17.987  0.00  0.00    +0.000 C 
ENDROOT
BRANCH   1   2
ATOM      2  C   UNL     1       1.357   9.208  17.760  0.00  0.00    +0.000 C 
BRANCH   2   3
ATOM      3  C   UNL     1       1.063  10.044  18.982  0.00  0.00    +0.000 C 
ATOM      4  O   UNL     1       1.171   9.635  20.132  0.00  0.00    +0.000 OA
BRANCH   3   5
ATOM      5  O   UNL     1       0.581  11.266  18.623  0.00  0.00    +0.000 OA
BRANCH   5   6
ATOM      6  C   UNL     1      -0.851  11.403  18.615  0.00  0.00    +0.000 C 
BRANCH   6   7
ATOM      7  C   UNL     1      -1.395  12.222  19.788  0.00  0.00    +0.000 C 
ATOM      8  C   UNL     1      -0.568  13.469  20.012  0.00  0.00    +0.000 C 
ATOM      9  C   UNL     1      -0.620  13.692  21.514  0.00  0.00    +0.000 C 
ATOM     10  C   UNL     1      -0.964  12.325  22.034  0.00  0.00    +0.000 C 
ATOM     11  O   UNL     1      -1.029  11.968  23.199  0.00  0.00    +0.000 OA
ATOM     12  O   UNL     1      -1.292  11.488  21.008  0.00  0.00    +0.000 OA
BRANCH   9  13
ATOM     13  C   UNL     1       0.677  14.276  22.002  0.00  0.00    +0.000 C 
ATOM     14  O   UNL     1       1.773  13.893  21.615  0.00  0.00    +0.000 OA
BRANCH  13  15
ATOM     15  O   UNL     1       0.554  15.303  22.857  0.00  0.00    +0.000 OA
ATOM     16  H   UNL     1       1.300  15.932  22.801  0.00  0.00    +0.000 HD
ENDBRANCH  13  15
ENDBRANCH   9  13
ENDBRANCH   6   7
ENDBRANCH   5   6
ENDBRANCH   3   5
ENDBRANCH   2   3
ENDBRANCH   1   2
BRANCH   1  17
ATOM     17  C   UNL     1       2.287   6.879  18.122  0.00  0.00    +0.000 C 
BRANCH  17  18
ATOM     18  C   UNL     1       2.915   6.343  19.397  0.00  0.00    +0.000 C 
BRANCH  18  19
ATOM     19  C   UNL     1       1.923   6.335  20.555  0.00  0.00    +0.000 C 
BRANCH  19  20
ATOM     20  C   UNL     1       1.433   4.918  20.844  0.00  0.00    +0.000 C 
BRANCH  20  21
ATOM     21  C   UNL     1       2.336   3.842  20.240  0.00  0.00    +0.000 C 
BRANCH  21  23
ATOM     22  C   UNL     1       1.713   2.641  18.131  0.00  0.00    +0.000 C 
ATOM     23  C   UNL     1       1.550   2.834  19.444  0.00  0.00    +0.000 C 
BRANCH  22  24
ATOM     24  C   UNL     1       2.738   3.401  17.357  0.00  0.00    +0.000 C 
BRANCH  24  25
ATOM     25  C   UNL     1       4.134   2.868  17.584  0.00  0.00    +0.000 C 
BRANCH  25  26
ATOM     26  C   UNL     1       5.125   4.018  17.482  0.00  0.00    +0.000 C 
BRANCH  26  27
ATOM     27  C   UNL     1       4.753   4.910  16.314  0.00  0.00    +0.000 C 
BRANCH  27  28
ATOM     28  C   UNL     1       5.439   6.261  16.439  0.00  0.00    +0.000 C 
BRANCH  28  29
ATOM     29  C   UNL     1       6.943   6.069  16.575  0.00  0.00    +0.000 C 
BRANCH  29  31
ATOM     30  C   UNL     1       7.835   6.161  18.909  0.00  0.00    +0.000 C 
ATOM     31  C   UNL     1       7.508   6.968  17.667  0.00  0.00    +0.000 C 
ENDBRANCH  29  31
ENDBRANCH  28  29
ENDBRANCH  27  28
ENDBRANCH  26  27
ENDBRANCH  25  26
ENDBRANCH  24  25
ENDBRANCH  22  24
ENDBRANCH  21  23
ENDBRANCH  20  21
ENDBRANCH  19  20
ENDBRANCH  18  19
ENDBRANCH  17  18
ENDBRANCH   1  17
TORSDOF 20
ENDMDL
MODEL 7
REMARK VINA RESULT:      -5.9      4.605      9.113
REMARK  Name = 
REMARK  21 active torsions:
REMARK  status: ('A' for Active; 'I' for Inactive)
REMARK    1  A    between atoms: C_1  and  C_2
REMARK    2  A    between atoms: C_2  and  C_3
REMARK    3  A    between atoms: C_3  and  C_4
REMARK    4  A    between atoms: C_4  and  C_5
REMARK    5  A    between atoms: C_5  and  C_6
REMARK    6  A    between atoms: C_6  and  C_7
REMARK    7  A    between atoms: C_7  and  C_8
REMARK    8  A    between atoms: C_8  and  C_9
REMARK    9  A    between atoms: C_10  and  C_11
REMARK   10  A    between atoms: C_11  and  C_12
REMARK   11  A    between atoms: C_12  and  C_13
REMARK   12  A    between atoms: C_13  and  C_14
REMARK   13  A    between atoms: C_14  and  C_15
REMARK   14  A    between atoms: C_15  and  C_16
REMARK   15  A    between atoms: C_16  and  C_17
REMARK   16  A    between atoms: C_17  and  C_18
REMARK   17  A    between atoms: C_18  and  O_20
REMARK   18  A    between atoms: O_20  and  C_21
REMARK   19  A    between atoms: C_21  and  C_22
REMARK   20  A    between atoms: C_24  and  C_25
REMARK   21  A    between atoms: C_25  and  O_27
REMARK                            x       y       z     vdW  Elec       q    Type
REMARK                         _______ _______ _______ _____ _____    ______ ____
ROOT
ATOM      1  C   UNL     1       1.762   6.268  19.244  0.00  0.00    +0.000 C 
ENDROOT
BRANCH   1   2
ATOM      2  C   UNL     1       2.702   7.463  19.096  0.00  0.00    +0.000 C 
BRANCH   2   3
ATOM      3  C   UNL     1       2.363   8.241  17.847  0.00  0.00    +0.000 C 
ATOM      4  O   UNL     1       3.064   8.259  16.843  0.00  0.00    +0.000 OA
BRANCH   3   5
ATOM      5  O   UNL     1       1.233   8.978  18.033  0.00  0.00    +0.000 OA
BRANCH   5   6
ATOM      6  C   UNL     1       1.299   9.988  19.056  0.00  0.00    +0.000 C 
BRANCH   6   7
ATOM      7  C   UNL     1       0.118   9.954  20.028  0.00  0.00    +0.000 C 
ATOM      8  C   UNL     1      -0.557  11.305  20.114  0.00  0.00    +0.000 C 
ATOM      9  C   UNL     1      -1.048  11.392  21.550  0.00  0.00    +0.000 C 
ATOM     10  C   UNL     1      -0.164  10.403  22.256  0.00  0.00    +0.000 C 
ATOM     11  O   UNL     1      -0.110  10.179  23.453  0.00  0.00    +0.000 OA
ATOM     12  O   UNL     1       0.565   9.681  21.357  0.00  0.00    +0.000 OA
BRANCH   9  13
ATOM     13  C   UNL     1      -0.975  12.811  22.044  0.00  0.00    +0.000 C 
ATOM     14  O   UNL     1      -1.040  13.783  21.303  0.00  0.00    +0.000 OA
BRANCH  13  15
ATOM     15  O   UNL     1      -0.896  12.948  23.376  0.00  0.00    +0.000 OA
ATOM     16  H   UNL     1      -0.443  13.771  23.644  0.00  0.00    +0.000 HD
ENDBRANCH  13  15
ENDBRANCH   9  13
ENDBRANCH   6   7
ENDBRANCH   5   6
ENDBRANCH   3   5
ENDBRANCH   2   3
ENDBRANCH   1   2
BRANCH   1  17
ATOM     17  C   UNL     1       2.171   5.350  20.389  0.00  0.00    +0.000 C 
BRANCH  17  18
ATOM     18  C   UNL     1       1.126   4.259  20.556  0.00  0.00    +0.000 C 
BRANCH  18  19
ATOM     19  C   UNL     1       1.550   3.226  21.594  0.00  0.00    +0.000 C 
BRANCH  19  20
ATOM     20  C   UNL     1       2.147   1.990  20.921  0.00  0.00    +0.000 C 
BRANCH  20  21
ATOM     21  C   UNL     1       1.957   1.990  19.403  0.00  0.00    +0.000 C 
BRANCH  21  23
ATOM     22  C   UNL     1       3.714   2.423  17.669  0.00  0.00    +0.000 C 
ATOM     23  C   UNL     1       3.241   1.685  18.679  0.00  0.00    +0.000 C 
BRANCH  22  24
ATOM     24  C   UNL     1       3.001   3.651  17.208  0.00  0.00    +0.000 C 
BRANCH  24  25
ATOM     25  C   UNL     1       3.961   4.755  16.825  0.00  0.00    +0.000 C 
BRANCH  25  26
ATOM     26  C   UNL     1       5.071   4.167  15.966  0.00  0.00    +0.000 C 
BRANCH  26  27
ATOM     27  C   UNL     1       5.933   5.285  15.410  0.00  0.00    +0.000 C 
BRANCH  27  28
ATOM     28  C   UNL     1       7.249   5.365  16.168  0.00  0.00    +0.000 C 
BRANCH  28  29
ATOM     29  C   UNL     1       7.196   6.501  17.181  0.00  0.00    +0.000 C 
BRANCH  29  31
ATOM     30  C   UNL     1       6.500   5.414  19.322  0.00  0.00    +0.000 C 
ATOM     31  C   UNL     1       7.656   6.025  18.552  0.00  0.00    +0.000 C 
ENDBRANCH  29  31
ENDBRANCH  28  29
ENDBRANCH  27  28
ENDBRANCH  26  27
ENDBRANCH  25  26
ENDBRANCH  24  25
ENDBRANCH  22  24
ENDBRANCH  21  23
ENDBRANCH  20  21
ENDBRANCH  19  20
ENDBRANCH  18  19
ENDBRANCH  17  18
ENDBRANCH   1  17
TORSDOF 20
ENDMDL
MODEL 8
REMARK VINA RESULT:      -5.9      3.796      8.679
REMARK  Name = 
REMARK  21 active torsions:
REMARK  status: ('A' for Active; 'I' for Inactive)
REMARK    1  A    between atoms: C_1  and  C_2
REMARK    2  A    between atoms: C_2  and  C_3
REMARK    3  A    between atoms: C_3  and  C_4
REMARK    4  A    between atoms: C_4  and  C_5
REMARK    5  A    between atoms: C_5  and  C_6
REMARK    6  A    between atoms: C_6  and  C_7
REMARK    7  A    between atoms: C_7  and  C_8
REMARK    8  A    between atoms: C_8  and  C_9
REMARK    9  A    between atoms: C_10  and  C_11
REMARK   10  A    between atoms: C_11  and  C_12
REMARK   11  A    between atoms: C_12  and  C_13
REMARK   12  A    between atoms: C_13  and  C_14
REMARK   13  A    between atoms: C_14  and  C_15
REMARK   14  A    between atoms: C_15  and  C_16
REMARK   15  A    between atoms: C_16  and  C_17
REMARK   16  A    between atoms: C_17  and  C_18
REMARK   17  A    between atoms: C_18  and  O_20
REMARK   18  A    between atoms: O_20  and  C_21
REMARK   19  A    between atoms: C_21  and  C_22
REMARK   20  A    between atoms: C_24  and  C_25
REMARK   21  A    between atoms: C_25  and  O_27
REMARK                            x       y       z     vdW  Elec       q    Type
REMARK                         _______ _______ _______ _____ _____    ______ ____
ROOT
ATOM      1  C   UNL     1       0.907   2.971  18.671  0.00  0.00    +0.000 C 
ENDROOT
BRANCH   1   2
ATOM      2  C   UNL     1       0.587   3.188  20.148  0.00  0.00    +0.000 C 
BRANCH   2   3
ATOM      3  C   UNL     1       1.543   4.192  20.747  0.00  0.00    +0.000 C 
ATOM      4  O   UNL     1       2.230   3.975  21.737  0.00  0.00    +0.000 OA
BRANCH   3   5
ATOM      5  O   UNL     1       1.461   5.382  20.090  0.00  0.00    +0.000 OA
BRANCH   5   6
ATOM      6  C   UNL     1       1.232   6.543  20.910  0.00  0.00    +0.000 C 
BRANCH   6   7
ATOM      7  C   UNL     1       1.853   7.823  20.348  0.00  0.00    +0.000 C 
ATOM      8  C   UNL     1       0.868   8.971  20.392  0.00  0.00    +0.000 C 
ATOM      9  C   UNL     1       1.211   9.810  19.172  0.00  0.00    +0.000 C 
ATOM     10  C   UNL     1       1.925   8.825  18.290  0.00  0.00    +0.000 C 
ATOM     11  O   UNL     1       2.317   8.999  17.149  0.00  0.00    +0.000 OA
ATOM     12  O   UNL     1       2.172   7.665  18.965  0.00  0.00    +0.000 OA
BRANCH   9  13
ATOM     13  C   UNL     1      -0.033  10.430  18.596  0.00  0.00    +0.000 C 
ATOM     14  O   UNL     1      -0.520  11.470  19.018  0.00  0.00    +0.000 OA
BRANCH  13  15
ATOM     15  O   UNL     1      -0.548   9.794  17.533  0.00  0.00    +0.000 OA
ATOM     16  H   UNL     1      -0.123   8.929  17.370  0.00  0.00    +0.000 HD
ENDBRANCH  13  15
ENDBRANCH   9  13
ENDBRANCH   6   7
ENDBRANCH   5   6
ENDBRANCH   3   5
ENDBRANCH   2   3
ENDBRANCH   1   2
BRANCH   1  17
ATOM     17  C   UNL     1       1.905   1.840  18.456  0.00  0.00    +0.000 C 
BRANCH  17  18
ATOM     18  C   UNL     1       3.170   2.400  17.828  0.00  0.00    +0.000 C 
BRANCH  18  19
ATOM     19  C   UNL     1       4.360   2.307  18.777  0.00  0.00    +0.000 C 
BRANCH  19  20
ATOM     20  C   UNL     1       4.777   3.692  19.267  0.00  0.00    +0.000 C 
BRANCH  20  21
ATOM     21  C   UNL     1       4.609   4.775  18.200  0.00  0.00    +0.000 C 
BRANCH  21  23
ATOM     22  C   UNL     1       6.771   5.491  17.155  0.00  0.00    +0.000 C 
ATOM     23  C   UNL     1       5.831   5.648  18.092  0.00  0.00    +0.000 C 
BRANCH  22  24
ATOM     24  C   UNL     1       6.649   4.438  16.104  0.00  0.00    +0.000 C 
BRANCH  24  25
ATOM     25  C   UNL     1       6.267   5.017  14.761  0.00  0.00    +0.000 C 
BRANCH  25  26
ATOM     26  C   UNL     1       6.308   3.912  13.717  0.00  0.00    +0.000 C 
BRANCH  26  27
ATOM     27  C   UNL     1       6.829   4.467  12.405  0.00  0.00    +0.000 C 
BRANCH  27  28
ATOM     28  C   UNL     1       6.884   3.373  11.351  0.00  0.00    +0.000 C 
BRANCH  28  29
ATOM     29  C   UNL     1       6.229   2.105  11.883  0.00  0.00    +0.000 C 
BRANCH  29  31
ATOM     30  C   UNL     1       6.063  -0.354  11.468  0.00  0.00    +0.000 C 
ATOM     31  C   UNL     1       6.231   1.009  10.826  0.00  0.00    +0.000 C 
ENDBRANCH  29  31
ENDBRANCH  28  29
ENDBRANCH  27  28
ENDBRANCH  26  27
ENDBRANCH  25  26
ENDBRANCH  24  25
ENDBRANCH  22  24
ENDBRANCH  21  23
ENDBRANCH  20  21
ENDBRANCH  19  20
ENDBRANCH  18  19
ENDBRANCH  17  18
ENDBRANCH   1  17
TORSDOF 20
ENDMDL
MODEL 9
REMARK VINA RESULT:      -5.9      4.399      6.548
REMARK  Name = 
REMARK  21 active torsions:
REMARK  status: ('A' for Active; 'I' for Inactive)
REMARK    1  A    between atoms: C_1  and  C_2
REMARK    2  A    between atoms: C_2  and  C_3
REMARK    3  A    between atoms: C_3  and  C_4
REMARK    4  A    between atoms: C_4  and  C_5
REMARK    5  A    between atoms: C_5  and  C_6
REMARK    6  A    between atoms: C_6  and  C_7
REMARK    7  A    between atoms: C_7  and  C_8
REMARK    8  A    between atoms: C_8  and  C_9
REMARK    9  A    between atoms: C_10  and  C_11
REMARK   10  A    between atoms: C_11  and  C_12
REMARK   11  A    between atoms: C_12  and  C_13
REMARK   12  A    between atoms: C_13  and  C_14
REMARK   13  A    between atoms: C_14  and  C_15
REMARK   14  A    between atoms: C_15  and  C_16
REMARK   15  A    between atoms: C_16  and  C_17
REMARK   16  A    between atoms: C_17  and  C_18
REMARK   17  A    between atoms: C_18  and  O_20
REMARK   18  A    between atoms: O_20  and  C_21
REMARK   19  A    between atoms: C_21  and  C_22
REMARK   20  A    between atoms: C_24  and  C_25
REMARK   21  A    between atoms: C_25  and  O_27
REMARK                            x       y       z     vdW  Elec       q    Type
REMARK                         _______ _______ _______ _____ _____    ______ ____
ROOT
ATOM      1  C   UNL     1       4.777   6.710  17.692  0.00  0.00    +0.000 C 
ENDROOT
BRANCH   1   2
ATOM      2  C   UNL     1       5.968   6.819  16.743  0.00  0.00    +0.000 C 
BRANCH   2   3
ATOM      3  C   UNL     1       7.234   7.084  17.522  0.00  0.00    +0.000 C 
ATOM      4  O   UNL     1       7.735   6.287  18.305  0.00  0.00    +0.000 OA
BRANCH   3   5
ATOM      5  O   UNL     1       7.678   8.352  17.298  0.00  0.00    +0.000 OA
BRANCH   5   6
ATOM      6  C   UNL     1       8.381   8.977  18.387  0.00  0.00    +0.000 C 
BRANCH   6   7
ATOM      7  C   UNL     1       9.076  10.285  17.999  0.00  0.00    +0.000 C 
ATOM      8  C   UNL     1       9.722  10.937  19.201  0.00  0.00    +0.000 C 
ATOM      9  C   UNL     1       9.605  12.428  18.930  0.00  0.00    +0.000 C 
ATOM     10  C   UNL     1       8.470  12.492  17.948  0.00  0.00    +0.000 C 
ATOM     11  O   UNL     1       7.934  13.490  17.497  0.00  0.00    +0.000 OA
ATOM     12  O   UNL     1       8.126  11.241  17.527  0.00  0.00    +0.000 OA
BRANCH   9  13
ATOM     13  C   UNL     1       9.407  13.180  20.218  0.00  0.00    +0.000 C 
ATOM     14  O   UNL     1       8.367  13.759  20.502  0.00  0.00    +0.000 OA
BRANCH  13  15
ATOM     15  O   UNL     1      10.436  13.124  21.076  0.00  0.00    +0.000 OA
ATOM     16  H   UNL     1      11.295  13.304  20.646  0.00  0.00    +0.000 HD
ENDBRANCH  13  15
ENDBRANCH   9  13
ENDBRANCH   6   7
ENDBRANCH   5   6
ENDBRANCH   3   5
ENDBRANCH   2   3
ENDBRANCH   1   2
BRANCH   1  17
ATOM     17  C   UNL     1       3.941   5.464  17.429  0.00  0.00    +0.000 C 
BRANCH  17  18
ATOM     18  C   UNL     1       4.810   4.230  17.600  0.00  0.00    +0.000 C 
BRANCH  18  19
ATOM     19  C   UNL     1       4.017   2.946  17.378  0.00  0.00    +0.000 C 
BRANCH  19  20
ATOM     20  C   UNL     1       2.515   3.211  17.459  0.00  0.00    +0.000 C 
BRANCH  20  21
ATOM     21  C   UNL     1       1.776   2.185  18.318  0.00  0.00    +0.000 C 
BRANCH  21  23
ATOM     22  C   UNL     1       0.836   3.446  20.268  0.00  0.00    +0.000 C 
ATOM     23  C   UNL     1       0.657   2.815  19.104  0.00  0.00    +0.000 C 
BRANCH  22  24
ATOM     24  C   UNL     1       2.197   3.607  20.861  0.00  0.00    +0.000 C 
BRANCH  24  25
ATOM     25  C   UNL     1       2.673   5.041  20.812  0.00  0.00    +0.000 C 
BRANCH  25  26
ATOM     26  C   UNL     1       1.483   5.947  20.533  0.00  0.00    +0.000 C 
BRANCH  26  27
ATOM     27  C   UNL     1       1.972   7.316  20.103  0.00  0.00    +0.000 C 
BRANCH  27  28
ATOM     28  C   UNL     1       1.309   8.402  20.935  0.00  0.00    +0.000 C 
BRANCH  28  29
ATOM     29  C   UNL     1       1.052   9.632  20.075  0.00  0.00    +0.000 C 
BRANCH  29  31
ATOM     30  C   UNL     1      -0.824  10.229  18.535  0.00  0.00    +0.000 C 
ATOM     31  C   UNL     1      -0.440   9.916  19.968  0.00  0.00    +0.000 C 
ENDBRANCH  29  31
ENDBRANCH  28  29
ENDBRANCH  27  28
ENDBRANCH  26  27
ENDBRANCH  25  26
ENDBRANCH  24  25
ENDBRANCH  22  24
ENDBRANCH  21  23
ENDBRANCH  20  21
ENDBRANCH  19  20
ENDBRANCH  18  19
ENDBRANCH  17  18
ENDBRANCH   1  17
TORSDOF 20
ENDMDL
