MODEL 1
REMARK VINA RESULT:      -6.0      0.000      0.000
REMARK  Name = 
REMARK  8 active torsions:
REMARK  status: ('A' for Active; 'I' for Inactive)
REMARK    1  A    between atoms: C_1  and  O_2
REMARK    2  A    between atoms: O_2  and  C_3
REMARK    3  A    between atoms: N_5  and  C_6
REMARK    4  A    between atoms: N_5  and  C_7
REMARK    5  A    between atoms: C_7  and  C_8
REMARK    6  A    between atoms: N_10  and  C_11
REMARK    7  A    between atoms: C_11  and  C_12
REMARK    8  A    between atoms: C_11  and  C_13
REMARK                            x       y       z     vdW  Elec       q    Type
REMARK                         _______ _______ _______ _____ _____    ______ ____
ROOT
ATOM      1  C   UNL     1       5.352   5.650  18.557  0.00  0.00    +0.000 C 
ATOM      2  O   UNL     1       5.826   5.291  19.637  0.00  0.00    +0.000 OA
ATOM      3  N   UNL     1       4.047   6.092  18.417  0.00  0.00    +0.000 N 
ATOM      4  H   UNL     1       3.656   6.097  17.480  0.00  0.00    +0.000 HD
ENDROOT
BRANCH   3   5
ATOM      5  C   UNL     1       3.145   6.132  19.562  0.00  0.00    +0.000 C 
ATOM      6  C   UNL     1       2.241   7.366  19.531  0.00  0.00    +0.000 C 
BRANCH   5   7
ATOM      7  C   UNL     1       2.314   4.876  19.574  0.00  0.00    +0.000 A 
ATOM      8  C   UNL     1       1.982   4.064  20.642  0.00  0.00    +0.000 A 
ATOM      9  C   UNL     1       1.218   2.928  20.246  0.00  0.00    +0.000 A 
ATOM     10  C   UNL     1       0.989   2.909  18.891  0.00  0.00    +0.000 A 
ATOM     11  S   UNL     1       1.688   4.251  18.101  0.00  0.00    +0.000 S 
ENDBRANCH   5   7
ENDBRANCH   3   5
BRANCH   1  12
ATOM     12  C   UNL     1       6.206   5.689  17.284  0.00  0.00    +0.000 C 
BRANCH  12  15
ATOM     13  C   UNL     1       6.639   4.646  15.112  0.00  0.00    +0.000 C 
ATOM     14  O   UNL     1       7.417   5.542  14.787  0.00  0.00    +0.000 OA
ATOM     15  N   UNL     1       5.956   4.627  16.311  0.00  0.00    +0.000 N 
ATOM     16  C   UNL     1       5.009   3.577  16.658  0.00  0.00    +0.000 C 
BRANCH  13  18
ATOM     17  C   UNL     1       6.372   3.776  12.933  0.00  0.00    +0.000 C 
ATOM     18  O   UNL     1       6.358   3.565  14.342  0.00  0.00    +0.000 OA
ENDBRANCH  13  18
ENDBRANCH  12  15
ENDBRANCH   1  12
TORSDOF 5
ENDMDL
MODEL 2
REMARK VINA RESULT:      -6.0      2.040      2.742
REMARK  Name = 
REMARK  8 active torsions:
REMARK  status: ('A' for Active; 'I' for Inactive)
REMARK    1  A    between atoms: C_1  and  O_2
REMARK    2  A    between atoms: O_2  and  C_3
REMARK    3  A    between atoms: N_5  and  C_6
REMARK    4  A    between atoms: N_5  and  C_7
REMARK    5  A    between atoms: C_7  and  C_8
REMARK    6  A    between atoms: N_10  and  C_11
REMARK    7  A    between atoms: C_11  and  C_12
REMARK    8  A    between atoms: C_11  and  C_13
REMARK                            x       y       z     vdW  Elec       q    Type
REMARK                         _______ _______ _______ _____ _____    ______ ____
ROOT
ATOM      1  C   UNL     1       5.212   4.492  18.747  0.00  0.00    +0.000 C 
ATOM      2  O   UNL     1       5.376   3.706  19.681  0.00  0.00    +0.000 OA
ATOM      3  N   UNL     1       4.174   5.408  18.706  0.00  0.00    +0.000 N 
ATOM      4  H   UNL     1       3.945   5.811  17.803  0.00  0.00    +0.000 HD
ENDROOT
BRANCH   3   5
ATOM      5  C   UNL     1       3.190   5.469  19.781  0.00  0.00    +0.000 C 
ATOM      6  C   UNL     1       2.411   6.786  19.764  0.00  0.00    +0.000 C 
BRANCH   5   7
ATOM      7  C   UNL     1       2.245   4.303  19.646  0.00  0.00    +0.000 A 
ATOM      8  C   UNL     1       1.785   3.440  20.622  0.00  0.00    +0.000 A 
ATOM      9  C   UNL     1       0.940   2.421  20.095  0.00  0.00    +0.000 A 
ATOM     10  C   UNL     1       0.780   2.538  18.736  0.00  0.00    +0.000 A 
ATOM     11  S   UNL     1       1.640   3.868  18.098  0.00  0.00    +0.000 S 
ENDBRANCH   5   7
ENDBRANCH   3   5
BRANCH   1  12
ATOM     12  C   UNL     1       6.197   4.554  17.573  0.00  0.00    +0.000 C 
BRANCH  12  15
ATOM     13  C   UNL     1       7.396   6.687  17.673  0.00  0.00    +0.000 C 
ATOM     14  O   UNL     1       7.972   6.365  18.710  0.00  0.00    +0.000 OA
ATOM     15  N   UNL     1       6.470   5.886  17.034  0.00  0.00    +0.000 N 
ATOM     16  C   UNL     1       5.770   6.303  15.829  0.00  0.00    +0.000 C 
BRANCH  13  18
ATOM     17  C   UNL     1       8.063   8.948  17.816  0.00  0.00    +0.000 C 
ATOM     18  O   UNL     1       7.595   7.860  17.022  0.00  0.00    +0.000 OA
ENDBRANCH  13  18
ENDBRANCH  12  15
ENDBRANCH   1  12
TORSDOF 5
ENDMDL
MODEL 3
REMARK VINA RESULT:      -6.0      2.271      3.755
REMARK  Name = 
REMARK  8 active torsions:
REMARK  status: ('A' for Active; 'I' for Inactive)
REMARK    1  A    between atoms: C_1  and  O_2
REMARK    2  A    between atoms: O_2  and  C_3
REMARK    3  A    between atoms: N_5  and  C_6
REMARK    4  A    between atoms: N_5  and  C_7
REMARK    5  A    between atoms: C_7  and  C_8
REMARK    6  A    between atoms: N_10  and  C_11
REMARK    7  A    between atoms: C_11  and  C_12
REMARK    8  A    between atoms: C_11  and  C_13
REMARK                            x       y       z     vdW  Elec       q    Type
REMARK                         _______ _______ _______ _____ _____    ______ ____
ROOT
ATOM      1  C   UNL     1       5.964   4.220  17.155  0.00  0.00    +0.000 C 
ATOM      2  O   UNL     1       5.508   4.404  16.025  0.00  0.00    +0.000 OA
ATOM      3  N   UNL     1       5.214   3.689  18.191  0.00  0.00    +0.000 N 
ATOM      4  H   UNL     1       5.560   3.829  19.135  0.00  0.00    +0.000 HD
ENDROOT
BRANCH   3   5
ATOM      5  C   UNL     1       3.813   3.336  17.995  0.00  0.00    +0.000 C 
ATOM      6  C   UNL     1       3.609   1.820  17.948  0.00  0.00    +0.000 C 
BRANCH   5   7
ATOM      7  C   UNL     1       2.996   3.937  19.109  0.00  0.00    +0.000 A 
ATOM      8  C   UNL     1       2.258   3.299  20.088  0.00  0.00    +0.000 A 
ATOM      9  C   UNL     1       1.575   4.214  20.939  0.00  0.00    +0.000 A 
ATOM     10  C   UNL     1       1.812   5.521  20.586  0.00  0.00    +0.000 A 
ATOM     11  S   UNL     1       2.854   5.645  19.239  0.00  0.00    +0.000 S 
ENDBRANCH   5   7
ENDBRANCH   3   5
BRANCH   1  12
ATOM     12  C   UNL     1       7.432   4.515  17.483  0.00  0.00    +0.000 C 
BRANCH  12  15
ATOM     13  C   UNL     1       7.787   6.931  17.660  0.00  0.00    +0.000 C 
ATOM     14  O   UNL     1       7.736   7.074  16.440  0.00  0.00    +0.000 OA
ATOM     15  N   UNL     1       7.681   5.708  18.291  0.00  0.00    +0.000 N 
ATOM     16  C   UNL     1       7.785   5.558  19.735  0.00  0.00    +0.000 C 
BRANCH  13  18
ATOM     17  C   UNL     1       8.315   9.211  17.983  0.00  0.00    +0.000 C 
ATOM     18  O   UNL     1       7.948   7.951  18.540  0.00  0.00    +0.000 OA
ENDBRANCH  13  18
ENDBRANCH  12  15
ENDBRANCH   1  12
TORSDOF 5
ENDMDL
MODEL 4
REMARK VINA RESULT:      -6.0      2.932      6.379
REMARK  Name = 
REMARK  8 active torsions:
REMARK  status: ('A' for Active; 'I' for Inactive)
REMARK    1  A    between atoms: C_1  and  O_2
REMARK    2  A    between atoms: O_2  and  C_3
REMARK    3  A    between atoms: N_5  and  C_6
REMARK    4  A    between atoms: N_5  and  C_7
REMARK    5  A    between atoms: C_7  and  C_8
REMARK    6  A    between atoms: N_10  and  C_11
REMARK    7  A    between atoms: C_11  and  C_12
REMARK    8  A    between atoms: C_11  and  C_13
REMARK                            x       y       z     vdW  Elec       q    Type
REMARK                         _______ _______ _______ _____ _____    ______ ____
ROOT
ATOM      1  C   UNL     1       3.995   3.716  17.366  0.00  0.00    +0.000 C 
ATOM      2  O   UNL     1       4.601   2.962  18.128  0.00  0.00    +0.000 OA
ATOM      3  N   UNL     1       4.622   4.433  16.360  0.00  0.00    +0.000 N 
ATOM      4  H   UNL     1       4.120   5.225  15.972  0.00  0.00    +0.000 HD
ENDROOT
BRANCH   3   5
ATOM      5  C   UNL     1       6.064   4.342  16.166  0.00  0.00    +0.000 C 
ATOM      6  C   UNL     1       6.447   4.437  14.688  0.00  0.00    +0.000 C 
BRANCH   5   7
ATOM      7  C   UNL     1       6.733   5.442  16.950  0.00  0.00    +0.000 A 
ATOM      8  C   UNL     1       6.837   6.786  16.645  0.00  0.00    +0.000 A 
ATOM      9  C   UNL     1       7.595   7.506  17.613  0.00  0.00    +0.000 A 
ATOM     10  C   UNL     1       8.044   6.693  18.625  0.00  0.00    +0.000 A 
ATOM     11  S   UNL     1       7.554   5.071  18.413  0.00  0.00    +0.000 S 
ENDBRANCH   5   7
ENDBRANCH   3   5
BRANCH   1  12
ATOM     12  C   UNL     1       2.471   3.873  17.441  0.00  0.00    +0.000 C 
BRANCH  12  15
ATOM     13  C   UNL     1       1.137   3.115  19.349  0.00  0.00    +0.000 C 
ATOM     14  O   UNL     1       0.836   2.067  18.779  0.00  0.00    +0.000 OA
ATOM     15  N   UNL     1       1.915   4.099  18.774  0.00  0.00    +0.000 N 
ATOM     16  C   UNL     1       2.225   5.349  19.452  0.00  0.00    +0.000 C 
BRANCH  13  18
ATOM     17  C   UNL     1       1.367   2.700  21.662  0.00  0.00    +0.000 C 
ATOM     18  O   UNL     1       0.750   3.434  20.609  0.00  0.00    +0.000 OA
ENDBRANCH  13  18
ENDBRANCH  12  15
ENDBRANCH   1  12
TORSDOF 5
ENDMDL
MODEL 5
REMARK VINA RESULT:      -6.0      1.028      1.499
REMARK  Name = 
REMARK  8 active torsions:
REMARK  status: ('A' for Active; 'I' for Inactive)
REMARK    1  A    between atoms: C_1  and  O_2
REMARK    2  A    between atoms: O_2  and  C_3
REMARK    3  A    between atoms: N_5  and  C_6
REMARK    4  A    between atoms: N_5  and  C_7
REMARK    5  A    between atoms: C_7  and  C_8
REMARK    6  A    between atoms: N_10  and  C_11
REMARK    7  A    between atoms: C_11  and  C_12
REMARK    8  A    between atoms: C_11  and  C_13
REMARK                            x       y       z     vdW  Elec       q    Type
REMARK                         _______ _______ _______ _____ _____    ______ ____
ROOT
ATOM      1  C   UNL     1       5.570   5.025  18.718  0.00  0.00    +0.000 C 
ATOM      2  O   UNL     1       5.853   5.261  19.894  0.00  0.00    +0.000 OA
ATOM      3  N   UNL     1       4.351   5.362  18.155  0.00  0.00    +0.000 N 
ATOM      4  H   UNL     1       4.092   4.895  17.292  0.00  0.00    +0.000 HD
ENDROOT
BRANCH   3   5
ATOM      5  C   UNL     1       3.312   6.005  18.952  0.00  0.00    +0.000 C 
ATOM      6  C   UNL     1       2.530   7.039  18.140  0.00  0.00    +0.000 C 
BRANCH   5   7
ATOM      7  C   UNL     1       2.381   4.948  19.486  0.00  0.00    +0.000 A 
ATOM      8  C   UNL     1       2.065   4.651  20.798  0.00  0.00    +0.000 A 
ATOM      9  C   UNL     1       1.179   3.540  20.908  0.00  0.00    +0.000 A 
ATOM     10  C   UNL     1       0.847   3.024  19.678  0.00  0.00    +0.000 A 
ATOM     11  S   UNL     1       1.594   3.874  18.400  0.00  0.00    +0.000 S 
ENDBRANCH   5   7
ENDBRANCH   3   5
BRANCH   1  12
ATOM     12  C   UNL     1       6.587   4.387  17.765  0.00  0.00    +0.000 C 
BRANCH  12  15
ATOM     13  C   UNL     1       6.962   4.704  15.366  0.00  0.00    +0.000 C 
ATOM     14  O   UNL     1       6.600   3.556  15.113  0.00  0.00    +0.000 OA
ATOM     15  N   UNL     1       7.027   5.218  16.645  0.00  0.00    +0.000 N 
ATOM     16  C   UNL     1       7.496   6.567  16.926  0.00  0.00    +0.000 C 
BRANCH  13  18
ATOM     17  C   UNL     1       7.656   5.087  13.141  0.00  0.00    +0.000 C 
ATOM     18  O   UNL     1       7.335   5.609  14.428  0.00  0.00    +0.000 OA
ENDBRANCH  13  18
ENDBRANCH  12  15
ENDBRANCH   1  12
TORSDOF 5
ENDMDL
MODEL 6
REMARK VINA RESULT:      -6.0      1.860      2.408
REMARK  Name = 
REMARK  8 active torsions:
REMARK  status: ('A' for Active; 'I' for Inactive)
REMARK    1  A    between atoms: C_1  and  O_2
REMARK    2  A    between atoms: O_2  and  C_3
REMARK    3  A    between atoms: N_5  and  C_6
REMARK    4  A    between atoms: N_5  and  C_7
REMARK    5  A    between atoms: C_7  and  C_8
REMARK    6  A    between atoms: N_10  and  C_11
REMARK    7  A    between atoms: C_11  and  C_12
REMARK    8  A    between atoms: C_11  and  C_13
REMARK                            x       y       z     vdW  Elec       q    Type
REMARK                         _______ _______ _______ _____ _____    ______ ____
ROOT
ATOM      1  C   UNL     1       4.270   5.847  18.209  0.00  0.00    +0.000 C 
ATOM      2  O   UNL     1       3.368   6.678  18.328  0.00  0.00    +0.000 OA
ATOM      3  N   UNL     1       4.030   4.492  18.059  0.00  0.00    +0.000 N 
ATOM      4  H   UNL     1       4.802   3.860  18.248  0.00  0.00    +0.000 HD
ENDROOT
BRANCH   3   5
ATOM      5  C   UNL     1       2.669   3.969  18.059  0.00  0.00    +0.000 C 
ATOM      6  C   UNL     1       2.484   2.861  17.020  0.00  0.00    +0.000 C 
BRANCH   5   7
ATOM      7  C   UNL     1       2.343   3.453  19.436  0.00  0.00    +0.000 A 
ATOM      8  C   UNL     1       1.156   3.539  20.138  0.00  0.00    +0.000 A 
ATOM      9  C   UNL     1       1.252   2.974  21.442  0.00  0.00    +0.000 A 
ATOM     10  C   UNL     1       2.506   2.475  21.696  0.00  0.00    +0.000 A 
ATOM     11  S   UNL     1       3.562   2.682  20.370  0.00  0.00    +0.000 S 
ENDBRANCH   5   7
ENDBRANCH   3   5
BRANCH   1  12
ATOM     12  C   UNL     1       5.743   6.270  18.157  0.00  0.00    +0.000 C 
BRANCH  12  15
ATOM     13  C   UNL     1       6.414   5.879  15.835  0.00  0.00    +0.000 C 
ATOM     14  O   UNL     1       5.568   6.663  15.411  0.00  0.00    +0.000 OA
ATOM     15  N   UNL     1       6.575   5.579  17.173  0.00  0.00    +0.000 N 
ATOM     16  C   UNL     1       7.557   4.616  17.649  0.00  0.00    +0.000 C 
BRANCH  13  18
ATOM     17  C   UNL     1       6.741   4.441  13.990  0.00  0.00    +0.000 C 
ATOM     18  O   UNL     1       7.298   5.214  15.049  0.00  0.00    +0.000 OA
ENDBRANCH  13  18
ENDBRANCH  12  15
ENDBRANCH   1  12
TORSDOF 5
ENDMDL
MODEL 7
REMARK VINA RESULT:      -5.9      2.113      2.802
REMARK  Name = 
REMARK  8 active torsions:
REMARK  status: ('A' for Active; 'I' for Inactive)
REMARK    1  A    between atoms: C_1  and  O_2
REMARK    2  A    between atoms: O_2  and  C_3
REMARK    3  A    between atoms: N_5  and  C_6
REMARK    4  A    between atoms: N_5  and  C_7
REMARK    5  A    between atoms: C_7  and  C_8
REMARK    6  A    between atoms: N_10  and  C_11
REMARK    7  A    between atoms: C_11  and  C_12
REMARK    8  A    between atoms: C_11  and  C_13
REMARK                            x       y       z     vdW  Elec       q    Type
REMARK                         _______ _______ _______ _____ _____    ______ ____
ROOT
ATOM      1  C   UNL     1       4.956   4.079  18.172  0.00  0.00    +0.000 C 
ATOM      2  O   UNL     1       4.208   3.682  17.277  0.00  0.00    +0.000 OA
ATOM      3  N   UNL     1       5.116   3.408  19.373  0.00  0.00    +0.000 N 
ATOM      4  H   UNL     1       5.515   3.930  20.147  0.00  0.00    +0.000 HD
ENDROOT
BRANCH   3   5
ATOM      5  C   UNL     1       4.374   2.184  19.649  0.00  0.00    +0.000 C 
ATOM      6  C   UNL     1       4.871   1.492  20.920  0.00  0.00    +0.000 C 
BRANCH   5   7
ATOM      7  C   UNL     1       2.910   2.518  19.776  0.00  0.00    +0.000 A 
ATOM      8  C   UNL     1       1.841   2.024  19.054  0.00  0.00    +0.000 A 
ATOM      9  C   UNL     1       0.605   2.625  19.430  0.00  0.00    +0.000 A 
ATOM     10  C   UNL     1       0.768   3.556  20.427  0.00  0.00    +0.000 A 
ATOM     11  S   UNL     1       2.399   3.704  20.909  0.00  0.00    +0.000 S 
ENDBRANCH   5   7
ENDBRANCH   3   5
BRANCH   1  12
ATOM     12  C   UNL     1       5.820   5.333  17.992  0.00  0.00    +0.000 C 
BRANCH  12  15
ATOM     13  C   UNL     1       7.228   5.137  15.999  0.00  0.00    +0.000 C 
ATOM     14  O   UNL     1       8.000   4.367  16.566  0.00  0.00    +0.000 OA
ATOM     15  N   UNL     1       6.130   5.706  16.613  0.00  0.00    +0.000 N 
ATOM     16  C   UNL     1       5.251   6.647  15.935  0.00  0.00    +0.000 C 
BRANCH  13  18
ATOM     17  C   UNL     1       6.957   4.566  13.724  0.00  0.00    +0.000 C 
ATOM     18  O   UNL     1       7.350   5.522  14.704  0.00  0.00    +0.000 OA
ENDBRANCH  13  18
ENDBRANCH  12  15
ENDBRANCH   1  12
TORSDOF 5
ENDMDL
MODEL 8
REMARK VINA RESULT:      -5.9      0.831      1.032
REMARK  Name = 
REMARK  8 active torsions:
REMARK  status: ('A' for Active; 'I' for Inactive)
REMARK    1  A    between atoms: C_1  and  O_2
REMARK    2  A    between atoms: O_2  and  C_3
REMARK    3  A    between atoms: N_5  and  C_6
REMARK    4  A    between atoms: N_5  and  C_7
REMARK    5  A    between atoms: C_7  and  C_8
REMARK    6  A    between atoms: N_10  and  C_11
REMARK    7  A    between atoms: C_11  and  C_12
REMARK    8  A    between atoms: C_11  and  C_13
REMARK                            x       y       z     vdW  Elec       q    Type
REMARK                         _______ _______ _______ _____ _____    ______ ____
ROOT
ATOM      1  C   UNL     1       5.470   5.541  18.681  0.00  0.00    +0.000 C 
ATOM      2  O   UNL     1       5.879   5.252  19.807  0.00  0.00    +0.000 OA
ATOM      3  N   UNL     1       4.171   5.956  18.435  0.00  0.00    +0.000 N 
ATOM      4  H   UNL     1       3.840   5.902  17.477  0.00  0.00    +0.000 HD
ENDROOT
BRANCH   3   5
ATOM      5  C   UNL     1       3.200   6.051  19.518  0.00  0.00    +0.000 C 
ATOM      6  C   UNL     1       2.296   7.277  19.366  0.00  0.00    +0.000 C 
BRANCH   5   7
ATOM      7  C   UNL     1       2.372   4.792  19.545  0.00  0.00    +0.000 A 
ATOM      8  C   UNL     1       1.774   4.124  18.493  0.00  0.00    +0.000 A 
ATOM      9  C   UNL     1       1.024   2.992  18.924  0.00  0.00    +0.000 A 
ATOM     10  C   UNL     1       1.073   2.830  20.288  0.00  0.00    +0.000 A 
ATOM     11  S   UNL     1       2.019   4.033  21.045  0.00  0.00    +0.000 S 
ENDBRANCH   5   7
ENDBRANCH   3   5
BRANCH   1  12
ATOM     12  C   UNL     1       6.400   5.517  17.462  0.00  0.00    +0.000 C 
BRANCH  12  15
ATOM     13  C   UNL     1       6.754   4.578  15.229  0.00  0.00    +0.000 C 
ATOM     14  O   UNL     1       7.560   5.460  14.938  0.00  0.00    +0.000 OA
ATOM     15  N   UNL     1       6.092   4.520  16.439  0.00  0.00    +0.000 N 
ATOM     16  C   UNL     1       5.112   3.489  16.748  0.00  0.00    +0.000 C 
BRANCH  13  18
ATOM     17  C   UNL     1       5.783   3.908  13.184  0.00  0.00    +0.000 C 
ATOM     18  O   UNL     1       6.418   3.552  14.409  0.00  0.00    +0.000 OA
ENDBRANCH  13  18
ENDBRANCH  12  15
ENDBRANCH   1  12
TORSDOF 5
ENDMDL
MODEL 9
REMARK VINA RESULT:      -5.9      2.152      2.896
REMARK  Name = 
REMARK  8 active torsions:
REMARK  status: ('A' for Active; 'I' for Inactive)
REMARK    1  A    between atoms: C_1  and  O_2
REMARK    2  A    between atoms: O_2  and  C_3
REMARK    3  A    between atoms: N_5  and  C_6
REMARK    4  A    between atoms: N_5  and  C_7
REMARK    5  A    between atoms: C_7  and  C_8
REMARK    6  A    between atoms: N_10  and  C_11
REMARK    7  A    between atoms: C_11  and  C_12
REMARK    8  A    between atoms: C_11  and  C_13
REMARK                            x       y       z     vdW  Elec       q    Type
REMARK                         _______ _______ _______ _____ _____    ______ ____
ROOT
ATOM      1  C   UNL     1       5.204   4.535  18.728  0.00  0.00    +0.000 C 
ATOM      2  O   UNL     1       5.350   3.753  19.669  0.00  0.00    +0.000 OA
ATOM      3  N   UNL     1       4.201   5.489  18.690  0.00  0.00    +0.000 N 
ATOM      4  H   UNL     1       3.976   5.891  17.785  0.00  0.00    +0.000 HD
ENDROOT
BRANCH   3   5
ATOM      5  C   UNL     1       3.235   5.601  19.777  0.00  0.00    +0.000 C 
ATOM      6  C   UNL     1       2.404   6.881  19.669  0.00  0.00    +0.000 C 
BRANCH   5   7
ATOM      7  C   UNL     1       2.336   4.392  19.759  0.00  0.00    +0.000 A 
ATOM      8  C   UNL     1       1.597   3.875  18.712  0.00  0.00    +0.000 A 
ATOM      9  C   UNL     1       0.823   2.743  19.098  0.00  0.00    +0.000 A 
ATOM     10  C   UNL     1       0.995   2.431  20.426  0.00  0.00    +0.000 A 
ATOM     11  S   UNL     1       2.085   3.492  21.201  0.00  0.00    +0.000 S 
ENDBRANCH   5   7
ENDBRANCH   3   5
BRANCH   1  12
ATOM     12  C   UNL     1       6.174   4.544  17.540  0.00  0.00    +0.000 C 
BRANCH  12  15
ATOM     13  C   UNL     1       7.448   6.633  17.638  0.00  0.00    +0.000 C 
ATOM     14  O   UNL     1       7.996   6.302  18.687  0.00  0.00    +0.000 OA
ATOM     15  N   UNL     1       6.504   5.860  16.993  0.00  0.00    +0.000 N 
ATOM     16  C   UNL     1       5.839   6.289  15.772  0.00  0.00    +0.000 C 
BRANCH  13  18
ATOM     17  C   UNL     1       7.964   8.933  17.791  0.00  0.00    +0.000 C 
ATOM     18  O   UNL     1       7.701   7.792  16.979  0.00  0.00    +0.000 OA
ENDBRANCH  13  18
ENDBRANCH  12  15
ENDBRANCH   1  12
TORSDOF 5
ENDMDL
