MODEL 1
REMARK VINA RESULT:      -7.7      0.000      0.000
REMARK  Name = 
REMARK  11 active torsions:
REMARK  status: ('A' for Active; 'I' for Inactive)
REMARK    1  A    between atoms: C_1  and  O_2
REMARK    2  A    between atoms: O_2  and  C_3
REMARK    3  A    between atoms: C_5  and  O_6
REMARK    4  A    between atoms: O_6  and  C_7
REMARK    5  A    between atoms: C_9  and  C_10
REMARK    6  A    between atoms: C_10  and  C_15
REMARK    7  A    between atoms: C_11  and  C_12
REMARK    8  A    between atoms: C_18  and  O_19
REMARK    9  A    between atoms: O_19  and  C_20
REMARK   10  A    between atoms: C_21  and  O_22
REMARK   11  A    between atoms: O_22  and  C_23
REMARK                            x       y       z     vdW  Elec       q    Type
REMARK                         _______ _______ _______ _____ _____    ______ ____
ROOT
ATOM      1  C   UNL     1       2.448   5.820  19.743  0.00  0.00    +0.000 C 
ATOM      2  C   UNL     1       1.597   5.189  20.579  0.00  0.00    +0.000 C 
ENDROOT
BRANCH   1   7
ATOM      3  C   UNL     1       6.042   5.007  18.902  0.00  0.00    +0.000 A 
ATOM      4  C   UNL     1       5.910   4.574  17.582  0.00  0.00    +0.000 A 
ATOM      5  C   UNL     1       4.645   4.411  17.020  0.00  0.00    +0.000 A 
ATOM      6  C   UNL     1       3.505   4.674  17.786  0.00  0.00    +0.000 A 
ATOM      7  C   UNL     1       3.626   5.216  19.074  0.00  0.00    +0.000 A 
ATOM      8  C   UNL     1       4.903   5.361  19.633  0.00  0.00    +0.000 A 
BRANCH   3  10
ATOM      9  C   UNL     1       8.016   6.277  18.863  0.00  0.00    +0.000 C 
ATOM     10  O   UNL     1       7.326   5.135  19.363  0.00  0.00    +0.000 OA
ENDBRANCH   3  10
BRANCH   5  11
ATOM     11  O   UNL     1       4.628   4.009  15.710  0.00  0.00    +0.000 OA
ATOM     12  C   UNL     1       5.905   3.978  15.078  0.00  0.00    +0.000 C 
ENDBRANCH   5  11
ENDBRANCH   1   7
BRANCH   1  13
ATOM     13  C   UNL     1       2.093   7.246  19.528  0.00  0.00    +0.000 A 
ATOM     14  C   UNL     1       2.298   7.837  18.280  0.00  0.00    +0.000 A 
ATOM     15  C   UNL     1       1.872   9.145  18.056  0.00  0.00    +0.000 A 
ATOM     16  C   UNL     1       1.231   9.887  19.060  0.00  0.00    +0.000 A 
ATOM     17  C   UNL     1       1.034   9.307  20.327  0.00  0.00    +0.000 A 
ATOM     18  C   UNL     1       1.474   7.989  20.547  0.00  0.00    +0.000 A 
BRANCH  16  19
ATOM     19  O   UNL     1       0.861  11.131  18.617  0.00  0.00    +0.000 OA
ATOM     20  C   UNL     1       1.770  12.213  18.750  0.00  0.00    +0.000 C 
ENDBRANCH  16  19
BRANCH  17  21
ATOM     21  O   UNL     1       0.407  10.054  21.287  0.00  0.00    +0.000 OA
ATOM     22  C   UNL     1       0.322   9.538  22.608  0.00  0.00    +0.000 C 
ENDBRANCH  17  21
ENDBRANCH   1  13
BRANCH   2  23
ATOM     23  C   UNL     1       1.616   3.776  21.018  0.00  0.00    +0.000 C 
ATOM     24  N   UNL     1       0.784   2.980  20.286  0.00  0.00    +0.000 N 
ATOM     25  O   UNL     1       2.296   3.340  21.927  0.00  0.00    +0.000 OA
ATOM     26  H   UNL     1       0.217   3.303  19.518  0.00  0.00    +0.000 HD
ATOM     27  H   UNL     1       0.769   1.995  20.514  0.00  0.00    +0.000 HD
ENDBRANCH   2  23
TORSDOF 7
ENDMDL
MODEL 2
REMARK VINA RESULT:      -7.5      1.807      2.952
REMARK  Name = 
REMARK  11 active torsions:
REMARK  status: ('A' for Active; 'I' for Inactive)
REMARK    1  A    between atoms: C_1  and  O_2
REMARK    2  A    between atoms: O_2  and  C_3
REMARK    3  A    between atoms: C_5  and  O_6
REMARK    4  A    between atoms: O_6  and  C_7
REMARK    5  A    between atoms: C_9  and  C_10
REMARK    6  A    between atoms: C_10  and  C_15
REMARK    7  A    between atoms: C_11  and  C_12
REMARK    8  A    between atoms: C_18  and  O_19
REMARK    9  A    between atoms: O_19  and  C_20
REMARK   10  A    between atoms: C_21  and  O_22
REMARK   11  A    between atoms: O_22  and  C_23
REMARK                            x       y       z     vdW  Elec       q    Type
REMARK                         _______ _______ _______ _____ _____    ______ ____
ROOT
ATOM      1  C   UNL     1       3.219   5.824  18.167  0.00  0.00    +0.000 C 
ATOM      2  C   UNL     1       2.379   4.780  18.323  0.00  0.00    +0.000 C 
ENDROOT
BRANCH   1   7
ATOM      3  C   UNL     1       6.113   5.429  15.769  0.00  0.00    +0.000 A 
ATOM      4  C   UNL     1       7.141   5.096  16.651  0.00  0.00    +0.000 A 
ATOM      5  C   UNL     1       6.925   5.143  18.028  0.00  0.00    +0.000 A 
ATOM      6  C   UNL     1       5.678   5.534  18.524  0.00  0.00    +0.000 A 
ATOM      7  C   UNL     1       4.607   5.761  17.648  0.00  0.00    +0.000 A 
ATOM      8  C   UNL     1       4.839   5.725  16.266  0.00  0.00    +0.000 A 
BRANCH   3  10
ATOM      9  C   UNL     1       6.311   4.045  13.883  0.00  0.00    +0.000 C 
ATOM     10  O   UNL     1       6.422   5.353  14.436  0.00  0.00    +0.000 OA
ENDBRANCH   3  10
BRANCH   5  11
ATOM     11  O   UNL     1       7.991   4.771  18.805  0.00  0.00    +0.000 OA
ATOM     12  C   UNL     1       8.168   5.546  19.989  0.00  0.00    +0.000 C 
ENDBRANCH   5  11
ENDBRANCH   1   7
BRANCH   1  13
ATOM     13  C   UNL     1       2.612   7.118  18.573  0.00  0.00    +0.000 A 
ATOM     14  C   UNL     1       2.572   8.184  17.675  0.00  0.00    +0.000 A 
ATOM     15  C   UNL     1       1.915   9.362  18.026  0.00  0.00    +0.000 A 
ATOM     16  C   UNL     1       1.279   9.500  19.270  0.00  0.00    +0.000 A 
ATOM     17  C   UNL     1       1.327   8.437  20.190  0.00  0.00    +0.000 A 
ATOM     18  C   UNL     1       2.000   7.255  19.830  0.00  0.00    +0.000 A 
BRANCH  16  19
ATOM     19  O   UNL     1       0.662  10.718  19.395  0.00  0.00    +0.000 OA
ATOM     20  C   UNL     1      -0.501  10.988  18.626  0.00  0.00    +0.000 C 
ENDBRANCH  16  19
BRANCH  17  21
ATOM     21  O   UNL     1       0.700   8.600  21.396  0.00  0.00    +0.000 OA
ATOM     22  C   UNL     1       1.380   9.293  22.433  0.00  0.00    +0.000 C 
ENDBRANCH  17  21
ENDBRANCH   1  13
BRANCH   2  23
ATOM     23  C   UNL     1       2.617   3.352  18.016  0.00  0.00    +0.000 C 
ATOM     24  N   UNL     1       3.248   2.689  19.029  0.00  0.00    +0.000 N 
ATOM     25  O   UNL     1       2.291   2.799  16.984  0.00  0.00    +0.000 OA
ATOM     26  H   UNL     1       3.520   3.110  19.903  0.00  0.00    +0.000 HD
ATOM     27  H   UNL     1       3.415   1.700  18.898  0.00  0.00    +0.000 HD
ENDBRANCH   2  23
TORSDOF 7
ENDMDL
MODEL 3
REMARK VINA RESULT:      -7.5      1.347      6.328
REMARK  Name = 
REMARK  11 active torsions:
REMARK  status: ('A' for Active; 'I' for Inactive)
REMARK    1  A    between atoms: C_1  and  O_2
REMARK    2  A    between atoms: O_2  and  C_3
REMARK    3  A    between atoms: C_5  and  O_6
REMARK    4  A    between atoms: O_6  and  C_7
REMARK    5  A    between atoms: C_9  and  C_10
REMARK    6  A    between atoms: C_10  and  C_15
REMARK    7  A    between atoms: C_11  and  C_12
REMARK    8  A    between atoms: C_18  and  O_19
REMARK    9  A    between atoms: O_19  and  C_20
REMARK   10  A    between atoms: C_21  and  O_22
REMARK   11  A    between atoms: O_22  and  C_23
REMARK                            x       y       z     vdW  Elec       q    Type
REMARK                         _______ _______ _______ _____ _____    ______ ____
ROOT
ATOM      1  C   UNL     1       3.240   4.984  19.260  0.00  0.00    +0.000 C 
ATOM      2  C   UNL     1       2.995   3.834  19.920  0.00  0.00    +0.000 C 
ENDROOT
BRANCH   1   7
ATOM      3  C   UNL     1       1.896   8.426  18.468  0.00  0.00    +0.000 A 
ATOM      4  C   UNL     1       1.458   8.833  19.729  0.00  0.00    +0.000 A 
ATOM      5  C   UNL     1       1.470   7.938  20.798  0.00  0.00    +0.000 A 
ATOM      6  C   UNL     1       1.911   6.625  20.601  0.00  0.00    +0.000 A 
ATOM      7  C   UNL     1       2.457   6.240  19.369  0.00  0.00    +0.000 A 
ATOM      8  C   UNL     1       2.428   7.144  18.298  0.00  0.00    +0.000 A 
BRANCH   3  10
ATOM      9  C   UNL     1       2.036  10.711  17.948  0.00  0.00    +0.000 C 
ATOM     10  O   UNL     1       1.846   9.378  17.483  0.00  0.00    +0.000 OA
ENDBRANCH   3  10
BRANCH   5  11
ATOM     11  O   UNL     1       1.046   8.446  21.998  0.00  0.00    +0.000 OA
ATOM     12  C   UNL     1       0.752   9.841  21.986  0.00  0.00    +0.000 C 
ENDBRANCH   5  11
ENDBRANCH   1   7
BRANCH   1  13
ATOM     13  C   UNL     1       4.426   4.896  18.369  0.00  0.00    +0.000 A 
ATOM     14  C   UNL     1       4.371   4.125  17.207  0.00  0.00    +0.000 A 
ATOM     15  C   UNL     1       5.450   4.125  16.325  0.00  0.00    +0.000 A 
ATOM     16  C   UNL     1       6.598   4.894  16.575  0.00  0.00    +0.000 A 
ATOM     17  C   UNL     1       6.670   5.662  17.752  0.00  0.00    +0.000 A 
ATOM     18  C   UNL     1       5.580   5.650  18.640  0.00  0.00    +0.000 A 
BRANCH  16  19
ATOM     19  O   UNL     1       7.518   4.780  15.565  0.00  0.00    +0.000 OA
ATOM     20  C   UNL     1       7.072   4.787  14.217  0.00  0.00    +0.000 C 
ENDBRANCH  16  19
BRANCH  17  21
ATOM     21  O   UNL     1       7.802   6.400  17.970  0.00  0.00    +0.000 OA
ATOM     22  C   UNL     1       7.783   7.788  17.667  0.00  0.00    +0.000 C 
ENDBRANCH  17  21
ENDBRANCH   1  13
BRANCH   2  23
ATOM     23  C   UNL     1       1.922   3.543  20.897  0.00  0.00    +0.000 C 
ATOM     24  N   UNL     1       0.712   3.319  20.307  0.00  0.00    +0.000 N 
ATOM     25  O   UNL     1       2.073   3.494  22.102  0.00  0.00    +0.000 OA
ATOM     26  H   UNL     1       0.551   3.336  19.312  0.00  0.00    +0.000 HD
ATOM     27  H   UNL     1      -0.061   3.084  20.915  0.00  0.00    +0.000 HD
ENDBRANCH   2  23
TORSDOF 7
ENDMDL
MODEL 4
REMARK VINA RESULT:      -7.5      1.159      1.164
REMARK  Name = 
REMARK  11 active torsions:
REMARK  status: ('A' for Active; 'I' for Inactive)
REMARK    1  A    between atoms: C_1  and  O_2
REMARK    2  A    between atoms: O_2  and  C_3
REMARK    3  A    between atoms: C_5  and  O_6
REMARK    4  A    between atoms: O_6  and  C_7
REMARK    5  A    between atoms: C_9  and  C_10
REMARK    6  A    between atoms: C_10  and  C_15
REMARK    7  A    between atoms: C_11  and  C_12
REMARK    8  A    between atoms: C_18  and  O_19
REMARK    9  A    between atoms: O_19  and  C_20
REMARK   10  A    between atoms: C_21  and  O_22
REMARK   11  A    between atoms: O_22  and  C_23
REMARK                            x       y       z     vdW  Elec       q    Type
REMARK                         _______ _______ _______ _____ _____    ______ ____
ROOT
ATOM      1  C   UNL     1       2.675   5.278  19.151  0.00  0.00    +0.000 C 
ATOM      2  C   UNL     1       1.775   4.471  19.748  0.00  0.00    +0.000 C 
ENDROOT
BRANCH   1   7
ATOM      3  C   UNL     1       6.357   4.868  18.403  0.00  0.00    +0.000 A 
ATOM      4  C   UNL     1       6.316   4.561  17.043  0.00  0.00    +0.000 A 
ATOM      5  C   UNL     1       5.092   4.348  16.409  0.00  0.00    +0.000 A 
ATOM      6  C   UNL     1       3.905   4.432  17.143  0.00  0.00    +0.000 A 
ATOM      7  C   UNL     1       3.928   4.849  18.481  0.00  0.00    +0.000 A 
ATOM      8  C   UNL     1       5.164   5.047  19.111  0.00  0.00    +0.000 A 
BRANCH   3  10
ATOM      9  C   UNL     1       8.056   6.410  18.900  0.00  0.00    +0.000 C 
ATOM     10  O   UNL     1       7.606   5.059  18.935  0.00  0.00    +0.000 OA
ENDBRANCH   3  10
BRANCH   5  11
ATOM     11  O   UNL     1       5.162   4.081  15.067  0.00  0.00    +0.000 OA
ATOM     12  C   UNL     1       6.469   4.173  14.506  0.00  0.00    +0.000 C 
ENDBRANCH   5  11
ENDBRANCH   1   7
BRANCH   1  13
ATOM     13  C   UNL     1       2.293   6.713  19.212  0.00  0.00    +0.000 A 
ATOM     14  C   UNL     1       2.270   7.481  18.048  0.00  0.00    +0.000 A 
ATOM     15  C   UNL     1       1.816   8.798  18.096  0.00  0.00    +0.000 A 
ATOM     16  C   UNL     1       1.371   9.373  19.297  0.00  0.00    +0.000 A 
ATOM     17  C   UNL     1       1.406   8.613  20.480  0.00  0.00    +0.000 A 
ATOM     18  C   UNL     1       1.872   7.287  20.423  0.00  0.00    +0.000 A 
BRANCH  16  19
ATOM     19  O   UNL     1       0.932  10.659  19.114  0.00  0.00    +0.000 OA
ATOM     20  C   UNL     1      -0.385  10.880  18.632  0.00  0.00    +0.000 C 
ENDBRANCH  16  19
BRANCH  17  21
ATOM     21  O   UNL     1       0.967   9.200  21.636  0.00  0.00    +0.000 OA
ATOM     22  C   UNL     1      -0.378   8.989  22.043  0.00  0.00    +0.000 C 
ENDBRANCH  17  21
ENDBRANCH   1  13
BRANCH   2  23
ATOM     23  C   UNL     1       1.802   2.997  19.876  0.00  0.00    +0.000 C 
ATOM     24  N   UNL     1       2.402   2.573  21.026  0.00  0.00    +0.000 N 
ATOM     25  O   UNL     1       1.341   2.220  19.062  0.00  0.00    +0.000 OA
ATOM     26  H   UNL     1       2.782   3.186  21.730  0.00  0.00    +0.000 HD
ATOM     27  H   UNL     1       2.428   1.576  21.192  0.00  0.00    +0.000 HD
ENDBRANCH   2  23
TORSDOF 7
ENDMDL
MODEL 5
REMARK VINA RESULT:      -7.4      1.781      1.902
REMARK  Name = 
REMARK  11 active torsions:
REMARK  status: ('A' for Active; 'I' for Inactive)
REMARK    1  A    between atoms: C_1  and  O_2
REMARK    2  A    between atoms: O_2  and  C_3
REMARK    3  A    between atoms: C_5  and  O_6
REMARK    4  A    between atoms: O_6  and  C_7
REMARK    5  A    between atoms: C_9  and  C_10
REMARK    6  A    between atoms: C_10  and  C_15
REMARK    7  A    between atoms: C_11  and  C_12
REMARK    8  A    between atoms: C_18  and  O_19
REMARK    9  A    between atoms: O_19  and  C_20
REMARK   10  A    between atoms: C_21  and  O_22
REMARK   11  A    between atoms: O_22  and  C_23
REMARK                            x       y       z     vdW  Elec       q    Type
REMARK                         _______ _______ _______ _____ _____    ______ ____
ROOT
ATOM      1  C   UNL     1       3.072   5.776  18.238  0.00  0.00    +0.000 C 
ATOM      2  C   UNL     1       2.176   4.785  18.426  0.00  0.00    +0.000 C 
ENDROOT
BRANCH   1   7
ATOM      3  C   UNL     1       6.839   6.004  18.047  0.00  0.00    +0.000 A 
ATOM      4  C   UNL     1       7.042   5.856  16.675  0.00  0.00    +0.000 A 
ATOM      5  C   UNL     1       5.972   5.541  15.838  0.00  0.00    +0.000 A 
ATOM      6  C   UNL     1       4.695   5.362  16.380  0.00  0.00    +0.000 A 
ATOM      7  C   UNL     1       4.460   5.618  17.738  0.00  0.00    +0.000 A 
ATOM      8  C   UNL     1       5.545   5.920  18.571  0.00  0.00    +0.000 A 
BRANCH   3  10
ATOM      9  C   UNL     1       8.104   5.534  19.968  0.00  0.00    +0.000 C 
ATOM     10  O   UNL     1       7.952   6.313  18.785  0.00  0.00    +0.000 OA
ENDBRANCH   3  10
BRANCH   5  11
ATOM     11  O   UNL     1       6.273   5.446  14.505  0.00  0.00    +0.000 OA
ATOM     12  C   UNL     1       6.374   4.114  14.007  0.00  0.00    +0.000 C 
ENDBRANCH   5  11
ENDBRANCH   1   7
BRANCH   1  13
ATOM     13  C   UNL     1       2.531   7.116  18.584  0.00  0.00    +0.000 A 
ATOM     14  C   UNL     1       2.398   8.092  17.597  0.00  0.00    +0.000 A 
ATOM     15  C   UNL     1       1.799   9.312  17.906  0.00  0.00    +0.000 A 
ATOM     16  C   UNL     1       1.315   9.582  19.196  0.00  0.00    +0.000 A 
ATOM     17  C   UNL     1       1.460   8.610  20.203  0.00  0.00    +0.000 A 
ATOM     18  C   UNL     1       2.072   7.385  19.884  0.00  0.00    +0.000 A 
BRANCH  16  19
ATOM     19  O   UNL     1       0.730  10.820  19.272  0.00  0.00    +0.000 OA
ATOM     20  C   UNL     1      -0.637  10.963  18.916  0.00  0.00    +0.000 C 
ENDBRANCH  16  19
BRANCH  17  21
ATOM     21  O   UNL     1       0.980   8.902  21.452  0.00  0.00    +0.000 OA
ATOM     22  C   UNL     1      -0.360   8.552  21.769  0.00  0.00    +0.000 C 
ENDBRANCH  17  21
ENDBRANCH   1  13
BRANCH   2  23
ATOM     23  C   UNL     1       2.341   3.335  18.181  0.00  0.00    +0.000 C 
ATOM     24  N   UNL     1       2.614   2.631  19.317  0.00  0.00    +0.000 N 
ATOM     25  O   UNL     1       2.242   2.798  17.094  0.00  0.00    +0.000 OA
ATOM     26  H   UNL     1       2.689   3.038  20.236  0.00  0.00    +0.000 HD
ATOM     27  H   UNL     1       2.710   1.628  19.226  0.00  0.00    +0.000 HD
ENDBRANCH   2  23
TORSDOF 7
ENDMDL
MODEL 6
REMARK VINA RESULT:      -7.3      1.397      1.483
REMARK  Name = 
REMARK  11 active torsions:
REMARK  status: ('A' for Active; 'I' for Inactive)
REMARK    1  A    between atoms: C_1  and  O_2
REMARK    2  A    between atoms: O_2  and  C_3
REMARK    3  A    between atoms: C_5  and  O_6
REMARK    4  A    between atoms: O_6  and  C_7
REMARK    5  A    between atoms: C_9  and  C_10
REMARK    6  A    between atoms: C_10  and  C_15
REMARK    7  A    between atoms: C_11  and  C_12
REMARK    8  A    between atoms: C_18  and  O_19
REMARK    9  A    between atoms: O_19  and  C_20
REMARK   10  A    between atoms: C_21  and  O_22
REMARK   11  A    between atoms: O_22  and  C_23
REMARK                            x       y       z     vdW  Elec       q    Type
REMARK                         _______ _______ _______ _____ _____    ______ ____
ROOT
ATOM      1  C   UNL     1       3.003   5.564  18.730  0.00  0.00    +0.000 C 
ATOM      2  C   UNL     1       2.218   4.625  19.297  0.00  0.00    +0.000 C 
ENDROOT
BRANCH   1   7
ATOM      3  C   UNL     1       6.601   5.923  17.629  0.00  0.00    +0.000 A 
ATOM      4  C   UNL     1       6.552   5.318  16.373  0.00  0.00    +0.000 A 
ATOM      5  C   UNL     1       5.392   4.671  15.951  0.00  0.00    +0.000 A 
ATOM      6  C   UNL     1       4.277   4.620  16.795  0.00  0.00    +0.000 A 
ATOM      7  C   UNL     1       4.277   5.320  18.010  0.00  0.00    +0.000 A 
ATOM      8  C   UNL     1       5.454   5.954  18.430  0.00  0.00    +0.000 A 
BRANCH   3  10
ATOM      9  C   UNL     1       7.811   7.933  17.697  0.00  0.00    +0.000 C 
ATOM     10  O   UNL     1       7.785   6.532  17.954  0.00  0.00    +0.000 OA
ENDBRANCH   3  10
BRANCH   5  11
ATOM     11  O   UNL     1       5.440   4.135  14.691  0.00  0.00    +0.000 OA
ATOM     12  C   UNL     1       6.628   4.431  13.960  0.00  0.00    +0.000 C 
ENDBRANCH   5  11
ENDBRANCH   1   7
BRANCH   1  13
ATOM     13  C   UNL     1       2.463   6.939  18.885  0.00  0.00    +0.000 A 
ATOM     14  C   UNL     1       2.335   7.769  17.771  0.00  0.00    +0.000 A 
ATOM     15  C   UNL     1       1.736   9.021  17.906  0.00  0.00    +0.000 A 
ATOM     16  C   UNL     1       1.248   9.467  19.144  0.00  0.00    +0.000 A 
ATOM     17  C   UNL     1       1.387   8.644  20.277  0.00  0.00    +0.000 A 
ATOM     18  C   UNL     1       1.999   7.386  20.133  0.00  0.00    +0.000 A 
BRANCH  16  19
ATOM     19  O   UNL     1       0.664  10.704  19.046  0.00  0.00    +0.000 OA
ATOM     20  C   UNL     1      -0.714  10.796  18.716  0.00  0.00    +0.000 C 
ENDBRANCH  16  19
BRANCH  17  21
ATOM     21  O   UNL     1       0.903   9.106  21.472  0.00  0.00    +0.000 OA
ATOM     22  C   UNL     1      -0.406   8.727  21.872  0.00  0.00    +0.000 C 
ENDBRANCH  17  21
ENDBRANCH   1  13
BRANCH   2  23
ATOM     23  C   UNL     1       2.415   3.159  19.336  0.00  0.00    +0.000 C 
ATOM     24  N   UNL     1       1.613   2.491  18.458  0.00  0.00    +0.000 N 
ATOM     25  O   UNL     1       3.206   2.583  20.058  0.00  0.00    +0.000 OA
ATOM     26  H   UNL     1       0.957   2.934  17.834  0.00  0.00    +0.000 HD
ATOM     27  H   UNL     1       1.717   1.486  18.411  0.00  0.00    +0.000 HD
ENDBRANCH   2  23
TORSDOF 7
ENDMDL
MODEL 7
REMARK VINA RESULT:      -7.3      1.895      2.982
REMARK  Name = 
REMARK  11 active torsions:
REMARK  status: ('A' for Active; 'I' for Inactive)
REMARK    1  A    between atoms: C_1  and  O_2
REMARK    2  A    between atoms: O_2  and  C_3
REMARK    3  A    between atoms: C_5  and  O_6
REMARK    4  A    between atoms: O_6  and  C_7
REMARK    5  A    between atoms: C_9  and  C_10
REMARK    6  A    between atoms: C_10  and  C_15
REMARK    7  A    between atoms: C_11  and  C_12
REMARK    8  A    between atoms: C_18  and  O_19
REMARK    9  A    between atoms: O_19  and  C_20
REMARK   10  A    between atoms: C_21  and  O_22
REMARK   11  A    between atoms: O_22  and  C_23
REMARK                            x       y       z     vdW  Elec       q    Type
REMARK                         _______ _______ _______ _____ _____    ______ ____
ROOT
ATOM      1  C   UNL     1       3.442   5.817  18.420  0.00  0.00    +0.000 C 
ATOM      2  C   UNL     1       3.025   4.785  19.182  0.00  0.00    +0.000 C 
ENDROOT
BRANCH   1   7
ATOM      3  C   UNL     1       5.654   4.539  15.635  0.00  0.00    +0.000 A 
ATOM      4  C   UNL     1       6.782   5.343  15.806  0.00  0.00    +0.000 A 
ATOM      5  C   UNL     1       6.764   6.389  16.728  0.00  0.00    +0.000 A 
ATOM      6  C   UNL     1       5.608   6.638  17.475  0.00  0.00    +0.000 A 
ATOM      7  C   UNL     1       4.511   5.769  17.392  0.00  0.00    +0.000 A 
ATOM      8  C   UNL     1       4.535   4.730  16.452  0.00  0.00    +0.000 A 
BRANCH   3  10
ATOM      9  C   UNL     1       6.434   3.928  13.507  0.00  0.00    +0.000 C 
ATOM     10  O   UNL     1       5.770   3.538  14.705  0.00  0.00    +0.000 OA
ENDBRANCH   3  10
BRANCH   5  11
ATOM     11  O   UNL     1       7.931   7.098  16.838  0.00  0.00    +0.000 OA
ATOM     12  C   UNL     1       7.856   8.245  17.681  0.00  0.00    +0.000 C 
ENDBRANCH   5  11
ENDBRANCH   1   7
BRANCH   1  13
ATOM     13  C   UNL     1       2.704   7.076  18.700  0.00  0.00    +0.000 A 
ATOM     14  C   UNL     1       2.419   7.964  17.663  0.00  0.00    +0.000 A 
ATOM     15  C   UNL     1       1.642   9.094  17.913  0.00  0.00    +0.000 A 
ATOM     16  C   UNL     1       1.130   9.358  19.193  0.00  0.00    +0.000 A 
ATOM     17  C   UNL     1       1.426   8.478  20.250  0.00  0.00    +0.000 A 
ATOM     18  C   UNL     1       2.216   7.344  19.990  0.00  0.00    +0.000 A 
BRANCH  16  19
ATOM     19  O   UNL     1       0.363  10.495  19.210  0.00  0.00    +0.000 OA
ATOM     20  C   UNL     1      -0.949  10.454  18.667  0.00  0.00    +0.000 C 
ENDBRANCH  16  19
BRANCH  17  21
ATOM     21  O   UNL     1       0.914   8.762  21.487  0.00  0.00    +0.000 OA
ATOM     22  C   UNL     1      -0.423   8.381  21.779  0.00  0.00    +0.000 C 
ENDBRANCH  17  21
ENDBRANCH   1  13
BRANCH   2  23
ATOM     23  C   UNL     1       3.505   3.385  19.181  0.00  0.00    +0.000 C 
ATOM     24  N   UNL     1       4.734   3.244  19.755  0.00  0.00    +0.000 N 
ATOM     25  O   UNL     1       2.889   2.439  18.729  0.00  0.00    +0.000 OA
ATOM     26  H   UNL     1       5.268   4.001  20.153  0.00  0.00    +0.000 HD
ATOM     27  H   UNL     1       5.111   2.307  19.815  0.00  0.00    +0.000 HD
ENDBRANCH   2  23
TORSDOF 7
ENDMDL
MODEL 8
REMARK VINA RESULT:      -7.2      1.401      2.746
REMARK  Name = 
REMARK  11 active torsions:
REMARK  status: ('A' for Active; 'I' for Inactive)
REMARK    1  A    between atoms: C_1  and  O_2
REMARK    2  A    between atoms: O_2  and  C_3
REMARK    3  A    between atoms: C_5  and  O_6
REMARK    4  A    between atoms: O_6  and  C_7
REMARK    5  A    between atoms: C_9  and  C_10
REMARK    6  A    between atoms: C_10  and  C_15
REMARK    7  A    between atoms: C_11  and  C_12
REMARK    8  A    between atoms: C_18  and  O_19
REMARK    9  A    between atoms: O_19  and  C_20
REMARK   10  A    between atoms: C_21  and  O_22
REMARK   11  A    between atoms: O_22  and  C_23
REMARK                            x       y       z     vdW  Elec       q    Type
REMARK                         _______ _______ _______ _____ _____    ______ ____
ROOT
ATOM      1  C   UNL     1       3.323   5.353  18.472  0.00  0.00    +0.000 C 
ATOM      2  C   UNL     1       2.537   4.362  18.941  0.00  0.00    +0.000 C 
ENDROOT
BRANCH   1   7
ATOM      3  C   UNL     1       5.934   4.264  15.966  0.00  0.00    +0.000 A 
ATOM      4  C   UNL     1       7.092   4.355  16.737  0.00  0.00    +0.000 A 
ATOM      5  C   UNL     1       7.040   4.905  18.018  0.00  0.00    +0.000 A 
ATOM      6  C   UNL     1       5.824   5.375  18.524  0.00  0.00    +0.000 A 
ATOM      7  C   UNL     1       4.637   5.185  17.803  0.00  0.00    +0.000 A 
ATOM      8  C   UNL     1       4.704   4.645  16.512  0.00  0.00    +0.000 A 
BRANCH   3  10
ATOM      9  C   UNL     1       6.723   4.565  13.775  0.00  0.00    +0.000 C 
ATOM     10  O   UNL     1       6.087   3.710  14.721  0.00  0.00    +0.000 OA
ENDBRANCH   3  10
BRANCH   5  11
ATOM     11  O   UNL     1       8.228   4.922  18.701  0.00  0.00    +0.000 OA
ATOM     12  C   UNL     1       8.159   5.494  20.005  0.00  0.00    +0.000 C 
ENDBRANCH   5  11
ENDBRANCH   1   7
BRANCH   1  13
ATOM     13  C   UNL     1       2.738   6.702  18.684  0.00  0.00    +0.000 A 
ATOM     14  C   UNL     1       2.615   7.587  17.613  0.00  0.00    +0.000 A 
ATOM     15  C   UNL     1       1.976   8.812  17.797  0.00  0.00    +0.000 A 
ATOM     16  C   UNL     1       1.443   9.178  19.043  0.00  0.00    +0.000 A 
ATOM     17  C   UNL     1       1.577   8.300  20.134  0.00  0.00    +0.000 A 
ATOM     18  C   UNL     1       2.230   7.069  19.941  0.00  0.00    +0.000 A 
BRANCH  16  19
ATOM     19  O   UNL     1       0.826  10.401  18.994  0.00  0.00    +0.000 OA
ATOM     20  C   UNL     1       1.594  11.554  18.683  0.00  0.00    +0.000 C 
ENDBRANCH  16  19
BRANCH  17  21
ATOM     21  O   UNL     1       1.049   8.683  21.338  0.00  0.00    +0.000 OA
ATOM     22  C   UNL     1      -0.328   8.440  21.589  0.00  0.00    +0.000 C 
ENDBRANCH  17  21
ENDBRANCH   1  13
BRANCH   2  23
ATOM     23  C   UNL     1       2.772   2.901  18.899  0.00  0.00    +0.000 C 
ATOM     24  N   UNL     1       1.953   2.256  18.019  0.00  0.00    +0.000 N 
ATOM     25  O   UNL     1       3.604   2.312  19.561  0.00  0.00    +0.000 OA
ATOM     26  H   UNL     1       1.263   2.711  17.443  0.00  0.00    +0.000 HD
ATOM     27  H   UNL     1       2.080   1.258  17.918  0.00  0.00    +0.000 HD
ENDBRANCH   2  23
TORSDOF 7
ENDMDL
MODEL 9
REMARK VINA RESULT:      -7.2      1.877      2.926
REMARK  Name = 
REMARK  11 active torsions:
REMARK  status: ('A' for Active; 'I' for Inactive)
REMARK    1  A    between atoms: C_1  and  O_2
REMARK    2  A    between atoms: O_2  and  C_3
REMARK    3  A    between atoms: C_5  and  O_6
REMARK    4  A    between atoms: O_6  and  C_7
REMARK    5  A    between atoms: C_9  and  C_10
REMARK    6  A    between atoms: C_10  and  C_15
REMARK    7  A    between atoms: C_11  and  C_12
REMARK    8  A    between atoms: C_18  and  O_19
REMARK    9  A    between atoms: O_19  and  C_20
REMARK   10  A    between atoms: C_21  and  O_22
REMARK   11  A    between atoms: O_22  and  C_23
REMARK                            x       y       z     vdW  Elec       q    Type
REMARK                         _______ _______ _______ _____ _____    ______ ____
ROOT
ATOM      1  C   UNL     1       3.691   4.573  18.787  0.00  0.00    +0.000 C 
ATOM      2  C   UNL     1       3.367   3.426  19.418  0.00  0.00    +0.000 C 
ENDROOT
BRANCH   1   7
ATOM      3  C   UNL     1       6.614   5.971  16.842  0.00  0.00    +0.000 A 
ATOM      4  C   UNL     1       6.359   5.449  15.573  0.00  0.00    +0.000 A 
ATOM      5  C   UNL     1       5.324   4.534  15.387  0.00  0.00    +0.000 A 
ATOM      6  C   UNL     1       4.548   4.130  16.479  0.00  0.00    +0.000 A 
ATOM      7  C   UNL     1       4.723   4.731  17.733  0.00  0.00    +0.000 A 
ATOM      8  C   UNL     1       5.775   5.640  17.911  0.00  0.00    +0.000 A 
BRANCH   3  10
ATOM      9  C   UNL     1       8.054   7.173  18.254  0.00  0.00    +0.000 C 
ATOM     10  O   UNL     1       7.652   6.863  16.923  0.00  0.00    +0.000 OA
ENDBRANCH   3  10
BRANCH   5  11
ATOM     11  O   UNL     1       5.140   4.105  14.099  0.00  0.00    +0.000 OA
ATOM     12  C   UNL     1       6.342   3.889  13.363  0.00  0.00    +0.000 C 
ENDBRANCH   5  11
ENDBRANCH   1   7
BRANCH   1  13
ATOM     13  C   UNL     1       2.886   5.733  19.250  0.00  0.00    +0.000 A 
ATOM     14  C   UNL     1       2.262   5.698  20.497  0.00  0.00    +0.000 A 
ATOM     15  C   UNL     1       1.591   6.826  20.968  0.00  0.00    +0.000 A 
ATOM     16  C   UNL     1       1.534   8.008  20.214  0.00  0.00    +0.000 A 
ATOM     17  C   UNL     1       2.145   8.049  18.948  0.00  0.00    +0.000 A 
ATOM     18  C   UNL     1       2.814   6.905  18.477  0.00  0.00    +0.000 A 
BRANCH  16  19
ATOM     19  O   UNL     1       0.862   9.003  20.877  0.00  0.00    +0.000 OA
ATOM     20  C   UNL     1      -0.325   8.684  21.588  0.00  0.00    +0.000 C 
ENDBRANCH  16  19
BRANCH  17  21
ATOM     21  O   UNL     1       2.072   9.216  18.235  0.00  0.00    +0.000 OA
ATOM     22  C   UNL     1       0.796   9.692  17.832  0.00  0.00    +0.000 C 
ENDBRANCH  17  21
ENDBRANCH   1  13
BRANCH   2  23
ATOM     23  C   UNL     1       3.934   2.074  19.219  0.00  0.00    +0.000 C 
ATOM     24  N   UNL     1       5.004   1.822  20.026  0.00  0.00    +0.000 N 
ATOM     25  O   UNL     1       3.507   1.250  18.433  0.00  0.00    +0.000 OA
ATOM     26  H   UNL     1       5.377   2.473  20.700  0.00  0.00    +0.000 HD
ATOM     27  H   UNL     1       5.423   0.903  19.964  0.00  0.00    +0.000 HD
ENDBRANCH   2  23
TORSDOF 7
ENDMDL
