MODEL 1
REMARK VINA RESULT:      -8.9      0.000      0.000
REMARK  Name = 
REMARK  6 active torsions:
REMARK  status: ('A' for Active; 'I' for Inactive)
REMARK    1  A    between atoms: C_2  and  C_25
REMARK    2  A    between atoms: N_3  and  C_4
REMARK    3  A    between atoms: C_4  and  C_5
REMARK    4  A    between atoms: C_8  and  S_9
REMARK    5  A    between atoms: S_9  and  N_12
REMARK    6  A    between atoms: C_15  and  N_16
REMARK                            x       y       z     vdW  Elec       q    Type
REMARK                         _______ _______ _______ _____ _____    ______ ____
ROOT
ATOM      1  C   UNL     1       8.288   8.151  18.619  0.00  0.00    +0.000 A 
ATOM      2  C   UNL     1       8.262   6.783  18.926  0.00  0.00    +0.000 A 
ATOM      3  C   UNL     1       7.515   5.887  18.145  0.00  0.00    +0.000 A 
ATOM      4  C   UNL     1       6.776   6.355  17.052  0.00  0.00    +0.000 A 
ATOM      5  C   UNL     1       6.861   7.702  16.689  0.00  0.00    +0.000 A 
ATOM      6  C   UNL     1       7.606   8.594  17.474  0.00  0.00    +0.000 A 
ENDROOT
BRANCH   4   7
ATOM      7  S   UNL     1       5.892   5.193  16.008  0.00  0.00    +0.000 S 
ATOM      8  O   UNL     1       5.795   5.798  14.691  0.00  0.00    +0.000 OA
ATOM      9  O   UNL     1       6.533   3.906  16.180  0.00  0.00    +0.000 OA
BRANCH   7  10
ATOM     10  N   UNL     1       4.302   5.080  16.655  0.00  0.00    +0.000 NA
ATOM     11  C   UNL     1       3.812   3.707  16.906  0.00  0.00    +0.000 C 
ATOM     12  C   UNL     1       2.381   3.666  17.432  0.00  0.00    +0.000 C 
ATOM     13  C   UNL     1       2.154   4.559  18.669  0.00  0.00    +0.000 C 
ATOM     14  C   UNL     1       2.519   5.979  18.190  0.00  0.00    +0.000 C 
ATOM     15  C   UNL     1       3.933   6.123  17.637  0.00  0.00    +0.000 C 
BRANCH  13  16
ATOM     16  N   UNL     1       2.867   4.091  19.888  0.00  0.00    +0.000 NA
ATOM     17  C   UNL     1       2.942   2.613  19.978  0.00  0.00    +0.000 C 
ATOM     18  C   UNL     1       1.682   2.184  20.703  0.00  0.00    +0.000 C 
ATOM     19  C   UNL     1       1.558   3.240  21.774  0.00  0.00    +0.000 C 
ATOM     20  C   UNL     1       2.202   4.483  21.158  0.00  0.00    +0.000 C 
ENDBRANCH  13  16
ENDBRANCH   7  10
ENDBRANCH   4   7
BRANCH   1  21
ATOM     21  C   UNL     1       9.051   9.128  19.483  0.00  0.00    +0.000 C 
BRANCH  21  24
ATOM     22  O   UNL     1       9.857  11.556  20.650  0.00  0.00    +0.000 OA
ATOM     23  C   UNL     1       9.761  11.479  19.435  0.00  0.00    +0.000 C 
ATOM     24  N   UNL     1       9.376  10.336  18.763  0.00  0.00    +0.000 N 
ATOM     25  H   UNL     1       9.547  10.257  17.770  0.00  0.00    +0.000 HD
BRANCH  23  26
ATOM     26  C   UNL     1      10.100  12.643  18.583  0.00  0.00    +0.000 A 
ATOM     27  C   UNL     1      10.871  12.444  17.435  0.00  0.00    +0.000 A 
ATOM     28  N   UNL     1      11.241  13.408  16.552  0.00  0.00    +0.000 NA
ATOM     29  C   UNL     1      10.808  14.630  16.911  0.00  0.00    +0.000 A 
ATOM     30  N   UNL     1      11.014  15.799  16.233  0.00  0.00    +0.000 N 
ATOM     31  N   UNL     1      10.469  16.880  16.834  0.00  0.00    +0.000 NA
ATOM     32  C   UNL     1       9.901  16.369  17.931  0.00  0.00    +0.000 A 
ATOM     33  C   UNL     1      10.063  14.970  18.033  0.00  0.00    +0.000 A 
ATOM     34  C   UNL     1       9.698  13.943  18.917  0.00  0.00    +0.000 A 
ATOM     35  H   UNL     1      11.520  15.916  15.364  0.00  0.00    +0.000 HD
ENDBRANCH  23  26
ENDBRANCH  21  24
ENDBRANCH   1  21
TORSDOF 6
ENDMDL
MODEL 2
REMARK VINA RESULT:      -8.8      6.114      9.527
REMARK  Name = 
REMARK  6 active torsions:
REMARK  status: ('A' for Active; 'I' for Inactive)
REMARK    1  A    between atoms: C_2  and  C_25
REMARK    2  A    between atoms: N_3  and  C_4
REMARK    3  A    between atoms: C_4  and  C_5
REMARK    4  A    between atoms: C_8  and  S_9
REMARK    5  A    between atoms: S_9  and  N_12
REMARK    6  A    between atoms: C_15  and  N_16
REMARK                            x       y       z     vdW  Elec       q    Type
REMARK                         _______ _______ _______ _____ _____    ______ ____
ROOT
ATOM      1  C   UNL     1       2.294   6.184  19.691  0.00  0.00    +0.000 A 
ATOM      2  C   UNL     1       1.519   6.290  20.855  0.00  0.00    +0.000 A 
ATOM      3  C   UNL     1       0.987   7.527  21.251  0.00  0.00    +0.000 A 
ATOM      4  C   UNL     1       1.235   8.675  20.488  0.00  0.00    +0.000 A 
ATOM      5  C   UNL     1       1.935   8.564  19.283  0.00  0.00    +0.000 A 
ATOM      6  C   UNL     1       2.468   7.327  18.894  0.00  0.00    +0.000 A 
ENDROOT
BRANCH   4   7
ATOM      7  S   UNL     1       0.480  10.237  20.953  0.00  0.00    +0.000 S 
ATOM      8  O   UNL     1      -0.511   9.939  21.972  0.00  0.00    +0.000 OA
ATOM      9  O   UNL     1       1.563  11.158  21.226  0.00  0.00    +0.000 OA
BRANCH   7  10
ATOM     10  N   UNL     1      -0.351  10.801  19.556  0.00  0.00    +0.000 NA
ATOM     11  C   UNL     1      -1.097   9.771  18.799  0.00  0.00    +0.000 C 
ATOM     12  C   UNL     1      -1.772  10.319  17.545  0.00  0.00    +0.000 C 
ATOM     13  C   UNL     1      -2.662  11.549  17.812  0.00  0.00    +0.000 C 
ATOM     14  C   UNL     1      -1.703  12.594  18.415  0.00  0.00    +0.000 C 
ATOM     15  C   UNL     1      -0.971  12.139  19.674  0.00  0.00    +0.000 C 
BRANCH  13  16
ATOM     16  N   UNL     1      -3.875  11.250  18.622  0.00  0.00    +0.000 NA
ATOM     17  C   UNL     1      -5.024  10.812  17.794  0.00  0.00    +0.000 C 
ATOM     18  C   UNL     1      -5.753  12.083  17.403  0.00  0.00    +0.000 C 
ATOM     19  C   UNL     1      -5.694  12.886  18.681  0.00  0.00    +0.000 C 
ATOM     20  C   UNL     1      -4.405  12.424  19.361  0.00  0.00    +0.000 C 
ENDBRANCH  13  16
ENDBRANCH   7  10
ENDBRANCH   4   7
BRANCH   1  21
ATOM     21  C   UNL     1       2.911   4.865  19.285  0.00  0.00    +0.000 C 
BRANCH  21  24
ATOM     22  O   UNL     1       5.550   3.941  18.987  0.00  0.00    +0.000 OA
ATOM     23  C   UNL     1       5.005   4.507  18.052  0.00  0.00    +0.000 C 
ATOM     24  N   UNL     1       3.715   4.997  18.093  0.00  0.00    +0.000 N 
ATOM     25  H   UNL     1       3.240   5.230  17.232  0.00  0.00    +0.000 HD
BRANCH  23  26
ATOM     26  C   UNL     1       5.716   4.674  16.762  0.00  0.00    +0.000 A 
ATOM     27  C   UNL     1       6.740   5.618  16.668  0.00  0.00    +0.000 A 
ATOM     28  N   UNL     1       7.490   5.869  15.563  0.00  0.00    +0.000 NA
ATOM     29  C   UNL     1       7.122   5.116  14.510  0.00  0.00    +0.000 A 
ATOM     30  N   UNL     1       7.681   5.131  13.263  0.00  0.00    +0.000 N 
ATOM     31  N   UNL     1       7.102   4.271  12.396  0.00  0.00    +0.000 NA
ATOM     32  C   UNL     1       6.142   3.697  13.128  0.00  0.00    +0.000 A 
ATOM     33  C   UNL     1       6.109   4.167  14.458  0.00  0.00    +0.000 A 
ATOM     34  C   UNL     1       5.363   3.937  15.625  0.00  0.00    +0.000 A 
ATOM     35  H   UNL     1       8.452   5.708  12.950  0.00  0.00    +0.000 HD
ENDBRANCH  23  26
ENDBRANCH  21  24
ENDBRANCH   1  21
TORSDOF 6
ENDMDL
MODEL 3
REMARK VINA RESULT:      -8.7      7.283     10.318
REMARK  Name = 
REMARK  6 active torsions:
REMARK  status: ('A' for Active; 'I' for Inactive)
REMARK    1  A    between atoms: C_2  and  C_25
REMARK    2  A    between atoms: N_3  and  C_4
REMARK    3  A    between atoms: C_4  and  C_5
REMARK    4  A    between atoms: C_8  and  S_9
REMARK    5  A    between atoms: S_9  and  N_12
REMARK    6  A    between atoms: C_15  and  N_16
REMARK                            x       y       z     vdW  Elec       q    Type
REMARK                         _______ _______ _______ _____ _____    ______ ____
ROOT
ATOM      1  C   UNL     1       1.847   7.630  19.735  0.00  0.00    +0.000 A 
ATOM      2  C   UNL     1       1.896   8.542  18.670  0.00  0.00    +0.000 A 
ATOM      3  C   UNL     1       1.458   9.865  18.839  0.00  0.00    +0.000 A 
ATOM      4  C   UNL     1       0.956  10.286  20.076  0.00  0.00    +0.000 A 
ATOM      5  C   UNL     1       0.981   9.410  21.165  0.00  0.00    +0.000 A 
ATOM      6  C   UNL     1       1.415   8.088  20.991  0.00  0.00    +0.000 A 
ENDROOT
BRANCH   4   7
ATOM      7  S   UNL     1       0.479  12.001  20.309  0.00  0.00    +0.000 S 
ATOM      8  O   UNL     1       1.401  12.568  21.277  0.00  0.00    +0.000 OA
ATOM      9  O   UNL     1       0.350  12.581  18.988  0.00  0.00    +0.000 OA
BRANCH   7  10
ATOM     10  N   UNL     1      -1.086  11.970  21.025  0.00  0.00    +0.000 NA
ATOM     11  C   UNL     1      -1.118  12.149  22.493  0.00  0.00    +0.000 C 
ATOM     12  C   UNL     1      -2.524  12.062  23.077  0.00  0.00    +0.000 C 
ATOM     13  C   UNL     1      -3.536  13.003  22.392  0.00  0.00    +0.000 C 
ATOM     14  C   UNL     1      -3.531  12.562  20.915  0.00  0.00    +0.000 C 
ATOM     15  C   UNL     1      -2.165  12.607  20.239  0.00  0.00    +0.000 C 
BRANCH  13  16
ATOM     16  N   UNL     1      -3.269  14.448  22.630  0.00  0.00    +0.000 NA
ATOM     17  C   UNL     1      -3.661  14.888  23.991  0.00  0.00    +0.000 C 
ATOM     18  C   UNL     1      -5.116  15.302  23.882  0.00  0.00    +0.000 C 
ATOM     19  C   UNL     1      -5.140  16.025  22.557  0.00  0.00    +0.000 C 
ATOM     20  C   UNL     1      -4.039  15.353  21.737  0.00  0.00    +0.000 C 
ENDBRANCH  13  16
ENDBRANCH   7  10
ENDBRANCH   4   7
BRANCH   1  21
ATOM     21  C   UNL     1       2.271   6.192  19.547  0.00  0.00    +0.000 C 
BRANCH  21  24
ATOM     22  O   UNL     1       4.969   5.422  19.741  0.00  0.00    +0.000 OA
ATOM     23  C   UNL     1       4.492   5.661  18.642  0.00  0.00    +0.000 C 
ATOM     24  N   UNL     1       3.181   6.045  18.437  0.00  0.00    +0.000 N 
ATOM     25  H   UNL     1       2.784   5.992  17.509  0.00  0.00    +0.000 HD
BRANCH  23  26
ATOM     26  C   UNL     1       5.317   5.514  17.420  0.00  0.00    +0.000 A 
ATOM     27  C   UNL     1       6.545   6.176  17.345  0.00  0.00    +0.000 A 
ATOM     28  N   UNL     1       7.415   6.120  16.303  0.00  0.00    +0.000 NA
ATOM     29  C   UNL     1       6.956   5.363  15.289  0.00  0.00    +0.000 A 
ATOM     30  N   UNL     1       7.595   5.109  14.109  0.00  0.00    +0.000 N 
ATOM     31  N   UNL     1       6.891   4.318  13.268  0.00  0.00    +0.000 NA
ATOM     32  C   UNL     1       5.768   4.069  13.948  0.00  0.00    +0.000 A 
ATOM     33  C   UNL     1       5.750   4.678  15.221  0.00  0.00    +0.000 A 
ATOM     34  C   UNL     1       4.883   4.760  16.323  0.00  0.00    +0.000 A 
ATOM     35  H   UNL     1       8.504   5.452  13.824  0.00  0.00    +0.000 HD
ENDBRANCH  23  26
ENDBRANCH  21  24
ENDBRANCH   1  21
TORSDOF 6
ENDMDL
MODEL 4
REMARK VINA RESULT:      -8.7      7.839     10.972
REMARK  Name = 
REMARK  6 active torsions:
REMARK  status: ('A' for Active; 'I' for Inactive)
REMARK    1  A    between atoms: C_2  and  C_25
REMARK    2  A    between atoms: N_3  and  C_4
REMARK    3  A    between atoms: C_4  and  C_5
REMARK    4  A    between atoms: C_8  and  S_9
REMARK    5  A    between atoms: S_9  and  N_12
REMARK    6  A    between atoms: C_15  and  N_16
REMARK                            x       y       z     vdW  Elec       q    Type
REMARK                         _______ _______ _______ _____ _____    ______ ____
ROOT
ATOM      1  C   UNL     1       1.197   8.107  20.872  0.00  0.00    +0.000 A 
ATOM      2  C   UNL     1       0.807   8.745  22.059  0.00  0.00    +0.000 A 
ATOM      3  C   UNL     1       0.556  10.125  22.081  0.00  0.00    +0.000 A 
ATOM      4  C   UNL     1       0.703  10.885  20.915  0.00  0.00    +0.000 A 
ATOM      5  C   UNL     1       1.009  10.246  19.710  0.00  0.00    +0.000 A 
ATOM      6  C   UNL     1       1.262   8.867  19.693  0.00  0.00    +0.000 A 
ENDROOT
BRANCH   4   7
ATOM      7  S   UNL     1       0.297  12.634  20.930  0.00  0.00    +0.000 S 
ATOM      8  O   UNL     1       1.532  13.351  21.194  0.00  0.00    +0.000 OA
ATOM      9  O   UNL     1      -0.463  12.896  19.726  0.00  0.00    +0.000 OA
BRANCH   7  10
ATOM     10  N   UNL     1      -0.749  12.871  22.276  0.00  0.00    +0.000 NA
ATOM     11  C   UNL     1      -0.657  14.195  22.929  0.00  0.00    +0.000 C 
ATOM     12  C   UNL     1      -1.569  14.330  24.144  0.00  0.00    +0.000 C 
ATOM     13  C   UNL     1      -3.040  13.968  23.854  0.00  0.00    +0.000 C 
ATOM     14  C   UNL     1      -2.987  12.504  23.372  0.00  0.00    +0.000 C 
ATOM     15  C   UNL     1      -2.092  12.262  22.160  0.00  0.00    +0.000 C 
BRANCH  13  16
ATOM     16  N   UNL     1      -3.724  14.920  22.938  0.00  0.00    +0.000 NA
ATOM     17  C   UNL     1      -3.870  16.275  23.521  0.00  0.00    +0.000 C 
ATOM     18  C   UNL     1      -5.184  16.254  24.278  0.00  0.00    +0.000 C 
ATOM     19  C   UNL     1      -6.075  15.472  23.342  0.00  0.00    +0.000 C 
ATOM     20  C   UNL     1      -5.120  14.532  22.606  0.00  0.00    +0.000 C 
ENDBRANCH  13  16
ENDBRANCH   7  10
ENDBRANCH   4   7
BRANCH   1  21
ATOM     21  C   UNL     1       1.515   6.630  20.851  0.00  0.00    +0.000 C 
BRANCH  21  24
ATOM     22  O   UNL     1       1.870   4.574  18.966  0.00  0.00    +0.000 OA
ATOM     23  C   UNL     1       2.804   5.319  19.222  0.00  0.00    +0.000 C 
ATOM     24  N   UNL     1       2.735   6.358  20.129  0.00  0.00    +0.000 N 
ATOM     25  H   UNL     1       3.445   7.077  20.120  0.00  0.00    +0.000 HD
BRANCH  23  26
ATOM     26  C   UNL     1       4.100   5.162  18.521  0.00  0.00    +0.000 A 
ATOM     27  C   UNL     1       5.244   4.865  19.266  0.00  0.00    +0.000 A 
ATOM     28  N   UNL     1       6.491   4.674  18.762  0.00  0.00    +0.000 NA
ATOM     29  C   UNL     1       6.538   4.834  17.427  0.00  0.00    +0.000 A 
ATOM     30  N   UNL     1       7.640   4.707  16.629  0.00  0.00    +0.000 N 
ATOM     31  N   UNL     1       7.393   4.932  15.320  0.00  0.00    +0.000 NA
ATOM     32  C   UNL     1       6.086   5.213  15.297  0.00  0.00    +0.000 A 
ATOM     33  C   UNL     1       5.489   5.155  16.575  0.00  0.00    +0.000 A 
ATOM     34  C   UNL     1       4.217   5.339  17.137  0.00  0.00    +0.000 A 
ATOM     35  H   UNL     1       8.580   4.474  16.925  0.00  0.00    +0.000 HD
ENDBRANCH  23  26
ENDBRANCH  21  24
ENDBRANCH   1  21
TORSDOF 6
ENDMDL
MODEL 5
REMARK VINA RESULT:      -8.6      6.076     10.154
REMARK  Name = 
REMARK  6 active torsions:
REMARK  status: ('A' for Active; 'I' for Inactive)
REMARK    1  A    between atoms: C_2  and  C_25
REMARK    2  A    between atoms: N_3  and  C_4
REMARK    3  A    between atoms: C_4  and  C_5
REMARK    4  A    between atoms: C_8  and  S_9
REMARK    5  A    between atoms: S_9  and  N_12
REMARK    6  A    between atoms: C_15  and  N_16
REMARK                            x       y       z     vdW  Elec       q    Type
REMARK                         _______ _______ _______ _____ _____    ______ ____
ROOT
ATOM      1  C   UNL     1       2.587   6.855  19.355  0.00  0.00    +0.000 A 
ATOM      2  C   UNL     1       1.894   7.173  20.531  0.00  0.00    +0.000 A 
ATOM      3  C   UNL     1       1.161   8.366  20.630  0.00  0.00    +0.000 A 
ATOM      4  C   UNL     1       1.124   9.259  19.553  0.00  0.00    +0.000 A 
ATOM      5  C   UNL     1       1.742   8.912  18.348  0.00  0.00    +0.000 A 
ATOM      6  C   UNL     1       2.476   7.721  18.255  0.00  0.00    +0.000 A 
ENDROOT
BRANCH   4   7
ATOM      7  S   UNL     1       0.115  10.741  19.655  0.00  0.00    +0.000 S 
ATOM      8  O   UNL     1      -0.567  10.876  18.380  0.00  0.00    +0.000 OA
ATOM      9  O   UNL     1      -0.639  10.648  20.887  0.00  0.00    +0.000 OA
BRANCH   7  10
ATOM     10  N   UNL     1       1.213  12.058  19.808  0.00  0.00    +0.000 NA
ATOM     11  C   UNL     1       1.524  12.777  18.553  0.00  0.00    +0.000 C 
ATOM     12  C   UNL     1       2.539  13.900  18.740  0.00  0.00    +0.000 C 
ATOM     13  C   UNL     1       2.159  14.894  19.857  0.00  0.00    +0.000 C 
ATOM     14  C   UNL     1       2.066  14.026  21.128  0.00  0.00    +0.000 C 
ATOM     15  C   UNL     1       1.079  12.866  21.039  0.00  0.00    +0.000 C 
BRANCH  13  16
ATOM     16  N   UNL     1       0.955  15.712  19.551  0.00  0.00    +0.000 NA
ATOM     17  C   UNL     1       1.165  16.641  18.415  0.00  0.00    +0.000 C 
ATOM     18  C   UNL     1       1.720  17.913  19.025  0.00  0.00    +0.000 C 
ATOM     19  C   UNL     1       0.892  18.048  20.281  0.00  0.00    +0.000 C 
ATOM     20  C   UNL     1       0.543  16.609  20.661  0.00  0.00    +0.000 C 
ENDBRANCH  13  16
ENDBRANCH   7  10
ENDBRANCH   4   7
BRANCH   1  21
ATOM     21  C   UNL     1       3.417   5.596  19.258  0.00  0.00    +0.000 C 
BRANCH  21  24
ATOM     22  O   UNL     1       5.957   4.466  18.829  0.00  0.00    +0.000 OA
ATOM     23  C   UNL     1       5.335   4.918  17.880  0.00  0.00    +0.000 C 
ATOM     24  N   UNL     1       4.083   5.492  17.982  0.00  0.00    +0.000 N 
ATOM     25  H   UNL     1       3.524   5.624  17.150  0.00  0.00    +0.000 HD
BRANCH  23  26
ATOM     26  C   UNL     1       5.899   4.842  16.512  0.00  0.00    +0.000 A 
ATOM     27  C   UNL     1       7.032   5.596  16.200  0.00  0.00    +0.000 A 
ATOM     28  N   UNL     1       7.669   5.612  15.000  0.00  0.00    +0.000 NA
ATOM     29  C   UNL     1       7.067   4.828  14.087  0.00  0.00    +0.000 A 
ATOM     30  N   UNL     1       7.465   4.631  12.795  0.00  0.00    +0.000 N 
ATOM     31  N   UNL     1       6.663   3.794  12.100  0.00  0.00    +0.000 NA
ATOM     32  C   UNL     1       5.726   3.455  12.992  0.00  0.00    +0.000 A 
ATOM     33  C   UNL     1       5.927   4.054  14.254  0.00  0.00    +0.000 A 
ATOM     34  C   UNL     1       5.303   4.063  15.512  0.00  0.00    +0.000 A 
ATOM     35  H   UNL     1       8.268   5.044  12.336  0.00  0.00    +0.000 HD
ENDBRANCH  23  26
ENDBRANCH  21  24
ENDBRANCH   1  21
TORSDOF 6
ENDMDL
MODEL 6
REMARK VINA RESULT:      -8.6      6.128      9.156
REMARK  Name = 
REMARK  6 active torsions:
REMARK  status: ('A' for Active; 'I' for Inactive)
REMARK    1  A    between atoms: C_2  and  C_25
REMARK    2  A    between atoms: N_3  and  C_4
REMARK    3  A    between atoms: C_4  and  C_5
REMARK    4  A    between atoms: C_8  and  S_9
REMARK    5  A    between atoms: S_9  and  N_12
REMARK    6  A    between atoms: C_15  and  N_16
REMARK                            x       y       z     vdW  Elec       q    Type
REMARK                         _______ _______ _______ _____ _____    ______ ____
ROOT
ATOM      1  C   UNL     1       2.552   5.018  19.616  0.00  0.00    +0.000 A 
ATOM      2  C   UNL     1       3.001   6.289  19.228  0.00  0.00    +0.000 A 
ATOM      3  C   UNL     1       2.433   7.448  19.778  0.00  0.00    +0.000 A 
ATOM      4  C   UNL     1       1.401   7.346  20.718  0.00  0.00    +0.000 A 
ATOM      5  C   UNL     1       1.004   6.085  21.173  0.00  0.00    +0.000 A 
ATOM      6  C   UNL     1       1.572   4.930  20.617  0.00  0.00    +0.000 A 
ENDROOT
BRANCH   4   7
ATOM      7  S   UNL     1       0.738   8.830  21.482  0.00  0.00    +0.000 S 
ATOM      8  O   UNL     1      -0.519   8.458  22.105  0.00  0.00    +0.000 OA
ATOM      9  O   UNL     1       1.808   9.406  22.270  0.00  0.00    +0.000 OA
BRANCH   7  10
ATOM     10  N   UNL     1       0.389   9.917  20.194  0.00  0.00    +0.000 NA
ATOM     11  C   UNL     1       0.302   9.304  18.851  0.00  0.00    +0.000 C 
ATOM     12  C   UNL     1       0.040  10.321  17.743  0.00  0.00    +0.000 C 
ATOM     13  C   UNL     1      -1.183  11.222  18.011  0.00  0.00    +0.000 C 
ATOM     14  C   UNL     1      -0.852  11.934  19.338  0.00  0.00    +0.000 C 
ATOM     15  C   UNL     1      -0.567  11.001  20.510  0.00  0.00    +0.000 C 
BRANCH  13  16
ATOM     16  N   UNL     1      -2.482  10.497  17.979  0.00  0.00    +0.000 NA
ATOM     17  C   UNL     1      -2.701   9.765  16.708  0.00  0.00    +0.000 C 
ATOM     18  C   UNL     1      -3.373  10.755  15.777  0.00  0.00    +0.000 C 
ATOM     19  C   UNL     1      -4.340  11.452  16.703  0.00  0.00    +0.000 C 
ATOM     20  C   UNL     1      -3.667  11.389  18.074  0.00  0.00    +0.000 C 
ENDBRANCH  13  16
ENDBRANCH   7  10
ENDBRANCH   4   7
BRANCH   1  21
ATOM     21  C   UNL     1       3.125   3.767  18.991  0.00  0.00    +0.000 C 
BRANCH  21  24
ATOM     22  O   UNL     1       5.924   4.011  18.848  0.00  0.00    +0.000 OA
ATOM     23  C   UNL     1       5.257   4.164  17.836  0.00  0.00    +0.000 C 
ATOM     24  N   UNL     1       3.880   4.064  17.797  0.00  0.00    +0.000 N 
ATOM     25  H   UNL     1       3.411   3.958  16.908  0.00  0.00    +0.000 HD
BRANCH  23  26
ATOM     26  C   UNL     1       5.918   4.441  16.539  0.00  0.00    +0.000 A 
ATOM     27  C   UNL     1       6.912   5.420  16.479  0.00  0.00    +0.000 A 
ATOM     28  N   UNL     1       7.617   5.769  15.370  0.00  0.00    +0.000 NA
ATOM     29  C   UNL     1       7.235   5.079  14.279  0.00  0.00    +0.000 A 
ATOM     30  N   UNL     1       7.751   5.197  13.020  0.00  0.00    +0.000 N 
ATOM     31  N   UNL     1       7.168   4.381  12.114  0.00  0.00    +0.000 NA
ATOM     32  C   UNL     1       6.249   3.728  12.834  0.00  0.00    +0.000 A 
ATOM     33  C   UNL     1       6.248   4.106  14.194  0.00  0.00    +0.000 A 
ATOM     34  C   UNL     1       5.548   3.773  15.365  0.00  0.00    +0.000 A 
ATOM     35  H   UNL     1       8.494   5.818  12.723  0.00  0.00    +0.000 HD
ENDBRANCH  23  26
ENDBRANCH  21  24
ENDBRANCH   1  21
TORSDOF 6
ENDMDL
MODEL 7
REMARK VINA RESULT:      -8.4      6.913     10.059
REMARK  Name = 
REMARK  6 active torsions:
REMARK  status: ('A' for Active; 'I' for Inactive)
REMARK    1  A    between atoms: C_2  and  C_25
REMARK    2  A    between atoms: N_3  and  C_4
REMARK    3  A    between atoms: C_4  and  C_5
REMARK    4  A    between atoms: C_8  and  S_9
REMARK    5  A    between atoms: S_9  and  N_12
REMARK    6  A    between atoms: C_15  and  N_16
REMARK                            x       y       z     vdW  Elec       q    Type
REMARK                         _______ _______ _______ _____ _____    ______ ____
ROOT
ATOM      1  C   UNL     1       2.173   7.404  19.306  0.00  0.00    +0.000 A 
ATOM      2  C   UNL     1       1.532   7.915  20.444  0.00  0.00    +0.000 A 
ATOM      3  C   UNL     1       0.975   9.203  20.435  0.00  0.00    +0.000 A 
ATOM      4  C   UNL     1       1.065   9.999  19.287  0.00  0.00    +0.000 A 
ATOM      5  C   UNL     1       1.628   9.469  18.123  0.00  0.00    +0.000 A 
ATOM      6  C   UNL     1       2.186   8.183  18.137  0.00  0.00    +0.000 A 
ENDROOT
BRANCH   4   7
ATOM      7  S   UNL     1       0.276  11.612  19.255  0.00  0.00    +0.000 S 
ATOM      8  O   UNL     1       1.316  12.595  19.499  0.00  0.00    +0.000 OA
ATOM      9  O   UNL     1      -0.516  11.664  18.044  0.00  0.00    +0.000 OA
BRANCH   7  10
ATOM     10  N   UNL     1      -0.806  11.643  20.593  0.00  0.00    +0.000 NA
ATOM     11  C   UNL     1      -0.176  11.841  21.917  0.00  0.00    +0.000 C 
ATOM     12  C   UNL     1      -1.176  11.810  23.068  0.00  0.00    +0.000 C 
ATOM     13  C   UNL     1      -2.362  12.777  22.880  0.00  0.00    +0.000 C 
ATOM     14  C   UNL     1      -3.028  12.317  21.568  0.00  0.00    +0.000 C 
ATOM     15  C   UNL     1      -2.106  12.307  20.353  0.00  0.00    +0.000 C 
BRANCH  13  16
ATOM     16  N   UNL     1      -1.982  14.214  22.937  0.00  0.00    +0.000 NA
ATOM     17  C   UNL     1      -1.515  14.633  24.280  0.00  0.00    +0.000 C 
ATOM     18  C   UNL     1      -2.761  15.063  25.029  0.00  0.00    +0.000 C 
ATOM     19  C   UNL     1      -3.527  15.810  23.964  0.00  0.00    +0.000 C 
ATOM     20  C   UNL     1      -3.107  15.143  22.655  0.00  0.00    +0.000 C 
ENDBRANCH  13  16
ENDBRANCH   7  10
ENDBRANCH   4   7
BRANCH   1  21
ATOM     21  C   UNL     1       2.817   6.037  19.324  0.00  0.00    +0.000 C 
BRANCH  21  24
ATOM     22  O   UNL     1       5.594   5.617  19.179  0.00  0.00    +0.000 OA
ATOM     23  C   UNL     1       4.931   5.591  18.154  0.00  0.00    +0.000 C 
ATOM     24  N   UNL     1       3.564   5.784  18.114  0.00  0.00    +0.000 N 
ATOM     25  H   UNL     1       3.044   5.514  17.291  0.00  0.00    +0.000 HD
BRANCH  23  26
ATOM     26  C   UNL     1       5.578   5.307  16.851  0.00  0.00    +0.000 A 
ATOM     27  C   UNL     1       6.851   5.824  16.598  0.00  0.00    +0.000 A 
ATOM     28  N   UNL     1       7.573   5.633  15.463  0.00  0.00    +0.000 NA
ATOM     29  C   UNL     1       6.914   4.895  14.551  0.00  0.00    +0.000 A 
ATOM     30  N   UNL     1       7.370   4.528  13.317  0.00  0.00    +0.000 N 
ATOM     31  N   UNL     1       6.488   3.790  12.607  0.00  0.00    +0.000 NA
ATOM     32  C   UNL     1       5.437   3.694  13.428  0.00  0.00    +0.000 A 
ATOM     33  C   UNL     1       5.642   4.348  14.662  0.00  0.00    +0.000 A 
ATOM     34  C   UNL     1       4.933   4.566  15.853  0.00  0.00    +0.000 A 
ATOM     35  H   UNL     1       8.269   4.755  12.909  0.00  0.00    +0.000 HD
ENDBRANCH  23  26
ENDBRANCH  21  24
ENDBRANCH   1  21
TORSDOF 6
ENDMDL
MODEL 8
REMARK VINA RESULT:      -8.4      5.818      9.609
REMARK  Name = 
REMARK  6 active torsions:
REMARK  status: ('A' for Active; 'I' for Inactive)
REMARK    1  A    between atoms: C_2  and  C_25
REMARK    2  A    between atoms: N_3  and  C_4
REMARK    3  A    between atoms: C_4  and  C_5
REMARK    4  A    between atoms: C_8  and  S_9
REMARK    5  A    between atoms: S_9  and  N_12
REMARK    6  A    between atoms: C_15  and  N_16
REMARK                            x       y       z     vdW  Elec       q    Type
REMARK                         _______ _______ _______ _____ _____    ______ ____
ROOT
ATOM      1  C   UNL     1       2.491   5.168  19.496  0.00  0.00    +0.000 A 
ATOM      2  C   UNL     1       2.739   6.410  18.893  0.00  0.00    +0.000 A 
ATOM      3  C   UNL     1       2.203   7.588  19.435  0.00  0.00    +0.000 A 
ATOM      4  C   UNL     1       1.405   7.534  20.584  0.00  0.00    +0.000 A 
ATOM      5  C   UNL     1       1.221   6.313  21.239  0.00  0.00    +0.000 A 
ATOM      6  C   UNL     1       1.755   5.137  20.691  0.00  0.00    +0.000 A 
ENDROOT
BRANCH   4   7
ATOM      7  S   UNL     1       0.795   9.053  21.321  0.00  0.00    +0.000 S 
ATOM      8  O   UNL     1      -0.517   8.759  21.869  0.00  0.00    +0.000 OA
ATOM      9  O   UNL     1       1.852   9.557  22.172  0.00  0.00    +0.000 OA
BRANCH   7  10
ATOM     10  N   UNL     1       0.588  10.165  20.024  0.00  0.00    +0.000 NA
ATOM     11  C   UNL     1      -0.713  10.869  19.989  0.00  0.00    +0.000 C 
ATOM     12  C   UNL     1      -0.859  11.803  18.792  0.00  0.00    +0.000 C 
ATOM     13  C   UNL     1       0.305  12.804  18.646  0.00  0.00    +0.000 C 
ATOM     14  C   UNL     1       1.557  11.918  18.496  0.00  0.00    +0.000 C 
ATOM     15  C   UNL     1       1.789  10.940  19.644  0.00  0.00    +0.000 C 
BRANCH  13  16
ATOM     16  N   UNL     1       0.364  13.819  19.732  0.00  0.00    +0.000 NA
ATOM     17  C   UNL     1      -0.715  14.831  19.632  0.00  0.00    +0.000 C 
ATOM     18  C   UNL     1      -0.164  15.930  18.746  0.00  0.00    +0.000 C 
ATOM     19  C   UNL     1       1.262  16.041  19.229  0.00  0.00    +0.000 C 
ATOM     20  C   UNL     1       1.606  14.634  19.721  0.00  0.00    +0.000 C 
ENDBRANCH  13  16
ENDBRANCH   7  10
ENDBRANCH   4   7
BRANCH   1  21
ATOM     21  C   UNL     1       3.024   3.890  18.890  0.00  0.00    +0.000 C 
BRANCH  21  24
ATOM     22  O   UNL     1       5.828   4.078  18.784  0.00  0.00    +0.000 OA
ATOM     23  C   UNL     1       5.179   4.221  17.759  0.00  0.00    +0.000 C 
ATOM     24  N   UNL     1       3.802   4.146  17.702  0.00  0.00    +0.000 N 
ATOM     25  H   UNL     1       3.343   4.030  16.808  0.00  0.00    +0.000 HD
BRANCH  23  26
ATOM     26  C   UNL     1       5.865   4.457  16.467  0.00  0.00    +0.000 A 
ATOM     27  C   UNL     1       6.881   5.412  16.401  0.00  0.00    +0.000 A 
ATOM     28  N   UNL     1       7.609   5.722  15.296  0.00  0.00    +0.000 NA
ATOM     29  C   UNL     1       7.227   5.019  14.214  0.00  0.00    +0.000 A 
ATOM     30  N   UNL     1       7.763   5.100  12.960  0.00  0.00    +0.000 N 
ATOM     31  N   UNL     1       7.174   4.279  12.062  0.00  0.00    +0.000 NA
ATOM     32  C   UNL     1       6.231   3.662  12.782  0.00  0.00    +0.000 A 
ATOM     33  C   UNL     1       6.220   4.066  14.134  0.00  0.00    +0.000 A 
ATOM     34  C   UNL     1       5.496   3.774  15.301  0.00  0.00    +0.000 A 
ATOM     35  H   UNL     1       8.524   5.698  12.662  0.00  0.00    +0.000 HD
ENDBRANCH  23  26
ENDBRANCH  21  24
ENDBRANCH   1  21
TORSDOF 6
ENDMDL
MODEL 9
REMARK VINA RESULT:      -8.4      7.420     10.418
REMARK  Name = 
REMARK  6 active torsions:
REMARK  status: ('A' for Active; 'I' for Inactive)
REMARK    1  A    between atoms: C_2  and  C_25
REMARK    2  A    between atoms: N_3  and  C_4
REMARK    3  A    between atoms: C_4  and  C_5
REMARK    4  A    between atoms: C_8  and  S_9
REMARK    5  A    between atoms: S_9  and  N_12
REMARK    6  A    between atoms: C_15  and  N_16
REMARK                            x       y       z     vdW  Elec       q    Type
REMARK                         _______ _______ _______ _____ _____    ______ ____
ROOT
ATOM      1  C   UNL     1       1.902   7.944  19.507  0.00  0.00    +0.000 A 
ATOM      2  C   UNL     1       1.867   8.687  18.318  0.00  0.00    +0.000 A 
ATOM      3  C   UNL     1       1.149   9.891  18.246  0.00  0.00    +0.000 A 
ATOM      4  C   UNL     1       0.450  10.360  19.365  0.00  0.00    +0.000 A 
ATOM      5  C   UNL     1       0.548   9.671  20.577  0.00  0.00    +0.000 A 
ATOM      6  C   UNL     1       1.263   8.467  20.643  0.00  0.00    +0.000 A 
ENDROOT
BRANCH   4   7
ATOM      7  S   UNL     1      -0.394  11.943  19.292  0.00  0.00    +0.000 S 
ATOM      8  O   UNL     1       0.515  12.876  18.651  0.00  0.00    +0.000 OA
ATOM      9  O   UNL     1      -1.705  11.690  18.731  0.00  0.00    +0.000 OA
BRANCH   7  10
ATOM     10  N   UNL     1      -0.607  12.448  20.923  0.00  0.00    +0.000 NA
ATOM     11  C   UNL     1      -0.191  13.836  21.219  0.00  0.00    +0.000 C 
ATOM     12  C   UNL     1      -0.355  14.211  22.689  0.00  0.00    +0.000 C 
ATOM     13  C   UNL     1      -1.769  13.937  23.240  0.00  0.00    +0.000 C 
ATOM     14  C   UNL     1      -1.973  12.423  23.038  0.00  0.00    +0.000 C 
ATOM     15  C   UNL     1      -1.823  11.944  21.598  0.00  0.00    +0.000 C 
BRANCH  13  16
ATOM     16  N   UNL     1      -2.822  14.810  22.654  0.00  0.00    +0.000 NA
ATOM     17  C   UNL     1      -2.769  16.200  23.167  0.00  0.00    +0.000 C 
ATOM     18  C   UNL     1      -3.632  16.208  24.414  0.00  0.00    +0.000 C 
ATOM     19  C   UNL     1      -4.799  15.346  23.996  0.00  0.00    +0.000 C 
ATOM     20  C   UNL     1      -4.206  14.374  22.975  0.00  0.00    +0.000 C 
ENDBRANCH  13  16
ENDBRANCH   7  10
ENDBRANCH   4   7
BRANCH   1  21
ATOM     21  C   UNL     1       2.633   6.623  19.578  0.00  0.00    +0.000 C 
BRANCH  21  24
ATOM     22  O   UNL     1       4.513   4.550  19.306  0.00  0.00    +0.000 OA
ATOM     23  C   UNL     1       4.429   5.399  18.433  0.00  0.00    +0.000 C 
ATOM     24  N   UNL     1       3.541   6.456  18.468  0.00  0.00    +0.000 N 
ATOM     25  H   UNL     1       3.348   6.976  17.623  0.00  0.00    +0.000 HD
BRANCH  23  26
ATOM     26  C   UNL     1       5.285   5.319  17.226  0.00  0.00    +0.000 A 
ATOM     27  C   UNL     1       6.447   6.092  17.164  0.00  0.00    +0.000 A 
ATOM     28  N   UNL     1       7.335   6.108  16.136  0.00  0.00    +0.000 NA
ATOM     29  C   UNL     1       6.966   5.301  15.123  0.00  0.00    +0.000 A 
ATOM     30  N   UNL     1       7.645   5.097  13.956  0.00  0.00    +0.000 N 
ATOM     31  N   UNL     1       7.034   4.236  13.113  0.00  0.00    +0.000 NA
ATOM     32  C   UNL     1       5.927   3.889  13.778  0.00  0.00    +0.000 A 
ATOM     33  C   UNL     1       5.831   4.506  15.044  0.00  0.00    +0.000 A 
ATOM     34  C   UNL     1       4.942   4.516  16.130  0.00  0.00    +0.000 A 
ATOM     35  H   UNL     1       8.524   5.521  13.682  0.00  0.00    +0.000 HD
ENDBRANCH  23  26
ENDBRANCH  21  24
ENDBRANCH   1  21
TORSDOF 6
ENDMDL
