MODEL 1
REMARK VINA RESULT:      -6.7      0.000      0.000
REMARK  Name = 
REMARK  14 active torsions:
REMARK  status: ('A' for Active; 'I' for Inactive)
REMARK    1  A    between atoms: C_1  and  O_2
REMARK    2  A    between atoms: O_2  and  C_3
REMARK    3  A    between atoms: C_5  and  C_6
REMARK    4  A    between atoms: C_6  and  C_7
REMARK    5  A    between atoms: C_6  and  O_12
REMARK    6  A    between atoms: C_7  and  C_8
REMARK    7  A    between atoms: C_9  and  C_10
REMARK    8  A    between atoms: C_9  and  C_11
REMARK    9  A    between atoms: O_12  and  C_13
REMARK   10  A    between atoms: C_13  and  C_15
REMARK   11  A    between atoms: C_21  and  O_22
REMARK   12  A    between atoms: O_22  and  C_23
REMARK   13  A    between atoms: N_27  and  O_28
REMARK   14  A    between atoms: N_32  and  O_33
REMARK                            x       y       z     vdW  Elec       q    Type
REMARK                         _______ _______ _______ _____ _____    ______ ____
ROOT
ATOM      1  C   UNL     1      -2.809  10.941  18.029  0.00  0.00    +0.000 A 
ATOM      2  C   UNL     1      -1.470  10.680  18.279  0.00  0.00    +0.000 A 
ATOM      3  C   UNL     1      -0.802  11.190  19.387  0.00  0.00    +0.000 A 
ATOM      4  C   UNL     1      -1.529  11.976  20.322  0.00  0.00    +0.000 A 
ATOM      5  C   UNL     1      -2.895  12.363  20.045  0.00  0.00    +0.000 A 
ATOM      6  C   UNL     1      -3.526  11.815  18.877  0.00  0.00    +0.000 A 
ATOM      7  C   UNL     1      -4.969  12.115  18.523  0.00  0.00    +0.000 C 
ATOM      8  N   UNL     1      -5.534  11.571  17.483  0.00  0.00    +0.000 NA
ATOM      9  C   UNL     1      -5.698  13.036  19.403  0.00  0.00    +0.000 C 
ATOM     10  C   UNL     1      -5.134  13.574  20.473  0.00  0.00    +0.000 C 
ATOM     11  C   UNL     1      -3.732  13.321  20.884  0.00  0.00    +0.000 C 
ATOM     12  N   UNL     1      -3.240  13.947  21.911  0.00  0.00    +0.000 NA
ENDROOT
BRANCH   1  14
ATOM     13  C   UNL     1      -2.528   9.949  15.878  0.00  0.00    +0.000 C 
ATOM     14  O   UNL     1      -3.398  10.387  16.920  0.00  0.00    +0.000 OA
ENDBRANCH   1  14
BRANCH   4  15
ATOM     15  O   UNL     1      -0.789  12.094  21.472  0.00  0.00    +0.000 OA
ATOM     16  C   UNL     1      -0.979  11.323  22.639  0.00  0.00    +0.000 C 
ENDBRANCH   4  15
BRANCH   8  17
ATOM     17  O   UNL     1      -6.869  11.949  17.298  0.00  0.00    +0.000 OA
ATOM     18  H   UNL     1      -6.885  12.831  17.717  0.00  0.00    +0.000 HD
ENDBRANCH   8  17
BRANCH  12  19
ATOM     19  O   UNL     1      -4.141  14.816  22.540  0.00  0.00    +0.000 OA
ATOM     20  H   UNL     1      -4.198  15.561  21.913  0.00  0.00    +0.000 HD
ENDBRANCH  12  19
BRANCH   3  21
ATOM     21  C   UNL     1       0.696  10.831  19.523  0.00  0.00    +0.000 C 
BRANCH  21  22
ATOM     22  C   UNL     1       1.647  11.655  18.579  0.00  0.00    +0.000 C 
BRANCH  22  23
ATOM     23  C   UNL     1       1.381  13.136  18.487  0.00  0.00    +0.000 C 
ATOM     24  C   UNL     1       1.705  14.079  19.390  0.00  0.00    +0.000 C 
ATOM     25  C   UNL     1       2.348  13.836  20.732  0.00  0.00    +0.000 C 
ATOM     26  C   UNL     1       1.424  15.532  19.105  0.00  0.00    +0.000 C 
ENDBRANCH  22  23
ENDBRANCH  21  22
BRANCH  21  27
ATOM     27  O   UNL     1       0.833   9.442  19.142  0.00  0.00    +0.000 OA
BRANCH  27  28
ATOM     28  C   UNL     1       1.387   8.610  20.066  0.00  0.00    +0.000 C 
ATOM     29  O   UNL     1       1.317   8.734  21.278  0.00  0.00    +0.000 OA
BRANCH  28  30
ATOM     30  C   UNL     1       2.224   7.573  19.382  0.00  0.00    +0.000 A 
ATOM     31  C   UNL     1       2.863   7.894  18.187  0.00  0.00    +0.000 A 
ATOM     32  C   UNL     1       3.604   6.903  17.544  0.00  0.00    +0.000 A 
ATOM     33  C   UNL     1       3.675   5.632  18.103  0.00  0.00    +0.000 A 
ATOM     34  C   UNL     1       2.993   5.395  19.286  0.00  0.00    +0.000 A 
ATOM     35  N   UNL     1       2.269   6.330  19.935  0.00  0.00    +0.000 NA
ENDBRANCH  28  30
ENDBRANCH  27  28
ENDBRANCH  21  27
ENDBRANCH   3  21
TORSDOF 10
ENDMDL
MODEL 2
REMARK VINA RESULT:      -6.7      2.918      5.060
REMARK  Name = 
REMARK  14 active torsions:
REMARK  status: ('A' for Active; 'I' for Inactive)
REMARK    1  A    between atoms: C_1  and  O_2
REMARK    2  A    between atoms: O_2  and  C_3
REMARK    3  A    between atoms: C_5  and  C_6
REMARK    4  A    between atoms: C_6  and  C_7
REMARK    5  A    between atoms: C_6  and  O_12
REMARK    6  A    between atoms: C_7  and  C_8
REMARK    7  A    between atoms: C_9  and  C_10
REMARK    8  A    between atoms: C_9  and  C_11
REMARK    9  A    between atoms: O_12  and  C_13
REMARK   10  A    between atoms: C_13  and  C_15
REMARK   11  A    between atoms: C_21  and  O_22
REMARK   12  A    between atoms: O_22  and  C_23
REMARK   13  A    between atoms: N_27  and  O_28
REMARK   14  A    between atoms: N_32  and  O_33
REMARK                            x       y       z     vdW  Elec       q    Type
REMARK                         _______ _______ _______ _____ _____    ______ ____
ROOT
ATOM      1  C   UNL     1      -0.204  11.945  21.763  0.00  0.00    +0.000 A 
ATOM      2  C   UNL     1       0.037  11.034  20.747  0.00  0.00    +0.000 A 
ATOM      3  C   UNL     1       0.482  11.419  19.486  0.00  0.00    +0.000 A 
ATOM      4  C   UNL     1       0.738  12.796  19.243  0.00  0.00    +0.000 A 
ATOM      5  C   UNL     1       0.396  13.790  20.236  0.00  0.00    +0.000 A 
ATOM      6  C   UNL     1      -0.073  13.330  21.513  0.00  0.00    +0.000 A 
ATOM      7  C   UNL     1      -0.410  14.284  22.642  0.00  0.00    +0.000 C 
ATOM      8  N   UNL     1      -0.790  13.842  23.807  0.00  0.00    +0.000 NA
ATOM      9  C   UNL     1      -0.283  15.721  22.366  0.00  0.00    +0.000 C 
ATOM     10  C   UNL     1       0.123  16.173  21.190  0.00  0.00    +0.000 C 
ATOM     11  C   UNL     1       0.476  15.298  20.045  0.00  0.00    +0.000 C 
ATOM     12  N   UNL     1       0.799  15.832  18.905  0.00  0.00    +0.000 NA
ENDROOT
BRANCH   1  14
ATOM     13  C   UNL     1      -0.473  10.085  23.233  0.00  0.00    +0.000 C 
ATOM     14  O   UNL     1      -0.628  11.481  22.984  0.00  0.00    +0.000 OA
ENDBRANCH   1  14
BRANCH   4  15
ATOM     15  O   UNL     1       1.464  12.913  18.083  0.00  0.00    +0.000 OA
ATOM     16  C   UNL     1       2.852  13.153  18.019  0.00  0.00    +0.000 C 
ENDBRANCH   4  15
BRANCH   8  17
ATOM     17  O   UNL     1      -1.060  14.853  24.738  0.00  0.00    +0.000 OA
ATOM     18  H   UNL     1      -1.828  14.483  25.214  0.00  0.00    +0.000 HD
ENDBRANCH   8  17
BRANCH  12  19
ATOM     19  O   UNL     1       0.785  17.233  18.901  0.00  0.00    +0.000 OA
ATOM     20  H   UNL     1       1.728  17.458  18.794  0.00  0.00    +0.000 HD
ENDBRANCH  12  19
BRANCH   3  21
ATOM     21  C   UNL     1       0.689  10.293  18.446  0.00  0.00    +0.000 C 
BRANCH  21  22
ATOM     22  C   UNL     1      -0.645   9.664  17.900  0.00  0.00    +0.000 C 
BRANCH  22  23
ATOM     23  C   UNL     1      -1.850  10.570  17.870  0.00  0.00    +0.000 C 
ATOM     24  C   UNL     1      -2.802  10.626  16.921  0.00  0.00    +0.000 C 
ATOM     25  C   UNL     1      -2.823   9.832  15.640  0.00  0.00    +0.000 C 
ATOM     26  C   UNL     1      -3.983  11.549  17.084  0.00  0.00    +0.000 C 
ENDBRANCH  22  23
ENDBRANCH  21  22
BRANCH  21  27
ATOM     27  O   UNL     1       1.408   9.230  19.114  0.00  0.00    +0.000 OA
BRANCH  27  28
ATOM     28  C   UNL     1       2.183   8.433  18.328  0.00  0.00    +0.000 C 
ATOM     29  O   UNL     1       2.691   8.749  17.265  0.00  0.00    +0.000 OA
BRANCH  28  30
ATOM     30  C   UNL     1       2.223   7.045  18.890  0.00  0.00    +0.000 A 
ATOM     31  C   UNL     1       2.488   5.974  18.040  0.00  0.00    +0.000 A 
ATOM     32  C   UNL     1       2.480   4.686  18.573  0.00  0.00    +0.000 A 
ATOM     33  C   UNL     1       2.202   4.508  19.924  0.00  0.00    +0.000 A 
ATOM     34  C   UNL     1       1.932   5.628  20.693  0.00  0.00    +0.000 A 
ATOM     35  N   UNL     1       1.933   6.888  20.209  0.00  0.00    +0.000 NA
ENDBRANCH  28  30
ENDBRANCH  27  28
ENDBRANCH  21  27
ENDBRANCH   3  21
TORSDOF 10
ENDMDL
MODEL 3
REMARK VINA RESULT:      -6.7      2.934      5.425
REMARK  Name = 
REMARK  14 active torsions:
REMARK  status: ('A' for Active; 'I' for Inactive)
REMARK    1  A    between atoms: C_1  and  O_2
REMARK    2  A    between atoms: O_2  and  C_3
REMARK    3  A    between atoms: C_5  and  C_6
REMARK    4  A    between atoms: C_6  and  C_7
REMARK    5  A    between atoms: C_6  and  O_12
REMARK    6  A    between atoms: C_7  and  C_8
REMARK    7  A    between atoms: C_9  and  C_10
REMARK    8  A    between atoms: C_9  and  C_11
REMARK    9  A    between atoms: O_12  and  C_13
REMARK   10  A    between atoms: C_13  and  C_15
REMARK   11  A    between atoms: C_21  and  O_22
REMARK   12  A    between atoms: O_22  and  C_23
REMARK   13  A    between atoms: N_27  and  O_28
REMARK   14  A    between atoms: N_32  and  O_33
REMARK                            x       y       z     vdW  Elec       q    Type
REMARK                         _______ _______ _______ _____ _____    ______ ____
ROOT
ATOM      1  C   UNL     1      -0.414  12.831  21.914  0.00  0.00    +0.000 A 
ATOM      2  C   UNL     1      -0.439  11.853  20.931  0.00  0.00    +0.000 A 
ATOM      3  C   UNL     1       0.094  12.054  19.662  0.00  0.00    +0.000 A 
ATOM      4  C   UNL     1       0.725  13.295  19.374  0.00  0.00    +0.000 A 
ATOM      5  C   UNL     1       0.676  14.379  20.330  0.00  0.00    +0.000 A 
ATOM      6  C   UNL     1       0.100  14.114  21.618  0.00  0.00    +0.000 A 
ATOM      7  C   UNL     1       0.045  15.164  22.710  0.00  0.00    +0.000 C 
ATOM      8  N   UNL     1      -0.442  14.887  23.886  0.00  0.00    +0.000 NA
ATOM      9  C   UNL     1       0.569  16.497  22.386  0.00  0.00    +0.000 C 
ATOM     10  C   UNL     1       1.083  16.775  21.199  0.00  0.00    +0.000 C 
ATOM     11  C   UNL     1       1.175  15.797  20.087  0.00  0.00    +0.000 C 
ATOM     12  N   UNL     1       1.633  16.178  18.932  0.00  0.00    +0.000 NA
ENDROOT
BRANCH   1  14
ATOM     13  C   UNL     1      -2.185  11.836  23.165  0.00  0.00    +0.000 C 
ATOM     14  O   UNL     1      -0.949  12.547  23.147  0.00  0.00    +0.000 OA
ENDBRANCH   1  14
BRANCH   4  15
ATOM     15  O   UNL     1       1.453  13.163  18.217  0.00  0.00    +0.000 OA
ATOM     16  C   UNL     1       2.859  13.069  18.152  0.00  0.00    +0.000 C 
ENDBRANCH   4  15
BRANCH   8  17
ATOM     17  O   UNL     1      -0.417  15.965  24.780  0.00  0.00    +0.000 OA
ATOM     18  H   UNL     1      -1.320  15.937  25.149  0.00  0.00    +0.000 HD
ENDBRANCH   8  17
BRANCH  12  19
ATOM     19  O   UNL     1       2.012  17.526  18.880  0.00  0.00    +0.000 OA
ATOM     20  H   UNL     1       1.474  17.874  18.145  0.00  0.00    +0.000 HD
ENDBRANCH  12  19
BRANCH   3  21
ATOM     21  C   UNL     1      -0.024  10.879  18.663  0.00  0.00    +0.000 C 
BRANCH  21  22
ATOM     22  C   UNL     1      -1.496  10.375  18.429  0.00  0.00    +0.000 C 
BRANCH  22  23
ATOM     23  C   UNL     1      -1.869  10.035  17.008  0.00  0.00    +0.000 C 
ATOM     24  C   UNL     1      -2.952  10.454  16.330  0.00  0.00    +0.000 C 
ATOM     25  C   UNL     1      -4.069  11.304  16.882  0.00  0.00    +0.000 C 
ATOM     26  C   UNL     1      -3.137  10.071  14.884  0.00  0.00    +0.000 C 
ENDBRANCH  22  23
ENDBRANCH  21  22
BRANCH  21  27
ATOM     27  O   UNL     1       0.712   9.769  19.229  0.00  0.00    +0.000 OA
BRANCH  27  28
ATOM     28  C   UNL     1       1.697   9.235  18.456  0.00  0.00    +0.000 C 
ATOM     29  O   UNL     1       2.153   9.724  17.436  0.00  0.00    +0.000 OA
BRANCH  28  30
ATOM     30  C   UNL     1       2.063   7.874  18.964  0.00  0.00    +0.000 A 
ATOM     31  C   UNL     1       2.701   6.979  18.110  0.00  0.00    +0.000 A 
ATOM     32  C   UNL     1       2.998   5.703  18.588  0.00  0.00    +0.000 A 
ATOM     33  C   UNL     1       2.643   5.361  19.888  0.00  0.00    +0.000 A 
ATOM     34  C   UNL     1       1.995   6.308  20.663  0.00  0.00    +0.000 A 
ATOM     35  N   UNL     1       1.694   7.551  20.233  0.00  0.00    +0.000 NA
ENDBRANCH  28  30
ENDBRANCH  27  28
ENDBRANCH  21  27
ENDBRANCH   3  21
TORSDOF 10
ENDMDL
MODEL 4
REMARK VINA RESULT:      -6.4      5.841      9.605
REMARK  Name = 
REMARK  14 active torsions:
REMARK  status: ('A' for Active; 'I' for Inactive)
REMARK    1  A    between atoms: C_1  and  O_2
REMARK    2  A    between atoms: O_2  and  C_3
REMARK    3  A    between atoms: C_5  and  C_6
REMARK    4  A    between atoms: C_6  and  C_7
REMARK    5  A    between atoms: C_6  and  O_12
REMARK    6  A    between atoms: C_7  and  C_8
REMARK    7  A    between atoms: C_9  and  C_10
REMARK    8  A    between atoms: C_9  and  C_11
REMARK    9  A    between atoms: O_12  and  C_13
REMARK   10  A    between atoms: C_13  and  C_15
REMARK   11  A    between atoms: C_21  and  O_22
REMARK   12  A    between atoms: O_22  and  C_23
REMARK   13  A    between atoms: N_27  and  O_28
REMARK   14  A    between atoms: N_32  and  O_33
REMARK                            x       y       z     vdW  Elec       q    Type
REMARK                         _______ _______ _______ _____ _____    ______ ____
ROOT
ATOM      1  C   UNL     1       3.638   6.803  17.981  0.00  0.00    +0.000 A 
ATOM      2  C   UNL     1       4.503   6.178  17.096  0.00  0.00    +0.000 A 
ATOM      3  C   UNL     1       4.792   4.818  17.165  0.00  0.00    +0.000 A 
ATOM      4  C   UNL     1       4.144   4.032  18.157  0.00  0.00    +0.000 A 
ATOM      5  C   UNL     1       3.322   4.661  19.167  0.00  0.00    +0.000 A 
ATOM      6  C   UNL     1       3.072   6.070  19.048  0.00  0.00    +0.000 A 
ATOM      7  C   UNL     1       2.183   6.817  20.023  0.00  0.00    +0.000 C 
ATOM      8  N   UNL     1       1.935   8.087  19.870  0.00  0.00    +0.000 NA
ATOM      9  C   UNL     1       1.613   6.048  21.136  0.00  0.00    +0.000 C 
ATOM     10  C   UNL     1       1.847   4.753  21.283  0.00  0.00    +0.000 C 
ATOM     11  C   UNL     1       2.699   3.958  20.365  0.00  0.00    +0.000 C 
ATOM     12  N   UNL     1       2.928   2.706  20.626  0.00  0.00    +0.000 NA
ENDROOT
BRANCH   1  14
ATOM     13  C   UNL     1       2.185   8.515  17.174  0.00  0.00    +0.000 C 
ATOM     14  O   UNL     1       3.394   8.146  17.834  0.00  0.00    +0.000 OA
ENDBRANCH   1  14
BRANCH   4  15
ATOM     15  O   UNL     1       4.309   2.705  17.846  0.00  0.00    +0.000 OA
ATOM     16  C   UNL     1       3.269   1.822  17.490  0.00  0.00    +0.000 C 
ENDBRANCH   4  15
BRANCH   8  17
ATOM     17  O   UNL     1       1.095   8.624  20.853  0.00  0.00    +0.000 OA
ATOM     18  H   UNL     1       0.363   8.980  20.315  0.00  0.00    +0.000 HD
ENDBRANCH   8  17
BRANCH  12  19
ATOM     19  O   UNL     1       2.304   2.236  21.789  0.00  0.00    +0.000 OA
ATOM     20  H   UNL     1       2.002   1.346  21.528  0.00  0.00    +0.000 HD
ENDBRANCH  12  19
BRANCH   3  21
ATOM     21  C   UNL     1       5.791   4.265  16.123  0.00  0.00    +0.000 C 
BRANCH  21  22
ATOM     22  C   UNL     1       7.303   4.414  16.533  0.00  0.00    +0.000 C 
BRANCH  22  23
ATOM     23  C   UNL     1       7.583   4.599  18.003  0.00  0.00    +0.000 C 
ATOM     24  C   UNL     1       7.788   5.759  18.653  0.00  0.00    +0.000 C 
ATOM     25  C   UNL     1       7.852   7.127  18.022  0.00  0.00    +0.000 C 
ATOM     26  C   UNL     1       7.988   5.768  20.146  0.00  0.00    +0.000 C 
ENDBRANCH  22  23
ENDBRANCH  21  22
BRANCH  21  27
ATOM     27  O   UNL     1       5.610   5.037  14.913  0.00  0.00    +0.000 OA
BRANCH  27  28
ATOM     28  C   UNL     1       6.580   4.920  13.966  0.00  0.00    +0.000 C 
ATOM     29  O   UNL     1       7.600   5.586  13.896  0.00  0.00    +0.000 OA
BRANCH  28  30
ATOM     30  C   UNL     1       6.158   3.932  12.922  0.00  0.00    +0.000 A 
ATOM     31  C   UNL     1       4.818   3.871  12.545  0.00  0.00    +0.000 A 
ATOM     32  C   UNL     1       4.437   2.917  11.602  0.00  0.00    +0.000 A 
ATOM     33  C   UNL     1       5.394   2.056  11.076  0.00  0.00    +0.000 A 
ATOM     34  C   UNL     1       6.701   2.175  11.521  0.00  0.00    +0.000 A 
ATOM     35  N   UNL     1       7.104   3.087  12.430  0.00  0.00    +0.000 NA
ENDBRANCH  28  30
ENDBRANCH  27  28
ENDBRANCH  21  27
ENDBRANCH   3  21
TORSDOF 10
ENDMDL
MODEL 5
REMARK VINA RESULT:      -6.3      1.418      1.987
REMARK  Name = 
REMARK  14 active torsions:
REMARK  status: ('A' for Active; 'I' for Inactive)
REMARK    1  A    between atoms: C_1  and  O_2
REMARK    2  A    between atoms: O_2  and  C_3
REMARK    3  A    between atoms: C_5  and  C_6
REMARK    4  A    between atoms: C_6  and  C_7
REMARK    5  A    between atoms: C_6  and  O_12
REMARK    6  A    between atoms: C_7  and  C_8
REMARK    7  A    between atoms: C_9  and  C_10
REMARK    8  A    between atoms: C_9  and  C_11
REMARK    9  A    between atoms: O_12  and  C_13
REMARK   10  A    between atoms: C_13  and  C_15
REMARK   11  A    between atoms: C_21  and  O_22
REMARK   12  A    between atoms: O_22  and  C_23
REMARK   13  A    between atoms: N_27  and  O_28
REMARK   14  A    between atoms: N_32  and  O_33
REMARK                            x       y       z     vdW  Elec       q    Type
REMARK                         _______ _______ _______ _____ _____    ______ ____
ROOT
ATOM      1  C   UNL     1      -3.009  11.794  18.826  0.00  0.00    +0.000 A 
ATOM      2  C   UNL     1      -1.819  11.772  19.538  0.00  0.00    +0.000 A 
ATOM      3  C   UNL     1      -1.707  12.287  20.825  0.00  0.00    +0.000 A 
ATOM      4  C   UNL     1      -2.867  12.820  21.451  0.00  0.00    +0.000 A 
ATOM      5  C   UNL     1      -4.100  12.963  20.707  0.00  0.00    +0.000 A 
ATOM      6  C   UNL     1      -4.147  12.424  19.377  0.00  0.00    +0.000 A 
ATOM      7  C   UNL     1      -5.404  12.475  18.530  0.00  0.00    +0.000 C 
ATOM      8  N   UNL     1      -5.437  11.940  17.343  0.00  0.00    +0.000 NA
ATOM      9  C   UNL     1      -6.576  13.144  19.108  0.00  0.00    +0.000 C 
ATOM     10  C   UNL     1      -6.552  13.671  20.322  0.00  0.00    +0.000 C 
ATOM     11  C   UNL     1      -5.362  13.652  21.208  0.00  0.00    +0.000 C 
ATOM     12  N   UNL     1      -5.408  14.254  22.358  0.00  0.00    +0.000 NA
ENDROOT
BRANCH   1  14
ATOM     13  C   UNL     1      -2.277  10.064  17.355  0.00  0.00    +0.000 C 
ATOM     14  O   UNL     1      -3.038  11.252  17.564  0.00  0.00    +0.000 OA
ENDBRANCH   1  14
BRANCH   4  15
ATOM     15  O   UNL     1      -2.620  12.961  22.795  0.00  0.00    +0.000 OA
ATOM     16  C   UNL     1      -3.144  12.129  23.805  0.00  0.00    +0.000 C 
ENDBRANCH   4  15
BRANCH   8  17
ATOM     17  O   UNL     1      -6.672  12.071  16.695  0.00  0.00    +0.000 OA
ATOM     18  H   UNL     1      -6.605  11.387  16.001  0.00  0.00    +0.000 HD
ENDBRANCH   8  17
BRANCH  12  19
ATOM     19  O   UNL     1      -6.637  14.865  22.639  0.00  0.00    +0.000 OA
ATOM     20  H   UNL     1      -6.595  15.686  22.114  0.00  0.00    +0.000 HD
ENDBRANCH  12  19
BRANCH   3  21
ATOM     21  C   UNL     1      -0.312  12.211  21.487  0.00  0.00    +0.000 C 
BRANCH  21  22
ATOM     22  C   UNL     1       0.445  13.588  21.561  0.00  0.00    +0.000 C 
BRANCH  22  23
ATOM     23  C   UNL     1       1.429  13.872  20.455  0.00  0.00    +0.000 C 
ATOM     24  C   UNL     1       1.203  14.557  19.320  0.00  0.00    +0.000 C 
ATOM     25  C   UNL     1      -0.121  15.131  18.882  0.00  0.00    +0.000 C 
ATOM     26  C   UNL     1       2.326  14.808  18.347  0.00  0.00    +0.000 C 
ENDBRANCH  22  23
ENDBRANCH  21  22
BRANCH  21  27
ATOM     27  O   UNL     1       0.496  11.335  20.667  0.00  0.00    +0.000 OA
BRANCH  27  28
ATOM     28  C   UNL     1       0.821  10.128  21.205  0.00  0.00    +0.000 C 
ATOM     29  O   UNL     1       0.793   9.838  22.389  0.00  0.00    +0.000 OA
BRANCH  28  30
ATOM     30  C   UNL     1       1.356   9.221  20.138  0.00  0.00    +0.000 A 
ATOM     31  C   UNL     1       1.327   9.641  18.811  0.00  0.00    +0.000 A 
ATOM     32  C   UNL     1       1.791   8.768  17.828  0.00  0.00    +0.000 A 
ATOM     33  C   UNL     1       2.257   7.510  18.197  0.00  0.00    +0.000 A 
ATOM     34  C   UNL     1       2.234   7.168  19.539  0.00  0.00    +0.000 A 
ATOM     35  N   UNL     1       1.793   7.989  20.515  0.00  0.00    +0.000 NA
ENDBRANCH  28  30
ENDBRANCH  27  28
ENDBRANCH  21  27
ENDBRANCH   3  21
TORSDOF 10
ENDMDL
MODEL 6
REMARK VINA RESULT:      -6.3      0.862      1.129
REMARK  Name = 
REMARK  14 active torsions:
REMARK  status: ('A' for Active; 'I' for Inactive)
REMARK    1  A    between atoms: C_1  and  O_2
REMARK    2  A    between atoms: O_2  and  C_3
REMARK    3  A    between atoms: C_5  and  C_6
REMARK    4  A    between atoms: C_6  and  C_7
REMARK    5  A    between atoms: C_6  and  O_12
REMARK    6  A    between atoms: C_7  and  C_8
REMARK    7  A    between atoms: C_9  and  C_10
REMARK    8  A    between atoms: C_9  and  C_11
REMARK    9  A    between atoms: O_12  and  C_13
REMARK   10  A    between atoms: C_13  and  C_15
REMARK   11  A    between atoms: C_21  and  O_22
REMARK   12  A    between atoms: O_22  and  C_23
REMARK   13  A    between atoms: N_27  and  O_28
REMARK   14  A    between atoms: N_32  and  O_33
REMARK                            x       y       z     vdW  Elec       q    Type
REMARK                         _______ _______ _______ _____ _____    ______ ____
ROOT
ATOM      1  C   UNL     1      -2.724  11.337  17.685  0.00  0.00    +0.000 A 
ATOM      2  C   UNL     1      -1.390  11.105  17.984  0.00  0.00    +0.000 A 
ATOM      3  C   UNL     1      -0.849  11.360  19.240  0.00  0.00    +0.000 A 
ATOM      4  C   UNL     1      -1.707  11.838  20.269  0.00  0.00    +0.000 A 
ATOM      5  C   UNL     1      -3.076  12.197  19.972  0.00  0.00    +0.000 A 
ATOM      6  C   UNL     1      -3.571  11.923  18.652  0.00  0.00    +0.000 A 
ATOM      7  C   UNL     1      -5.005  12.212  18.251  0.00  0.00    +0.000 C 
ATOM      8  N   UNL     1      -5.444  11.913  17.062  0.00  0.00    +0.000 NA
ATOM      9  C   UNL     1      -5.871  12.833  19.260  0.00  0.00    +0.000 C 
ATOM     10  C   UNL     1      -5.433  13.119  20.476  0.00  0.00    +0.000 C 
ATOM     11  C   UNL     1      -4.049  12.858  20.939  0.00  0.00    +0.000 C 
ATOM     12  N   UNL     1      -3.687  13.235  22.129  0.00  0.00    +0.000 NA
ENDROOT
BRANCH   1  14
ATOM     13  C   UNL     1      -2.678   9.858  15.813  0.00  0.00    +0.000 C 
ATOM     14  O   UNL     1      -3.182  11.044  16.423  0.00  0.00    +0.000 OA
ENDBRANCH   1  14
BRANCH   4  15
ATOM     15  O   UNL     1      -1.065  11.708  21.476  0.00  0.00    +0.000 OA
ATOM     16  C   UNL     1      -0.445  12.761  22.180  0.00  0.00    +0.000 C 
ENDBRANCH   4  15
BRANCH   8  17
ATOM     17  O   UNL     1      -6.789  12.242  16.854  0.00  0.00    +0.000 OA
ATOM     18  H   UNL     1      -6.992  11.739  16.042  0.00  0.00    +0.000 HD
ENDBRANCH   8  17
BRANCH  12  19
ATOM     19  O   UNL     1      -4.702  13.859  22.867  0.00  0.00    +0.000 OA
ATOM     20  H   UNL     1      -4.497  14.806  22.758  0.00  0.00    +0.000 HD
ENDBRANCH  12  19
BRANCH   3  21
ATOM     21  C   UNL     1       0.659  11.072  19.421  0.00  0.00    +0.000 C 
BRANCH  21  22
ATOM     22  C   UNL     1       1.602  12.027  18.601  0.00  0.00    +0.000 C 
BRANCH  22  23
ATOM     23  C   UNL     1       1.334  13.505  18.727  0.00  0.00    +0.000 C 
ATOM     24  C   UNL     1       2.211  14.509  18.551  0.00  0.00    +0.000 C 
ATOM     25  C   UNL     1       3.682  14.358  18.256  0.00  0.00    +0.000 C 
ATOM     26  C   UNL     1       1.755  15.942  18.649  0.00  0.00    +0.000 C 
ENDBRANCH  22  23
ENDBRANCH  21  22
BRANCH  21  27
ATOM     27  O   UNL     1       0.894   9.731  18.930  0.00  0.00    +0.000 OA
BRANCH  27  28
ATOM     28  C   UNL     1       1.328   8.818  19.841  0.00  0.00    +0.000 C 
ATOM     29  O   UNL     1       1.145   8.862  21.046  0.00  0.00    +0.000 OA
BRANCH  28  30
ATOM     30  C   UNL     1       2.194   7.798  19.167  0.00  0.00    +0.000 A 
ATOM     31  C   UNL     1       2.346   6.543  19.751  0.00  0.00    +0.000 A 
ATOM     32  C   UNL     1       3.188   5.620  19.132  0.00  0.00    +0.000 A 
ATOM     33  C   UNL     1       3.853   5.979  17.964  0.00  0.00    +0.000 A 
ATOM     34  C   UNL     1       3.657   7.255  17.461  0.00  0.00    +0.000 A 
ATOM     35  N   UNL     1       2.849   8.171  18.035  0.00  0.00    +0.000 NA
ENDBRANCH  28  30
ENDBRANCH  27  28
ENDBRANCH  21  27
ENDBRANCH   3  21
TORSDOF 10
ENDMDL
MODEL 7
REMARK VINA RESULT:      -6.3      2.075      3.136
REMARK  Name = 
REMARK  14 active torsions:
REMARK  status: ('A' for Active; 'I' for Inactive)
REMARK    1  A    between atoms: C_1  and  O_2
REMARK    2  A    between atoms: O_2  and  C_3
REMARK    3  A    between atoms: C_5  and  C_6
REMARK    4  A    between atoms: C_6  and  C_7
REMARK    5  A    between atoms: C_6  and  O_12
REMARK    6  A    between atoms: C_7  and  C_8
REMARK    7  A    between atoms: C_9  and  C_10
REMARK    8  A    between atoms: C_9  and  C_11
REMARK    9  A    between atoms: O_12  and  C_13
REMARK   10  A    between atoms: C_13  and  C_15
REMARK   11  A    between atoms: C_21  and  O_22
REMARK   12  A    between atoms: O_22  and  C_23
REMARK   13  A    between atoms: N_27  and  O_28
REMARK   14  A    between atoms: N_32  and  O_33
REMARK                            x       y       z     vdW  Elec       q    Type
REMARK                         _______ _______ _______ _____ _____    ______ ____
ROOT
ATOM      1  C   UNL     1      -3.316  12.273  19.563  0.00  0.00    +0.000 A 
ATOM      2  C   UNL     1      -2.218  12.411  20.397  0.00  0.00    +0.000 A 
ATOM      3  C   UNL     1      -2.339  12.616  21.768  0.00  0.00    +0.000 A 
ATOM      4  C   UNL     1      -3.640  12.645  22.342  0.00  0.00    +0.000 A 
ATOM      5  C   UNL     1      -4.813  12.615  21.496  0.00  0.00    +0.000 A 
ATOM      6  C   UNL     1      -4.621  12.416  20.087  0.00  0.00    +0.000 A 
ATOM      7  C   UNL     1      -5.784  12.318  19.119  0.00  0.00    +0.000 C 
ATOM      8  N   UNL     1      -5.588  12.092  17.851  0.00  0.00    +0.000 NA
ATOM      9  C   UNL     1      -7.133  12.482  19.674  0.00  0.00    +0.000 C 
ATOM     10  C   UNL     1      -7.338  12.691  20.965  0.00  0.00    +0.000 C 
ATOM     11  C   UNL     1      -6.250  12.791  21.968  0.00  0.00    +0.000 C 
ATOM     12  N   UNL     1      -6.540  13.066  23.205  0.00  0.00    +0.000 NA
ENDROOT
BRANCH   1  14
ATOM     13  C   UNL     1      -2.124  11.091  17.868  0.00  0.00    +0.000 C 
ATOM     14  O   UNL     1      -3.109  12.059  18.222  0.00  0.00    +0.000 OA
ENDBRANCH   1  14
BRANCH   4  15
ATOM     15  O   UNL     1      -3.524  12.526  23.705  0.00  0.00    +0.000 OA
ATOM     16  C   UNL     1      -3.635  13.591  24.622  0.00  0.00    +0.000 C 
ENDBRANCH   4  15
BRANCH   8  17
ATOM     17  O   UNL     1      -6.765  12.027  17.097  0.00  0.00    +0.000 OA
ATOM     18  H   UNL     1      -7.337  12.663  17.568  0.00  0.00    +0.000 HD
ENDBRANCH   8  17
BRANCH  12  19
ATOM     19  O   UNL     1      -7.910  13.231  23.451  0.00  0.00    +0.000 OA
ATOM     20  H   UNL     1      -8.135  14.009  22.909  0.00  0.00    +0.000 HD
ENDBRANCH  12  19
BRANCH   3  21
ATOM     21  C   UNL     1      -1.026  12.772  22.568  0.00  0.00    +0.000 C 
BRANCH  21  22
ATOM     22  C   UNL     1      -0.458  14.239  22.599  0.00  0.00    +0.000 C 
BRANCH  22  23
ATOM     23  C   UNL     1       0.777  14.497  21.772  0.00  0.00    +0.000 C 
ATOM     24  C   UNL     1       0.839  15.075  20.560  0.00  0.00    +0.000 C 
ATOM     25  C   UNL     1      -0.340  15.528  19.734  0.00  0.00    +0.000 C 
ATOM     26  C   UNL     1       2.172  15.320  19.901  0.00  0.00    +0.000 C 
ENDBRANCH  22  23
ENDBRANCH  21  22
BRANCH  21  27
ATOM     27  O   UNL     1      -0.031  11.954  21.909  0.00  0.00    +0.000 OA
BRANCH  27  28
ATOM     28  C   UNL     1       0.056  10.658  22.315  0.00  0.00    +0.000 C 
ATOM     29  O   UNL     1      -0.190  10.237  23.433  0.00  0.00    +0.000 OA
BRANCH  28  30
ATOM     30  C   UNL     1       0.633   9.817  21.217  0.00  0.00    +0.000 A 
ATOM     31  C   UNL     1       1.134   8.553  21.520  0.00  0.00    +0.000 A 
ATOM     32  C   UNL     1       1.704   7.802  20.493  0.00  0.00    +0.000 A 
ATOM     33  C   UNL     1       1.763   8.334  19.209  0.00  0.00    +0.000 A 
ATOM     34  C   UNL     1       1.256   9.606  19.001  0.00  0.00    +0.000 A 
ATOM     35  N   UNL     1       0.698  10.359  19.971  0.00  0.00    +0.000 NA
ENDBRANCH  28  30
ENDBRANCH  27  28
ENDBRANCH  21  27
ENDBRANCH   3  21
TORSDOF 10
ENDMDL
MODEL 8
REMARK VINA RESULT:      -6.2      2.829      3.685
REMARK  Name = 
REMARK  14 active torsions:
REMARK  status: ('A' for Active; 'I' for Inactive)
REMARK    1  A    between atoms: C_1  and  O_2
REMARK    2  A    between atoms: O_2  and  C_3
REMARK    3  A    between atoms: C_5  and  C_6
REMARK    4  A    between atoms: C_6  and  C_7
REMARK    5  A    between atoms: C_6  and  O_12
REMARK    6  A    between atoms: C_7  and  C_8
REMARK    7  A    between atoms: C_9  and  C_10
REMARK    8  A    between atoms: C_9  and  C_11
REMARK    9  A    between atoms: O_12  and  C_13
REMARK   10  A    between atoms: C_13  and  C_15
REMARK   11  A    between atoms: C_21  and  O_22
REMARK   12  A    between atoms: O_22  and  C_23
REMARK   13  A    between atoms: N_27  and  O_28
REMARK   14  A    between atoms: N_32  and  O_33
REMARK                            x       y       z     vdW  Elec       q    Type
REMARK                         _______ _______ _______ _____ _____    ______ ____
ROOT
ATOM      1  C   UNL     1      -3.795  12.113  19.494  0.00  0.00    +0.000 A 
ATOM      2  C   UNL     1      -2.509  12.625  19.422  0.00  0.00    +0.000 A 
ATOM      3  C   UNL     1      -2.007  13.523  20.359  0.00  0.00    +0.000 A 
ATOM      4  C   UNL     1      -2.831  13.899  21.455  0.00  0.00    +0.000 A 
ATOM      5  C   UNL     1      -4.213  13.477  21.509  0.00  0.00    +0.000 A 
ATOM      6  C   UNL     1      -4.676  12.560  20.505  0.00  0.00    +0.000 A 
ATOM      7  C   UNL     1      -6.091  12.015  20.499  0.00  0.00    +0.000 C 
ATOM      8  N   UNL     1      -6.475  11.150  19.604  0.00  0.00    +0.000 NA
ATOM      9  C   UNL     1      -7.000  12.499  21.545  0.00  0.00    +0.000 C 
ATOM     10  C   UNL     1      -6.607  13.362  22.468  0.00  0.00    +0.000 C 
ATOM     11  C   UNL     1      -5.239  13.930  22.539  0.00  0.00    +0.000 C 
ATOM     12  N   UNL     1      -4.961  14.825  23.440  0.00  0.00    +0.000 NA
ENDROOT
BRANCH   1  14
ATOM     13  C   UNL     1      -3.719  11.419  17.213  0.00  0.00    +0.000 C 
ATOM     14  O   UNL     1      -4.209  11.219  18.537  0.00  0.00    +0.000 OA
ENDBRANCH   1  14
BRANCH   4  15
ATOM     15  O   UNL     1      -2.051  14.509  22.406  0.00  0.00    +0.000 OA
ATOM     16  C   UNL     1      -1.638  13.913  23.616  0.00  0.00    +0.000 C 
ENDBRANCH   4  15
BRANCH   8  17
ATOM     17  O   UNL     1      -7.809  10.746  19.740  0.00  0.00    +0.000 OA
ATOM     18  H   UNL     1      -8.196  11.054  18.898  0.00  0.00    +0.000 HD
ENDBRANCH   8  17
BRANCH  12  19
ATOM     19  O   UNL     1      -6.034  15.148  24.280  0.00  0.00    +0.000 OA
ATOM     20  H   UNL     1      -5.840  14.635  25.086  0.00  0.00    +0.000 HD
ENDBRANCH  12  19
BRANCH   3  21
ATOM     21  C   UNL     1      -0.561  14.024  20.138  0.00  0.00    +0.000 C 
BRANCH  21  22
ATOM     22  C   UNL     1      -0.399  15.024  18.935  0.00  0.00    +0.000 C 
BRANCH  22  23
ATOM     23  C   UNL     1       0.429  16.256  19.195  0.00  0.00    +0.000 C 
ATOM     24  C   UNL     1       0.242  17.486  18.682  0.00  0.00    +0.000 C 
ATOM     25  C   UNL     1      -0.808  17.873  17.672  0.00  0.00    +0.000 C 
ATOM     26  C   UNL     1       1.129  18.628  19.105  0.00  0.00    +0.000 C 
ENDBRANCH  22  23
ENDBRANCH  21  22
BRANCH  21  27
ATOM     27  O   UNL     1       0.244  12.863  19.826  0.00  0.00    +0.000 OA
BRANCH  27  28
ATOM     28  C   UNL     1       1.070  12.414  20.810  0.00  0.00    +0.000 C 
ATOM     29  O   UNL     1       2.139  12.906  21.132  0.00  0.00    +0.000 OA
BRANCH  28  30
ATOM     30  C   UNL     1       0.544  11.128  21.371  0.00  0.00    +0.000 A 
ATOM     31  C   UNL     1       0.592   9.975  20.591  0.00  0.00    +0.000 A 
ATOM     32  C   UNL     1       0.060   8.798  21.114  0.00  0.00    +0.000 A 
ATOM     33  C   UNL     1      -0.505   8.809  22.385  0.00  0.00    +0.000 A 
ATOM     34  C   UNL     1      -0.526  10.004  23.085  0.00  0.00    +0.000 A 
ATOM     35  N   UNL     1      -0.020  11.161  22.609  0.00  0.00    +0.000 NA
ENDBRANCH  28  30
ENDBRANCH  27  28
ENDBRANCH  21  27
ENDBRANCH   3  21
TORSDOF 10
ENDMDL
MODEL 9
REMARK VINA RESULT:      -6.1      0.927      1.078
REMARK  Name = 
REMARK  14 active torsions:
REMARK  status: ('A' for Active; 'I' for Inactive)
REMARK    1  A    between atoms: C_1  and  O_2
REMARK    2  A    between atoms: O_2  and  C_3
REMARK    3  A    between atoms: C_5  and  C_6
REMARK    4  A    between atoms: C_6  and  C_7
REMARK    5  A    between atoms: C_6  and  O_12
REMARK    6  A    between atoms: C_7  and  C_8
REMARK    7  A    between atoms: C_9  and  C_10
REMARK    8  A    between atoms: C_9  and  C_11
REMARK    9  A    between atoms: O_12  and  C_13
REMARK   10  A    between atoms: C_13  and  C_15
REMARK   11  A    between atoms: C_21  and  O_22
REMARK   12  A    between atoms: O_22  and  C_23
REMARK   13  A    between atoms: N_27  and  O_28
REMARK   14  A    between atoms: N_32  and  O_33
REMARK                            x       y       z     vdW  Elec       q    Type
REMARK                         _______ _______ _______ _____ _____    ______ ____
ROOT
ATOM      1  C   UNL     1      -2.806  11.457  17.987  0.00  0.00    +0.000 A 
ATOM      2  C   UNL     1      -1.479  11.285  18.350  0.00  0.00    +0.000 A 
ATOM      3  C   UNL     1      -1.007  11.585  19.625  0.00  0.00    +0.000 A 
ATOM      4  C   UNL     1      -1.928  12.046  20.604  0.00  0.00    +0.000 A 
ATOM      5  C   UNL     1      -3.296  12.343  20.238  0.00  0.00    +0.000 A 
ATOM      6  C   UNL     1      -3.719  12.025  18.904  0.00  0.00    +0.000 A 
ATOM      7  C   UNL     1      -5.143  12.248  18.433  0.00  0.00    +0.000 C 
ATOM      8  N   UNL     1      -5.516  11.910  17.231  0.00  0.00    +0.000 NA
ATOM      9  C   UNL     1      -6.078  12.853  19.389  0.00  0.00    +0.000 C 
ATOM     10  C   UNL     1      -5.709  13.179  20.618  0.00  0.00    +0.000 C 
ATOM     11  C   UNL     1      -4.337  12.982  21.148  0.00  0.00    +0.000 C 
ATOM     12  N   UNL     1      -4.046  13.395  22.345  0.00  0.00    +0.000 NA
ENDROOT
BRANCH   1  14
ATOM     13  C   UNL     1      -2.605   9.955  16.144  0.00  0.00    +0.000 C 
ATOM     14  O   UNL     1      -3.194  11.123  16.713  0.00  0.00    +0.000 OA
ENDBRANCH   1  14
BRANCH   4  15
ATOM     15  O   UNL     1      -1.338  11.964  21.841  0.00  0.00    +0.000 OA
ATOM     16  C   UNL     1      -0.676  13.025  22.493  0.00  0.00    +0.000 C 
ENDBRANCH   4  15
BRANCH   8  17
ATOM     17  O   UNL     1      -6.862  12.180  16.957  0.00  0.00    +0.000 OA
ATOM     18  H   UNL     1      -6.924  13.128  17.184  0.00  0.00    +0.000 HD
ENDBRANCH   8  17
BRANCH  12  19
ATOM     19  O   UNL     1      -5.117  13.992  23.024  0.00  0.00    +0.000 OA
ATOM     20  H   UNL     1      -5.269  14.808  22.513  0.00  0.00    +0.000 HD
ENDBRANCH  12  19
BRANCH   3  21
ATOM     21  C   UNL     1       0.502  11.362  19.878  0.00  0.00    +0.000 C 
BRANCH  21  22
ATOM     22  C   UNL     1       1.444  12.310  19.049  0.00  0.00    +0.000 C 
BRANCH  22  23
ATOM     23  C   UNL     1       2.311  13.254  19.843  0.00  0.00    +0.000 C 
ATOM     24  C   UNL     1       3.019  14.298  19.375  0.00  0.00    +0.000 C 
ATOM     25  C   UNL     1       3.148  14.701  17.928  0.00  0.00    +0.000 C 
ATOM     26  C   UNL     1       3.781  15.185  20.324  0.00  0.00    +0.000 C 
ENDBRANCH  22  23
ENDBRANCH  21  22
BRANCH  21  27
ATOM     27  O   UNL     1       0.803  10.008  19.464  0.00  0.00    +0.000 OA
BRANCH  27  28
ATOM     28  C   UNL     1       1.150   9.134  20.448  0.00  0.00    +0.000 C 
ATOM     29  O   UNL     1       1.058   9.331  21.649  0.00  0.00    +0.000 OA
BRANCH  28  30
ATOM     30  C   UNL     1       1.795   7.921  19.850  0.00  0.00    +0.000 A 
ATOM     31  C   UNL     1       2.340   8.002  18.572  0.00  0.00    +0.000 A 
ATOM     32  C   UNL     1       2.900   6.852  18.016  0.00  0.00    +0.000 A 
ATOM     33  C   UNL     1       2.889   5.667  18.743  0.00  0.00    +0.000 A 
ATOM     34  C   UNL     1       2.310   5.673  20.001  0.00  0.00    +0.000 A 
ATOM     35  N   UNL     1       1.761   6.767  20.569  0.00  0.00    +0.000 NA
ENDBRANCH  28  30
ENDBRANCH  27  28
ENDBRANCH  21  27
ENDBRANCH   3  21
TORSDOF 10
ENDMDL
