MODEL 1
REMARK VINA RESULT:      -8.8      0.000      0.000
REMARK  Name = 
REMARK  3 active torsions:
REMARK  status: ('A' for Active; 'I' for Inactive)
REMARK    1  A    between atoms: C_1  and  N_2
REMARK    2  A    between atoms: C_7  and  C_8
REMARK    3  A    between atoms: C_14  and  C_15
REMARK                            x       y       z     vdW  Elec       q    Type
REMARK                         _______ _______ _______ _____ _____    ______ ____
ROOT
ATOM      1  C   UNL     1       7.381   5.841  18.215  0.00  0.00    +0.000 C 
ATOM      2  N   UNL     1       6.440   5.785  17.145  0.00  0.00    +0.000 NA
ATOM      3  C   UNL     1       6.120   4.560  16.441  0.00  0.00    +0.000 C 
ATOM      4  C   UNL     1       5.822   5.284  15.121  0.00  0.00    +0.000 C 
ATOM      5  C   UNL     1       5.094   6.579  15.536  0.00  0.00    +0.000 C 
ATOM      6  C   UNL     1       5.263   6.637  17.064  0.00  0.00    +0.000 C 
ATOM      7  C   UNL     1       4.041   6.027  17.742  0.00  0.00    +0.000 C 
ATOM      8  C   UNL     1       3.890   4.687  17.764  0.00  0.00    +0.000 C 
ATOM      9  C   UNL     1       4.880   3.802  17.016  0.00  0.00    +0.000 C 
ENDROOT
BRANCH   7  10
ATOM     10  C   UNL     1       3.084   6.986  18.326  0.00  0.00    +0.000 A 
ATOM     11  C   UNL     1       2.689   6.886  19.664  0.00  0.00    +0.000 A 
ATOM     12  C   UNL     1       1.810   7.830  20.213  0.00  0.00    +0.000 A 
ATOM     13  C   UNL     1       1.322   8.878  19.435  0.00  0.00    +0.000 A 
ATOM     14  C   UNL     1       1.691   8.969  18.093  0.00  0.00    +0.000 A 
ATOM     15  C   UNL     1       2.559   8.022  17.544  0.00  0.00    +0.000 A 
ENDBRANCH   7  10
BRANCH   8  16
ATOM     16  C   UNL     1       2.872   3.997  18.581  0.00  0.00    +0.000 A 
ATOM     17  C   UNL     1       1.556   3.793  18.162  0.00  0.00    +0.000 A 
ATOM     18  C   UNL     1       0.628   3.216  19.037  0.00  0.00    +0.000 A 
ATOM     19  C   UNL     1       1.013   2.847  20.329  0.00  0.00    +0.000 A 
ATOM     20  C   UNL     1       2.327   3.038  20.744  0.00  0.00    +0.000 A 
ATOM     21  C   UNL     1       3.253   3.606  19.870  0.00  0.00    +0.000 A 
ENDBRANCH   8  16
TORSDOF 2
ENDMDL
MODEL 2
REMARK VINA RESULT:      -8.8      0.062      1.053
REMARK  Name = 
REMARK  3 active torsions:
REMARK  status: ('A' for Active; 'I' for Inactive)
REMARK    1  A    between atoms: C_1  and  N_2
REMARK    2  A    between atoms: C_7  and  C_8
REMARK    3  A    between atoms: C_14  and  C_15
REMARK                            x       y       z     vdW  Elec       q    Type
REMARK                         _______ _______ _______ _____ _____    ______ ____
ROOT
ATOM      1  C   UNL     1       7.402   5.846  18.158  0.00  0.00    +0.000 C 
ATOM      2  N   UNL     1       6.448   5.791  17.100  0.00  0.00    +0.000 NA
ATOM      3  C   UNL     1       6.105   4.564  16.411  0.00  0.00    +0.000 C 
ATOM      4  C   UNL     1       5.799   5.279  15.088  0.00  0.00    +0.000 C 
ATOM      5  C   UNL     1       5.090   6.586  15.500  0.00  0.00    +0.000 C 
ATOM      6  C   UNL     1       5.279   6.654  17.026  0.00  0.00    +0.000 C 
ATOM      7  C   UNL     1       4.059   6.064  17.724  0.00  0.00    +0.000 C 
ATOM      8  C   UNL     1       3.893   4.727  17.759  0.00  0.00    +0.000 C 
ATOM      9  C   UNL     1       4.865   3.824  17.007  0.00  0.00    +0.000 C 
ENDROOT
BRANCH   7  10
ATOM     10  C   UNL     1       3.119   7.039  18.311  0.00  0.00    +0.000 A 
ATOM     11  C   UNL     1       2.590   8.082  17.544  0.00  0.00    +0.000 A 
ATOM     12  C   UNL     1       1.669   8.976  18.108  0.00  0.00    +0.000 A 
ATOM     13  C   UNL     1       1.267   8.834  19.435  0.00  0.00    +0.000 A 
ATOM     14  C   UNL     1       1.810   7.811  20.213  0.00  0.00    +0.000 A 
ATOM     15  C   UNL     1       2.737   6.928  19.654  0.00  0.00    +0.000 A 
ENDBRANCH   7  10
BRANCH   8  16
ATOM     16  C   UNL     1       2.877   4.055  18.594  0.00  0.00    +0.000 A 
ATOM     17  C   UNL     1       1.562   3.835  18.181  0.00  0.00    +0.000 A 
ATOM     18  C   UNL     1       0.637   3.278  19.072  0.00  0.00    +0.000 A 
ATOM     19  C   UNL     1       1.023   2.944  20.373  0.00  0.00    +0.000 A 
ATOM     20  C   UNL     1       2.336   3.151  20.782  0.00  0.00    +0.000 A 
ATOM     21  C   UNL     1       3.260   3.698  19.893  0.00  0.00    +0.000 A 
ENDBRANCH   8  16
TORSDOF 2
ENDMDL
MODEL 3
REMARK VINA RESULT:      -8.7      0.177      1.063
REMARK  Name = 
REMARK  3 active torsions:
REMARK  status: ('A' for Active; 'I' for Inactive)
REMARK    1  A    between atoms: C_1  and  N_2
REMARK    2  A    between atoms: C_7  and  C_8
REMARK    3  A    between atoms: C_14  and  C_15
REMARK                            x       y       z     vdW  Elec       q    Type
REMARK                         _______ _______ _______ _____ _____    ______ ____
ROOT
ATOM      1  C   UNL     1       7.334   5.914  18.246  0.00  0.00    +0.000 C 
ATOM      2  N   UNL     1       6.396   5.842  17.174  0.00  0.00    +0.000 NA
ATOM      3  C   UNL     1       6.074   4.606  16.491  0.00  0.00    +0.000 C 
ATOM      4  C   UNL     1       5.783   5.307  15.157  0.00  0.00    +0.000 C 
ATOM      5  C   UNL     1       5.058   6.611  15.547  0.00  0.00    +0.000 C 
ATOM      6  C   UNL     1       5.222   6.696  17.074  0.00  0.00    +0.000 C 
ATOM      7  C   UNL     1       3.996   6.101  17.759  0.00  0.00    +0.000 C 
ATOM      8  C   UNL     1       3.840   4.763  17.805  0.00  0.00    +0.000 C 
ATOM      9  C   UNL     1       4.831   3.862  17.075  0.00  0.00    +0.000 C 
ENDROOT
BRANCH   7  10
ATOM     10  C   UNL     1       3.040   7.074  18.323  0.00  0.00    +0.000 A 
ATOM     11  C   UNL     1       2.630   6.991  19.658  0.00  0.00    +0.000 A 
ATOM     12  C   UNL     1       1.752   7.946  20.187  0.00  0.00    +0.000 A 
ATOM     13  C   UNL     1       1.280   8.990  19.393  0.00  0.00    +0.000 A 
ATOM     14  C   UNL     1       1.665   9.065  18.055  0.00  0.00    +0.000 A 
ATOM     15  C   UNL     1       2.532   8.105  17.524  0.00  0.00    +0.000 A 
ENDBRANCH   7  10
BRANCH   8  16
ATOM     16  C   UNL     1       2.818   4.091  18.630  0.00  0.00    +0.000 A 
ATOM     17  C   UNL     1       3.037   3.683  19.947  0.00  0.00    +0.000 A 
ATOM     18  C   UNL     1       2.045   2.965  20.627  0.00  0.00    +0.000 A 
ATOM     19  C   UNL     1       0.840   2.653  19.992  0.00  0.00    +0.000 A 
ATOM     20  C   UNL     1       0.616   3.070  18.685  0.00  0.00    +0.000 A 
ATOM     21  C   UNL     1       1.599   3.792  18.009  0.00  0.00    +0.000 A 
ENDBRANCH   8  16
TORSDOF 2
ENDMDL
MODEL 4
REMARK VINA RESULT:      -8.6      0.171      1.494
REMARK  Name = 
REMARK  3 active torsions:
REMARK  status: ('A' for Active; 'I' for Inactive)
REMARK    1  A    between atoms: C_1  and  N_2
REMARK    2  A    between atoms: C_7  and  C_8
REMARK    3  A    between atoms: C_14  and  C_15
REMARK                            x       y       z     vdW  Elec       q    Type
REMARK                         _______ _______ _______ _____ _____    ______ ____
ROOT
ATOM      1  C   UNL     1       7.370   5.880  18.199  0.00  0.00    +0.000 C 
ATOM      2  N   UNL     1       6.427   5.817  17.131  0.00  0.00    +0.000 NA
ATOM      3  C   UNL     1       6.086   4.584  16.453  0.00  0.00    +0.000 C 
ATOM      4  C   UNL     1       5.798   5.286  15.118  0.00  0.00    +0.000 C 
ATOM      5  C   UNL     1       5.091   6.600  15.508  0.00  0.00    +0.000 C 
ATOM      6  C   UNL     1       5.263   6.686  17.034  0.00  0.00    +0.000 C 
ATOM      7  C   UNL     1       4.033   6.109  17.726  0.00  0.00    +0.000 C 
ATOM      8  C   UNL     1       3.860   4.773  17.775  0.00  0.00    +0.000 C 
ATOM      9  C   UNL     1       4.836   3.857  17.043  0.00  0.00    +0.000 C 
ENDROOT
BRANCH   7  10
ATOM     10  C   UNL     1       3.092   7.095  18.292  0.00  0.00    +0.000 A 
ATOM     11  C   UNL     1       2.572   8.128  17.506  0.00  0.00    +0.000 A 
ATOM     12  C   UNL     1       1.650   9.033  18.050  0.00  0.00    +0.000 A 
ATOM     13  C   UNL     1       1.237   8.911  19.375  0.00  0.00    +0.000 A 
ATOM     14  C   UNL     1       1.770   7.898  20.172  0.00  0.00    +0.000 A 
ATOM     15  C   UNL     1       2.699   7.004  19.633  0.00  0.00    +0.000 A 
ENDBRANCH   7  10
BRANCH   8  16
ATOM     16  C   UNL     1       2.832   4.115  18.606  0.00  0.00    +0.000 A 
ATOM     17  C   UNL     1       3.049   3.715  19.926  0.00  0.00    +0.000 A 
ATOM     18  C   UNL     1       2.052   3.011  20.612  0.00  0.00    +0.000 A 
ATOM     19  C   UNL     1       0.844   2.705  19.981  0.00  0.00    +0.000 A 
ATOM     20  C   UNL     1       0.622   3.113  18.670  0.00  0.00    +0.000 A 
ATOM     21  C   UNL     1       1.610   3.822  17.989  0.00  0.00    +0.000 A 
ENDBRANCH   8  16
TORSDOF 2
ENDMDL
MODEL 5
REMARK VINA RESULT:      -8.1      1.749      4.759
REMARK  Name = 
REMARK  3 active torsions:
REMARK  status: ('A' for Active; 'I' for Inactive)
REMARK    1  A    between atoms: C_1  and  N_2
REMARK    2  A    between atoms: C_7  and  C_8
REMARK    3  A    between atoms: C_14  and  C_15
REMARK                            x       y       z     vdW  Elec       q    Type
REMARK                         _______ _______ _______ _____ _____    ______ ____
ROOT
ATOM      1  C   UNL     1       1.074   2.261  18.475  0.00  0.00    +0.000 C 
ATOM      2  N   UNL     1       1.742   2.762  19.631  0.00  0.00    +0.000 NA
ATOM      3  C   UNL     1       3.012   2.244  20.094  0.00  0.00    +0.000 C 
ATOM      4  C   UNL     1       2.708   2.547  21.568  0.00  0.00    +0.000 C 
ATOM      5  C   UNL     1       1.975   3.905  21.548  0.00  0.00    +0.000 C 
ATOM      6  C   UNL     1       1.674   4.152  20.060  0.00  0.00    +0.000 C 
ATOM      7  C   UNL     1       2.771   5.016  19.447  0.00  0.00    +0.000 C 
ATOM      8  C   UNL     1       3.969   4.469  19.161  0.00  0.00    +0.000 C 
ATOM      9  C   UNL     1       4.253   3.023  19.553  0.00  0.00    +0.000 C 
ENDROOT
BRANCH   7  10
ATOM     10  C   UNL     1       2.424   6.432  19.224  0.00  0.00    +0.000 A 
ATOM     11  C   UNL     1       2.484   6.997  17.946  0.00  0.00    +0.000 A 
ATOM     12  C   UNL     1       2.113   8.334  17.747  0.00  0.00    +0.000 A 
ATOM     13  C   UNL     1       1.678   9.114  18.816  0.00  0.00    +0.000 A 
ATOM     14  C   UNL     1       1.640   8.565  20.098  0.00  0.00    +0.000 A 
ATOM     15  C   UNL     1       2.020   7.236  20.298  0.00  0.00    +0.000 A 
ENDBRANCH   7  10
BRANCH   8  16
ATOM     16  C   UNL     1       5.008   5.155  18.368  0.00  0.00    +0.000 A 
ATOM     17  C   UNL     1       4.962   5.279  16.979  0.00  0.00    +0.000 A 
ATOM     18  C   UNL     1       6.036   5.860  16.295  0.00  0.00    +0.000 A 
ATOM     19  C   UNL     1       7.156   6.314  16.998  0.00  0.00    +0.000 A 
ATOM     20  C   UNL     1       7.198   6.203  18.383  0.00  0.00    +0.000 A 
ATOM     21  C   UNL     1       6.125   5.632  19.066  0.00  0.00    +0.000 A 
ENDBRANCH   8  16
TORSDOF 2
ENDMDL
MODEL 6
REMARK VINA RESULT:      -8.0      0.741      4.012
REMARK  Name = 
REMARK  3 active torsions:
REMARK  status: ('A' for Active; 'I' for Inactive)
REMARK    1  A    between atoms: C_1  and  N_2
REMARK    2  A    between atoms: C_7  and  C_8
REMARK    3  A    between atoms: C_14  and  C_15
REMARK                            x       y       z     vdW  Elec       q    Type
REMARK                         _______ _______ _______ _____ _____    ______ ____
ROOT
ATOM      1  C   UNL     1       5.273   4.729  14.859  0.00  0.00    +0.000 C 
ATOM      2  N   UNL     1       5.761   4.907  16.187  0.00  0.00    +0.000 NA
ATOM      3  C   UNL     1       6.365   6.141  16.646  0.00  0.00    +0.000 C 
ATOM      4  C   UNL     1       7.286   5.430  17.647  0.00  0.00    +0.000 C 
ATOM      5  C   UNL     1       6.424   4.297  18.242  0.00  0.00    +0.000 C 
ATOM      6  C   UNL     1       5.168   4.270  17.354  0.00  0.00    +0.000 C 
ATOM      7  C   UNL     1       4.066   5.108  17.992  0.00  0.00    +0.000 C 
ATOM      8  C   UNL     1       4.133   6.453  17.934  0.00  0.00    +0.000 C 
ATOM      9  C   UNL     1       5.362   7.124  17.330  0.00  0.00    +0.000 C 
ENDROOT
BRANCH   7  10
ATOM     10  C   UNL     1       2.987   4.353  18.656  0.00  0.00    +0.000 A 
ATOM     11  C   UNL     1       3.055   4.045  20.019  0.00  0.00    +0.000 A 
ATOM     12  C   UNL     1       2.003   3.361  20.642  0.00  0.00    +0.000 A 
ATOM     13  C   UNL     1       0.876   2.982  19.914  0.00  0.00    +0.000 A 
ATOM     14  C   UNL     1       0.812   3.263  18.549  0.00  0.00    +0.000 A 
ATOM     15  C   UNL     1       1.867   3.936  17.926  0.00  0.00    +0.000 A 
ENDBRANCH   7  10
BRANCH   8  16
ATOM     16  C   UNL     1       3.017   7.340  18.317  0.00  0.00    +0.000 A 
ATOM     17  C   UNL     1       2.461   8.294  17.463  0.00  0.00    +0.000 A 
ATOM     18  C   UNL     1       1.470   9.161  17.938  0.00  0.00    +0.000 A 
ATOM     19  C   UNL     1       1.037   9.078  19.264  0.00  0.00    +0.000 A 
ATOM     20  C   UNL     1       1.581   8.120  20.113  0.00  0.00    +0.000 A 
ATOM     21  C   UNL     1       2.562   7.251  19.639  0.00  0.00    +0.000 A 
ENDBRANCH   8  16
TORSDOF 2
ENDMDL
MODEL 7
REMARK VINA RESULT:      -8.0      0.736      4.134
REMARK  Name = 
REMARK  3 active torsions:
REMARK  status: ('A' for Active; 'I' for Inactive)
REMARK    1  A    between atoms: C_1  and  N_2
REMARK    2  A    between atoms: C_7  and  C_8
REMARK    3  A    between atoms: C_14  and  C_15
REMARK                            x       y       z     vdW  Elec       q    Type
REMARK                         _______ _______ _______ _____ _____    ______ ____
ROOT
ATOM      1  C   UNL     1       5.223   4.728  14.836  0.00  0.00    +0.000 C 
ATOM      2  N   UNL     1       5.723   4.902  16.161  0.00  0.00    +0.000 NA
ATOM      3  C   UNL     1       6.334   6.133  16.617  0.00  0.00    +0.000 C 
ATOM      4  C   UNL     1       7.261   5.417  17.609  0.00  0.00    +0.000 C 
ATOM      5  C   UNL     1       6.399   4.287  18.209  0.00  0.00    +0.000 C 
ATOM      6  C   UNL     1       5.136   4.265  17.331  0.00  0.00    +0.000 C 
ATOM      7  C   UNL     1       4.042   5.107  17.979  0.00  0.00    +0.000 C 
ATOM      8  C   UNL     1       4.113   6.451  17.922  0.00  0.00    +0.000 C 
ATOM      9  C   UNL     1       5.340   7.118  17.311  0.00  0.00    +0.000 C 
ENDROOT
BRANCH   7  10
ATOM     10  C   UNL     1       2.965   4.354  18.650  0.00  0.00    +0.000 A 
ATOM     11  C   UNL     1       1.820   3.956  17.953  0.00  0.00    +0.000 A 
ATOM     12  C   UNL     1       0.826   3.207  18.597  0.00  0.00    +0.000 A 
ATOM     13  C   UNL     1       0.966   2.848  19.936  0.00  0.00    +0.000 A 
ATOM     14  C   UNL     1       2.094   3.263  20.645  0.00  0.00    +0.000 A 
ATOM     15  C   UNL     1       3.080   4.019  20.005  0.00  0.00    +0.000 A 
ENDBRANCH   7  10
BRANCH   8  16
ATOM     16  C   UNL     1       3.003   7.342  18.316  0.00  0.00    +0.000 A 
ATOM     17  C   UNL     1       2.441   8.295  17.466  0.00  0.00    +0.000 A 
ATOM     18  C   UNL     1       1.456   9.165  17.949  0.00  0.00    +0.000 A 
ATOM     19  C   UNL     1       1.038   9.085  19.280  0.00  0.00    +0.000 A 
ATOM     20  C   UNL     1       1.588   8.128  20.125  0.00  0.00    +0.000 A 
ATOM     21  C   UNL     1       2.563   7.256  19.643  0.00  0.00    +0.000 A 
ENDBRANCH   8  16
TORSDOF 2
ENDMDL
MODEL 8
REMARK VINA RESULT:      -7.9      1.734      4.661
REMARK  Name = 
REMARK  3 active torsions:
REMARK  status: ('A' for Active; 'I' for Inactive)
REMARK    1  A    between atoms: C_1  and  N_2
REMARK    2  A    between atoms: C_7  and  C_8
REMARK    3  A    between atoms: C_14  and  C_15
REMARK                            x       y       z     vdW  Elec       q    Type
REMARK                         _______ _______ _______ _____ _____    ______ ____
ROOT
ATOM      1  C   UNL     1       0.815   2.282  18.592  0.00  0.00    +0.000 C 
ATOM      2  N   UNL     1       1.580   2.772  19.691  0.00  0.00    +0.000 NA
ATOM      3  C   UNL     1       2.864   2.218  20.066  0.00  0.00    +0.000 C 
ATOM      4  C   UNL     1       2.678   2.544  21.554  0.00  0.00    +0.000 C 
ATOM      5  C   UNL     1       1.987   3.924  21.573  0.00  0.00    +0.000 C 
ATOM      6  C   UNL     1       1.586   4.167  20.107  0.00  0.00    +0.000 C 
ATOM      7  C   UNL     1       2.661   4.991  19.408  0.00  0.00    +0.000 C 
ATOM      8  C   UNL     1       3.818   4.404  19.041  0.00  0.00    +0.000 C 
ATOM      9  C   UNL     1       4.086   2.954  19.428  0.00  0.00    +0.000 C 
ENDROOT
BRANCH   7  10
ATOM     10  C   UNL     1       2.342   6.416  19.195  0.00  0.00    +0.000 A 
ATOM     11  C   UNL     1       1.936   7.230  20.257  0.00  0.00    +0.000 A 
ATOM     12  C   UNL     1       1.674   8.590  20.044  0.00  0.00    +0.000 A 
ATOM     13  C   UNL     1       1.819   9.148  18.775  0.00  0.00    +0.000 A 
ATOM     14  C   UNL     1       2.200   8.337  17.706  0.00  0.00    +0.000 A 
ATOM     15  C   UNL     1       2.449   6.978  17.917  0.00  0.00    +0.000 A 
ENDBRANCH   7  10
BRANCH   8  16
ATOM     16  C   UNL     1       4.817   5.052  18.168  0.00  0.00    +0.000 A 
ATOM     17  C   UNL     1       4.766   5.008  16.774  0.00  0.00    +0.000 A 
ATOM     18  C   UNL     1       5.806   5.566  16.021  0.00  0.00    +0.000 A 
ATOM     19  C   UNL     1       6.897   6.162  16.660  0.00  0.00    +0.000 A 
ATOM     20  C   UNL     1       6.943   6.217  18.048  0.00  0.00    +0.000 A 
ATOM     21  C   UNL     1       5.904   5.670  18.799  0.00  0.00    +0.000 A 
ENDBRANCH   8  16
TORSDOF 2
ENDMDL
MODEL 9
REMARK VINA RESULT:      -7.9      1.734      4.788
REMARK  Name = 
REMARK  3 active torsions:
REMARK  status: ('A' for Active; 'I' for Inactive)
REMARK    1  A    between atoms: C_1  and  N_2
REMARK    2  A    between atoms: C_7  and  C_8
REMARK    3  A    between atoms: C_14  and  C_15
REMARK                            x       y       z     vdW  Elec       q    Type
REMARK                         _______ _______ _______ _____ _____    ______ ____
ROOT
ATOM      1  C   UNL     1       3.436   2.301  21.175  0.00  0.00    +0.000 C 
ATOM      2  N   UNL     1       3.220   2.441  19.772  0.00  0.00    +0.000 NA
ATOM      3  C   UNL     1       1.906   2.629  19.192  0.00  0.00    +0.000 C 
ATOM      4  C   UNL     1       2.275   1.914  17.886  0.00  0.00    +0.000 C 
ATOM      5  C   UNL     1       3.722   2.358  17.587  0.00  0.00    +0.000 C 
ATOM      6  C   UNL     1       4.171   3.076  18.872  0.00  0.00    +0.000 C 
ATOM      7  C   UNL     1       3.944   4.577  18.731  0.00  0.00    +0.000 C 
ATOM      8  C   UNL     1       2.696   5.076  18.834  0.00  0.00    +0.000 C 
ATOM      9  C   UNL     1       1.512   4.126  18.980  0.00  0.00    +0.000 C 
ENDROOT
BRANCH   7  10
ATOM     10  C   UNL     1       5.149   5.387  18.468  0.00  0.00    +0.000 A 
ATOM     11  C   UNL     1       6.250   5.341  19.329  0.00  0.00    +0.000 A 
ATOM     12  C   UNL     1       7.402   6.087  19.043  0.00  0.00    +0.000 A 
ATOM     13  C   UNL     1       7.465   6.880  17.899  0.00  0.00    +0.000 A 
ATOM     14  C   UNL     1       6.361   6.951  17.049  0.00  0.00    +0.000 A 
ATOM     15  C   UNL     1       5.209   6.215  17.341  0.00  0.00    +0.000 A 
ENDBRANCH   7  10
BRANCH   8  16
ATOM     16  C   UNL     1       2.403   6.519  18.937  0.00  0.00    +0.000 A 
ATOM     17  C   UNL     1       2.098   7.160  20.138  0.00  0.00    +0.000 A 
ATOM     18  C   UNL     1       1.737   8.513  20.134  0.00  0.00    +0.000 A 
ATOM     19  C   UNL     1       1.679   9.223  18.931  0.00  0.00    +0.000 A 
ATOM     20  C   UNL     1       1.995   8.589  17.735  0.00  0.00    +0.000 A 
ATOM     21  C   UNL     1       2.362   7.244  17.739  0.00  0.00    +0.000 A 
ENDBRANCH   8  16
TORSDOF 2
ENDMDL
