MODEL 1
REMARK VINA RESULT:      -8.6      0.000      0.000
REMARK  Name = 
REMARK  8 active torsions:
REMARK  status: ('A' for Active; 'I' for Inactive)
REMARK    1  A    between atoms: C_1  and  C_2
REMARK    2  A    between atoms: C_2  and  N_3
REMARK    3  A    between atoms: N_3  and  C_4
REMARK    4  A    between atoms: C_4  and  C_5
REMARK    5  A    between atoms: C_11  and  N_12
REMARK    6  A    between atoms: C_14  and  C_15
REMARK    7  A    between atoms: C_18  and  N_19
REMARK    8  A    between atoms: C_20  and  C_21
REMARK                            x       y       z     vdW  Elec       q    Type
REMARK                         _______ _______ _______ _____ _____    ______ ____
ROOT
ATOM      1  N   UNL     1       0.866  10.374  20.549  0.00  0.00    +0.000 N 
ATOM      2  C   UNL     1       1.104   9.238  19.824  0.00  0.00    +0.000 A 
ATOM      3  C   UNL     1       1.483   8.266  20.728  0.00  0.00    +0.000 A 
ATOM      4  C   UNL     1       1.375   8.908  21.981  0.00  0.00    +0.000 A 
ATOM      5  N   UNL     1       0.985  10.178  21.874  0.00  0.00    +0.000 NA
ENDROOT
BRANCH   1  12
ATOM      6  N   UNL     1      -4.397  11.703  18.016  0.00  0.00    +0.000 N 
ATOM      7  C   UNL     1      -3.708  12.150  19.144  0.00  0.00    +0.000 C 
ATOM      8  O   UNL     1      -4.283  12.905  19.938  0.00  0.00    +0.000 OA
ATOM      9  N   UNL     1      -2.391  11.786  19.395  0.00  0.00    +0.000 N 
ATOM     10  C   UNL     1      -1.930  11.935  20.785  0.00  0.00    +0.000 C 
ATOM     11  C   UNL     1      -0.496  12.451  20.888  0.00  0.00    +0.000 C 
ATOM     12  C   UNL     1       0.489  11.676  20.011  0.00  0.00    +0.000 C 
ATOM     13  C   UNL     1      -0.039  11.579  18.590  0.00  0.00    +0.000 C 
ATOM     14  C   UNL     1      -1.467  11.056  18.532  0.00  0.00    +0.000 C 
BRANCH   6  16
ATOM     15  C   UNL     1      -6.888  11.535  18.139  0.00  0.00    +0.000 C 
ATOM     16  C   UNL     1      -5.677  12.375  17.755  0.00  0.00    +0.000 C 
ENDBRANCH   6  16
BRANCH   6  17
ATOM     17  C   UNL     1      -3.959  10.667  17.076  0.00  0.00    +0.000 C 
ATOM     18  C   UNL     1      -3.659  11.019  15.627  0.00  0.00    +0.000 C 
ENDBRANCH   6  17
ENDBRANCH   1  12
BRANCH   3  19
ATOM     19  C   UNL     1       1.868   6.915  20.386  0.00  0.00    +0.000 A 
ATOM     20  C   UNL     1       1.413   5.825  21.120  0.00  0.00    +0.000 A 
ATOM     21  N   UNL     1       1.730   4.538  20.854  0.00  0.00    +0.000 NA
ATOM     22  C   UNL     1       2.549   4.292  19.808  0.00  0.00    +0.000 A 
ATOM     23  C   UNL     1       3.082   5.308  19.005  0.00  0.00    +0.000 A 
ATOM     24  C   UNL     1       2.724   6.630  19.320  0.00  0.00    +0.000 A 
BRANCH  23  25
ATOM     25  C   UNL     1       3.982   5.095  17.871  0.00  0.00    +0.000 A 
ATOM     26  N   UNL     1       3.814   4.288  16.835  0.00  0.00    +0.000 NA
ATOM     27  C   UNL     1       4.959   4.454  16.097  0.00  0.00    +0.000 A 
ATOM     28  C   UNL     1       5.388   3.852  14.907  0.00  0.00    +0.000 A 
ATOM     29  C   UNL     1       6.649   4.207  14.404  0.00  0.00    +0.000 A 
ATOM     30  C   UNL     1       7.453   5.149  15.061  0.00  0.00    +0.000 A 
ATOM     31  C   UNL     1       7.027   5.775  16.239  0.00  0.00    +0.000 A 
ATOM     32  C   UNL     1       5.780   5.385  16.710  0.00  0.00    +0.000 A 
ATOM     33  O   UNL     1       5.148   5.821  17.834  0.00  0.00    +0.000 OA
ENDBRANCH  23  25
BRANCH  22  34
ATOM     34  N   UNL     1       2.733   2.933  19.567  0.00  0.00    +0.000 N 
ATOM     35  H   UNL     1       1.835   2.478  19.643  0.00  0.00    +0.000 HD
ATOM     36  H   UNL     1       3.451   2.529  20.164  0.00  0.00    +0.000 HD
ENDBRANCH  22  34
ENDBRANCH   3  19
TORSDOF 6
ENDMDL
MODEL 2
REMARK VINA RESULT:      -8.6      0.666      1.063
REMARK  Name = 
REMARK  8 active torsions:
REMARK  status: ('A' for Active; 'I' for Inactive)
REMARK    1  A    between atoms: C_1  and  C_2
REMARK    2  A    between atoms: C_2  and  N_3
REMARK    3  A    between atoms: N_3  and  C_4
REMARK    4  A    between atoms: C_4  and  C_5
REMARK    5  A    between atoms: C_11  and  N_12
REMARK    6  A    between atoms: C_14  and  C_15
REMARK    7  A    between atoms: C_18  and  N_19
REMARK    8  A    between atoms: C_20  and  C_21
REMARK                            x       y       z     vdW  Elec       q    Type
REMARK                         _______ _______ _______ _____ _____    ______ ____
ROOT
ATOM      1  N   UNL     1       0.830  10.354  20.598  0.00  0.00    +0.000 N 
ATOM      2  C   UNL     1       1.127   9.249  19.847  0.00  0.00    +0.000 A 
ATOM      3  C   UNL     1       1.469   8.249  20.735  0.00  0.00    +0.000 A 
ATOM      4  C   UNL     1       1.280   8.843  22.002  0.00  0.00    +0.000 A 
ATOM      5  N   UNL     1       0.877  10.111  21.920  0.00  0.00    +0.000 NA
ENDROOT
BRANCH   1  12
ATOM      6  N   UNL     1      -4.609  11.946  18.659  0.00  0.00    +0.000 N 
ATOM      7  C   UNL     1      -3.773  12.364  19.694  0.00  0.00    +0.000 C 
ATOM      8  O   UNL     1      -4.213  13.157  20.537  0.00  0.00    +0.000 OA
ATOM      9  N   UNL     1      -2.458  11.931  19.800  0.00  0.00    +0.000 N 
ATOM     10  C   UNL     1      -1.834  12.067  21.126  0.00  0.00    +0.000 C 
ATOM     11  C   UNL     1      -0.372  12.505  21.058  0.00  0.00    +0.000 C 
ATOM     12  C   UNL     1       0.464  11.669  20.086  0.00  0.00    +0.000 C 
ATOM     13  C   UNL     1      -0.227  11.588  18.736  0.00  0.00    +0.000 C 
ATOM     14  C   UNL     1      -1.678  11.144  18.848  0.00  0.00    +0.000 C 
BRANCH   6  16
ATOM     15  C   UNL     1      -7.071  11.786  18.255  0.00  0.00    +0.000 C 
ATOM     16  C   UNL     1      -5.873  12.684  18.535  0.00  0.00    +0.000 C 
ENDBRANCH   6  16
BRANCH   6  17
ATOM     17  C   UNL     1      -4.337  10.878  17.691  0.00  0.00    +0.000 C 
ATOM     18  C   UNL     1      -4.214  11.197  16.208  0.00  0.00    +0.000 C 
ENDBRANCH   6  17
ENDBRANCH   1  12
BRANCH   3  19
ATOM     19  C   UNL     1       1.894   6.916  20.368  0.00  0.00    +0.000 A 
ATOM     20  C   UNL     1       1.369   5.791  20.993  0.00  0.00    +0.000 A 
ATOM     21  N   UNL     1       1.718   4.520  20.697  0.00  0.00    +0.000 NA
ATOM     22  C   UNL     1       2.643   4.326  19.731  0.00  0.00    +0.000 A 
ATOM     23  C   UNL     1       3.254   5.381  19.041  0.00  0.00    +0.000 A 
ATOM     24  C   UNL     1       2.858   6.686  19.384  0.00  0.00    +0.000 A 
BRANCH  23  25
ATOM     25  C   UNL     1       4.268   5.226  17.999  0.00  0.00    +0.000 A 
ATOM     26  N   UNL     1       5.521   5.653  18.008  0.00  0.00    +0.000 NA
ATOM     27  C   UNL     1       6.011   5.271  16.785  0.00  0.00    +0.000 A 
ATOM     28  C   UNL     1       7.265   5.460  16.190  0.00  0.00    +0.000 A 
ATOM     29  C   UNL     1       7.458   4.976  14.887  0.00  0.00    +0.000 A 
ATOM     30  C   UNL     1       6.434   4.305  14.204  0.00  0.00    +0.000 A 
ATOM     31  C   UNL     1       5.184   4.088  14.795  0.00  0.00    +0.000 A 
ATOM     32  C   UNL     1       5.030   4.596  16.079  0.00  0.00    +0.000 A 
ATOM     33  O   UNL     1       3.917   4.539  16.862  0.00  0.00    +0.000 OA
ENDBRANCH  23  25
BRANCH  22  34
ATOM     34  N   UNL     1       2.858   2.981  19.443  0.00  0.00    +0.000 N 
ATOM     35  H   UNL     1       3.255   2.921  18.516  0.00  0.00    +0.000 HD
ATOM     36  H   UNL     1       2.020   2.420  19.569  0.00  0.00    +0.000 HD
ENDBRANCH  22  34
ENDBRANCH   3  19
TORSDOF 6
ENDMDL
MODEL 3
REMARK VINA RESULT:      -8.2      6.179     10.639
REMARK  Name = 
REMARK  8 active torsions:
REMARK  status: ('A' for Active; 'I' for Inactive)
REMARK    1  A    between atoms: C_1  and  C_2
REMARK    2  A    between atoms: C_2  and  N_3
REMARK    3  A    between atoms: N_3  and  C_4
REMARK    4  A    between atoms: C_4  and  C_5
REMARK    5  A    between atoms: C_11  and  N_12
REMARK    6  A    between atoms: C_14  and  C_15
REMARK    7  A    between atoms: C_18  and  N_19
REMARK    8  A    between atoms: C_20  and  C_21
REMARK                            x       y       z     vdW  Elec       q    Type
REMARK                         _______ _______ _______ _____ _____    ______ ____
ROOT
ATOM      1  N   UNL     1       7.813   7.080  18.084  0.00  0.00    +0.000 N 
ATOM      2  C   UNL     1       8.566   7.873  18.907  0.00  0.00    +0.000 A 
ATOM      3  C   UNL     1       8.502   9.151  18.391  0.00  0.00    +0.000 A 
ATOM      4  C   UNL     1       7.628   9.028  17.289  0.00  0.00    +0.000 A 
ATOM      5  N   UNL     1       7.197   7.778  17.113  0.00  0.00    +0.000 NA
ENDROOT
BRANCH   1  12
ATOM      6  N   UNL     1       2.592   4.298  19.017  0.00  0.00    +0.000 N 
ATOM      7  C   UNL     1       3.541   4.290  17.996  0.00  0.00    +0.000 C 
ATOM      8  O   UNL     1       3.283   3.696  16.940  0.00  0.00    +0.000 OA
ATOM      9  N   UNL     1       4.776   4.911  18.132  0.00  0.00    +0.000 N 
ATOM     10  C   UNL     1       5.489   5.220  16.882  0.00  0.00    +0.000 C 
ATOM     11  C   UNL     1       6.995   4.985  16.978  0.00  0.00    +0.000 C 
ATOM     12  C   UNL     1       7.631   5.639  18.207  0.00  0.00    +0.000 C 
ATOM     13  C   UNL     1       6.859   5.262  19.459  0.00  0.00    +0.000 C 
ATOM     14  C   UNL     1       5.365   5.517  19.323  0.00  0.00    +0.000 C 
BRANCH   6  16
ATOM     15  C   UNL     1       1.025   2.683  20.106  0.00  0.00    +0.000 C 
ATOM     16  C   UNL     1       1.456   3.387  18.826  0.00  0.00    +0.000 C 
ENDBRANCH   6  16
BRANCH   6  17
ATOM     17  C   UNL     1       2.635   5.097  20.246  0.00  0.00    +0.000 C 
ATOM     18  C   UNL     1       1.767   6.339  20.387  0.00  0.00    +0.000 C 
ENDBRANCH   6  17
ENDBRANCH   1  12
BRANCH   3  19
ATOM     19  C   UNL     1       9.189  10.304  18.931  0.00  0.00    +0.000 A 
ATOM     20  C   UNL     1      10.233  10.911  18.243  0.00  0.00    +0.000 A 
ATOM     21  N   UNL     1      10.914  11.991  18.687  0.00  0.00    +0.000 NA
ATOM     22  C   UNL     1      10.561  12.515  19.881  0.00  0.00    +0.000 A 
ATOM     23  C   UNL     1       9.536  11.981  20.672  0.00  0.00    +0.000 A 
ATOM     24  C   UNL     1       8.856  10.858  20.169  0.00  0.00    +0.000 A 
BRANCH  23  25
ATOM     25  C   UNL     1       9.124  12.502  21.975  0.00  0.00    +0.000 A 
ATOM     26  N   UNL     1       9.236  13.739  22.433  0.00  0.00    +0.000 NA
ATOM     27  C   UNL     1       8.728  13.669  23.706  0.00  0.00    +0.000 A 
ATOM     28  C   UNL     1       8.600  14.642  24.706  0.00  0.00    +0.000 A 
ATOM     29  C   UNL     1       8.065  14.251  25.943  0.00  0.00    +0.000 A 
ATOM     30  C   UNL     1       7.652  12.930  26.170  0.00  0.00    +0.000 A 
ATOM     31  C   UNL     1       7.753  11.954  25.172  0.00  0.00    +0.000 A 
ATOM     32  C   UNL     1       8.301  12.379  23.968  0.00  0.00    +0.000 A 
ATOM     33  O   UNL     1       8.527  11.630  22.853  0.00  0.00    +0.000 OA
ENDBRANCH  23  25
BRANCH  22  34
ATOM     34  N   UNL     1      11.262  13.676  20.196  0.00  0.00    +0.000 N 
ATOM     35  H   UNL     1      10.610  14.333  20.601  0.00  0.00    +0.000 HD
ATOM     36  H   UNL     1      11.777  14.044  19.401  0.00  0.00    +0.000 HD
ENDBRANCH  22  34
ENDBRANCH   3  19
TORSDOF 6
ENDMDL
MODEL 4
REMARK VINA RESULT:      -8.2      2.685      4.391
REMARK  Name = 
REMARK  8 active torsions:
REMARK  status: ('A' for Active; 'I' for Inactive)
REMARK    1  A    between atoms: C_1  and  C_2
REMARK    2  A    between atoms: C_2  and  N_3
REMARK    3  A    between atoms: N_3  and  C_4
REMARK    4  A    between atoms: C_4  and  C_5
REMARK    5  A    between atoms: C_11  and  N_12
REMARK    6  A    between atoms: C_14  and  C_15
REMARK    7  A    between atoms: C_18  and  N_19
REMARK    8  A    between atoms: C_20  and  C_21
REMARK                            x       y       z     vdW  Elec       q    Type
REMARK                         _______ _______ _______ _____ _____    ______ ____
ROOT
ATOM      1  N   UNL     1       0.827   9.592  19.289  0.00  0.00    +0.000 N 
ATOM      2  C   UNL     1       1.644   8.569  19.686  0.00  0.00    +0.000 A 
ATOM      3  C   UNL     1       2.183   8.026  18.538  0.00  0.00    +0.000 A 
ATOM      4  C   UNL     1       1.673   8.842  17.505  0.00  0.00    +0.000 A 
ATOM      5  N   UNL     1       0.867   9.801  17.961  0.00  0.00    +0.000 NA
ENDROOT
BRANCH   1  12
ATOM      6  N   UNL     1       1.475  15.492  20.097  0.00  0.00    +0.000 N 
ATOM      7  C   UNL     1       0.463  14.673  19.593  0.00  0.00    +0.000 C 
ATOM      8  O   UNL     1      -0.519  15.197  19.050  0.00  0.00    +0.000 OA
ATOM      9  N   UNL     1       0.516  13.289  19.696  0.00  0.00    +0.000 N 
ATOM     10  C   UNL     1      -0.342  12.537  18.767  0.00  0.00    +0.000 C 
ATOM     11  C   UNL     1      -0.992  11.312  19.409  0.00  0.00    +0.000 C 
ATOM     12  C   UNL     1       0.004  10.424  20.158  0.00  0.00    +0.000 C 
ATOM     13  C   UNL     1       0.839  11.261  21.112  0.00  0.00    +0.000 C 
ATOM     14  C   UNL     1       1.472  12.466  20.431  0.00  0.00    +0.000 C 
BRANCH   6  16
ATOM     15  C   UNL     1       0.559  17.364  21.477  0.00  0.00    +0.000 C 
ATOM     16  C   UNL     1       1.156  16.925  20.146  0.00  0.00    +0.000 C 
ENDBRANCH   6  16
BRANCH   6  17
ATOM     17  C   UNL     1       2.785  15.059  20.591  0.00  0.00    +0.000 C 
ATOM     18  C   UNL     1       3.984  15.011  19.655  0.00  0.00    +0.000 C 
ENDBRANCH   6  17
ENDBRANCH   1  12
BRANCH   3  19
ATOM     19  C   UNL     1       3.076   6.889  18.493  0.00  0.00    +0.000 A 
ATOM     20  C   UNL     1       3.264   6.071  19.600  0.00  0.00    +0.000 A 
ATOM     21  N   UNL     1       4.080   4.993  19.625  0.00  0.00    +0.000 NA
ATOM     22  C   UNL     1       4.763   4.690  18.499  0.00  0.00    +0.000 A 
ATOM     23  C   UNL     1       4.667   5.449  17.325  0.00  0.00    +0.000 A 
ATOM     24  C   UNL     1       3.807   6.561  17.348  0.00  0.00    +0.000 A 
BRANCH  23  25
ATOM     25  C   UNL     1       5.393   5.172  16.086  0.00  0.00    +0.000 A 
ATOM     26  N   UNL     1       6.498   5.750  15.640  0.00  0.00    +0.000 NA
ATOM     27  C   UNL     1       6.728   5.140  14.433  0.00  0.00    +0.000 A 
ATOM     28  C   UNL     1       7.726   5.339  13.471  0.00  0.00    +0.000 A 
ATOM     29  C   UNL     1       7.675   4.571  12.297  0.00  0.00    +0.000 A 
ATOM     30  C   UNL     1       6.664   3.620  12.096  0.00  0.00    +0.000 A 
ATOM     31  C   UNL     1       5.673   3.396  13.059  0.00  0.00    +0.000 A 
ATOM     32  C   UNL     1       5.753   4.186  14.199  0.00  0.00    +0.000 A 
ATOM     33  O   UNL     1       4.909   4.181  15.268  0.00  0.00    +0.000 OA
ENDBRANCH  23  25
BRANCH  22  34
ATOM     34  N   UNL     1       5.497   3.512  18.606  0.00  0.00    +0.000 N 
ATOM     35  H   UNL     1       5.324   2.962  17.777  0.00  0.00    +0.000 HD
ATOM     36  H   UNL     1       5.310   3.018  19.475  0.00  0.00    +0.000 HD
ENDBRANCH  22  34
ENDBRANCH   3  19
TORSDOF 6
ENDMDL
MODEL 5
REMARK VINA RESULT:      -8.1      1.174      1.499
REMARK  Name = 
REMARK  8 active torsions:
REMARK  status: ('A' for Active; 'I' for Inactive)
REMARK    1  A    between atoms: C_1  and  C_2
REMARK    2  A    between atoms: C_2  and  N_3
REMARK    3  A    between atoms: N_3  and  C_4
REMARK    4  A    between atoms: C_4  and  C_5
REMARK    5  A    between atoms: C_11  and  N_12
REMARK    6  A    between atoms: C_14  and  C_15
REMARK    7  A    between atoms: C_18  and  N_19
REMARK    8  A    between atoms: C_20  and  C_21
REMARK                            x       y       z     vdW  Elec       q    Type
REMARK                         _______ _______ _______ _____ _____    ______ ____
ROOT
ATOM      1  N   UNL     1       1.448   9.315  19.712  0.00  0.00    +0.000 N 
ATOM      2  C   UNL     1       2.036   8.341  18.951  0.00  0.00    +0.000 A 
ATOM      3  C   UNL     1       2.185   7.239  19.768  0.00  0.00    +0.000 A 
ATOM      4  C   UNL     1       1.593   7.637  20.986  0.00  0.00    +0.000 A 
ATOM      5  N   UNL     1       1.131   8.887  20.947  0.00  0.00    +0.000 NA
ENDROOT
BRANCH   1  12
ATOM      6  N   UNL     1      -3.871  11.228  17.730  0.00  0.00    +0.000 N 
ATOM      7  C   UNL     1      -3.055  11.543  18.817  0.00  0.00    +0.000 C 
ATOM      8  O   UNL     1      -3.495  12.291  19.700  0.00  0.00    +0.000 OA
ATOM      9  N   UNL     1      -1.759  11.058  18.930  0.00  0.00    +0.000 N 
ATOM     10  C   UNL     1      -1.173  11.079  20.280  0.00  0.00    +0.000 C 
ATOM     11  C   UNL     1       0.304  11.470  20.287  0.00  0.00    +0.000 C 
ATOM     12  C   UNL     1       1.142  10.674  19.283  0.00  0.00    +0.000 C 
ATOM     13  C   UNL     1       0.493  10.712  17.911  0.00  0.00    +0.000 C 
ATOM     14  C   UNL     1      -0.976  10.312  17.949  0.00  0.00    +0.000 C 
BRANCH   6  16
ATOM     15  C   UNL     1      -6.357  11.232  17.993  0.00  0.00    +0.000 C 
ATOM     16  C   UNL     1      -5.105  12.017  17.622  0.00  0.00    +0.000 C 
ENDBRANCH   6  16
BRANCH   6  17
ATOM     17  C   UNL     1      -3.604  10.221  16.698  0.00  0.00    +0.000 C 
ATOM     18  C   UNL     1      -3.305  10.646  15.268  0.00  0.00    +0.000 C 
ENDBRANCH   6  17
ENDBRANCH   1  12
BRANCH   3  19
ATOM     19  C   UNL     1       2.803   5.990  19.380  0.00  0.00    +0.000 A 
ATOM     20  C   UNL     1       2.749   4.870  20.201  0.00  0.00    +0.000 A 
ATOM     21  N   UNL     1       3.299   3.673  19.898  0.00  0.00    +0.000 NA
ATOM     22  C   UNL     1       3.951   3.556  18.720  0.00  0.00    +0.000 A 
ATOM     23  C   UNL     1       4.085   4.619  17.817  0.00  0.00    +0.000 A 
ATOM     24  C   UNL     1       3.495   5.844  18.175  0.00  0.00    +0.000 A 
BRANCH  23  25
ATOM     25  C   UNL     1       4.791   4.548  16.538  0.00  0.00    +0.000 A 
ATOM     26  N   UNL     1       4.490   3.814  15.478  0.00  0.00    +0.000 NA
ATOM     27  C   UNL     1       5.485   4.104  14.580  0.00  0.00    +0.000 A 
ATOM     28  C   UNL     1       5.737   3.622  13.288  0.00  0.00    +0.000 A 
ATOM     29  C   UNL     1       6.877   4.090  12.619  0.00  0.00    +0.000 A 
ATOM     30  C   UNL     1       7.735   5.026  13.214  0.00  0.00    +0.000 A 
ATOM     31  C   UNL     1       7.484   5.533  14.494  0.00  0.00    +0.000 A 
ATOM     32  C   UNL     1       6.352   5.034  15.127  0.00  0.00    +0.000 A 
ATOM     33  O   UNL     1       5.898   5.344  16.373  0.00  0.00    +0.000 OA
ENDBRANCH  23  25
BRANCH  22  34
ATOM     34  N   UNL     1       4.397   2.261  18.468  0.00  0.00    +0.000 N 
ATOM     35  H   UNL     1       4.772   1.888  19.329  0.00  0.00    +0.000 HD
ATOM     36  H   UNL     1       5.043   2.221  17.685  0.00  0.00    +0.000 HD
ENDBRANCH  22  34
ENDBRANCH   3  19
TORSDOF 6
ENDMDL
MODEL 6
REMARK VINA RESULT:      -8.0      6.261     10.706
REMARK  Name = 
REMARK  8 active torsions:
REMARK  status: ('A' for Active; 'I' for Inactive)
REMARK    1  A    between atoms: C_1  and  C_2
REMARK    2  A    between atoms: C_2  and  N_3
REMARK    3  A    between atoms: N_3  and  C_4
REMARK    4  A    between atoms: C_4  and  C_5
REMARK    5  A    between atoms: C_11  and  N_12
REMARK    6  A    between atoms: C_14  and  C_15
REMARK    7  A    between atoms: C_18  and  N_19
REMARK    8  A    between atoms: C_20  and  C_21
REMARK                            x       y       z     vdW  Elec       q    Type
REMARK                         _______ _______ _______ _____ _____    ______ ____
ROOT
ATOM      1  N   UNL     1       7.861   7.053  18.107  0.00  0.00    +0.000 N 
ATOM      2  C   UNL     1       8.573   7.849  18.963  0.00  0.00    +0.000 A 
ATOM      3  C   UNL     1       8.526   9.127  18.445  0.00  0.00    +0.000 A 
ATOM      4  C   UNL     1       7.702   9.000  17.305  0.00  0.00    +0.000 A 
ATOM      5  N   UNL     1       7.286   7.749  17.111  0.00  0.00    +0.000 NA
ENDROOT
BRANCH   1  12
ATOM      6  N   UNL     1       2.622   4.252  18.870  0.00  0.00    +0.000 N 
ATOM      7  C   UNL     1       3.604   4.248  17.879  0.00  0.00    +0.000 C 
ATOM      8  O   UNL     1       3.381   3.655  16.816  0.00  0.00    +0.000 OA
ATOM      9  N   UNL     1       4.831   4.874  18.056  0.00  0.00    +0.000 N 
ATOM     10  C   UNL     1       5.583   5.186  16.830  0.00  0.00    +0.000 C 
ATOM     11  C   UNL     1       7.086   4.956  16.974  0.00  0.00    +0.000 C 
ATOM     12  C   UNL     1       7.680   5.611  18.223  0.00  0.00    +0.000 C 
ATOM     13  C   UNL     1       6.870   5.230  19.450  0.00  0.00    +0.000 C 
ATOM     14  C   UNL     1       5.380   5.479  19.266  0.00  0.00    +0.000 C 
BRANCH   6  16
ATOM     15  C   UNL     1       1.562   2.075  19.492  0.00  0.00    +0.000 C 
ATOM     16  C   UNL     1       1.496   3.337  18.642  0.00  0.00    +0.000 C 
ENDBRANCH   6  16
BRANCH   6  17
ATOM     17  C   UNL     1       2.624   5.049  20.101  0.00  0.00    +0.000 C 
ATOM     18  C   UNL     1       1.964   6.420  20.130  0.00  0.00    +0.000 C 
ENDBRANCH   6  17
ENDBRANCH   1  12
BRANCH   3  19
ATOM     19  C   UNL     1       9.184  10.283  19.013  0.00  0.00    +0.000 A 
ATOM     20  C   UNL     1      10.197  10.947  18.332  0.00  0.00    +0.000 A 
ATOM     21  N   UNL     1      10.849  12.034  18.803  0.00  0.00    +0.000 NA
ATOM     22  C   UNL     1      10.498  12.505  20.020  0.00  0.00    +0.000 A 
ATOM     23  C   UNL     1       9.503  11.911  20.806  0.00  0.00    +0.000 A 
ATOM     24  C   UNL     1       8.852  10.783  20.275  0.00  0.00    +0.000 A 
BRANCH  23  25
ATOM     25  C   UNL     1       9.095  12.373  22.133  0.00  0.00    +0.000 A 
ATOM     26  N   UNL     1       8.589  11.660  23.127  0.00  0.00    +0.000 NA
ATOM     27  C   UNL     1       8.362  12.583  24.116  0.00  0.00    +0.000 A 
ATOM     28  C   UNL     1       7.811  12.451  25.397  0.00  0.00    +0.000 A 
ATOM     29  C   UNL     1       7.671  13.608  26.179  0.00  0.00    +0.000 A 
ATOM     30  C   UNL     1       8.085  14.859  25.702  0.00  0.00    +0.000 A 
ATOM     31  C   UNL     1       8.658  15.003  24.433  0.00  0.00    +0.000 A 
ATOM     32  C   UNL     1       8.765  13.836  23.687  0.00  0.00    +0.000 A 
ATOM     33  O   UNL     1       9.262  13.705  22.426  0.00  0.00    +0.000 OA
ENDBRANCH  23  25
BRANCH  22  34
ATOM     34  N   UNL     1      11.165  13.677  20.364  0.00  0.00    +0.000 N 
ATOM     35  H   UNL     1      12.100  13.626  19.986  0.00  0.00    +0.000 HD
ATOM     36  H   UNL     1      11.134  13.859  21.364  0.00  0.00    +0.000 HD
ENDBRANCH  22  34
ENDBRANCH   3  19
TORSDOF 6
ENDMDL
MODEL 7
REMARK VINA RESULT:      -8.0      1.849      2.388
REMARK  Name = 
REMARK  8 active torsions:
REMARK  status: ('A' for Active; 'I' for Inactive)
REMARK    1  A    between atoms: C_1  and  C_2
REMARK    2  A    between atoms: C_2  and  N_3
REMARK    3  A    between atoms: N_3  and  C_4
REMARK    4  A    between atoms: C_4  and  C_5
REMARK    5  A    between atoms: C_11  and  N_12
REMARK    6  A    between atoms: C_14  and  C_15
REMARK    7  A    between atoms: C_18  and  N_19
REMARK    8  A    between atoms: C_20  and  C_21
REMARK                            x       y       z     vdW  Elec       q    Type
REMARK                         _______ _______ _______ _____ _____    ______ ____
ROOT
ATOM      1  N   UNL     1       0.306  11.819  20.231  0.00  0.00    +0.000 N 
ATOM      2  C   UNL     1       0.663  10.623  20.791  0.00  0.00    +0.000 A 
ATOM      3  C   UNL     1       1.051   9.801  19.752  0.00  0.00    +0.000 A 
ATOM      4  C   UNL     1       0.950  10.626  18.611  0.00  0.00    +0.000 A 
ATOM      5  N   UNL     1       0.517  11.853  18.903  0.00  0.00    +0.000 NA
ENDROOT
BRANCH   1  12
ATOM      6  N   UNL     1      -5.479  12.886  21.356  0.00  0.00    +0.000 N 
ATOM      7  C   UNL     1      -4.348  12.670  22.143  0.00  0.00    +0.000 C 
ATOM      8  O   UNL     1      -4.485  12.526  23.365  0.00  0.00    +0.000 OA
ATOM      9  N   UNL     1      -3.070  12.628  21.601  0.00  0.00    +0.000 N 
ATOM     10  C   UNL     1      -2.039  11.967  22.418  0.00  0.00    +0.000 C 
ATOM     11  C   UNL     1      -0.688  12.677  22.366  0.00  0.00    +0.000 C 
ATOM     12  C   UNL     1      -0.219  12.979  20.940  0.00  0.00    +0.000 C 
ATOM     13  C   UNL     1      -1.321  13.677  20.163  0.00  0.00    +0.000 C 
ATOM     14  C   UNL     1      -2.648  12.936  20.237  0.00  0.00    +0.000 C 
BRANCH   6  16
ATOM     15  C   UNL     1      -7.712  12.009  22.059  0.00  0.00    +0.000 C 
ATOM     16  C   UNL     1      -6.717  13.162  22.098  0.00  0.00    +0.000 C 
ENDBRANCH   6  16
BRANCH   6  17
ATOM     17  C   UNL     1      -5.539  12.886  19.891  0.00  0.00    +0.000 C 
ATOM     18  C   UNL     1      -5.764  11.587  19.130  0.00  0.00    +0.000 C 
ENDBRANCH   6  17
ENDBRANCH   1  12
BRANCH   3  19
ATOM     19  C   UNL     1       1.470   8.423  19.890  0.00  0.00    +0.000 A 
ATOM     20  C   UNL     1       1.046   7.641  20.957  0.00  0.00    +0.000 A 
ATOM     21  N   UNL     1       1.396   6.348  21.144  0.00  0.00    +0.000 NA
ATOM     22  C   UNL     1       2.217   5.778  20.235  0.00  0.00    +0.000 A 
ATOM     23  C   UNL     1       2.722   6.470  19.127  0.00  0.00    +0.000 A 
ATOM     24  C   UNL     1       2.330   7.811  18.975  0.00  0.00    +0.000 A 
BRANCH  23  25
ATOM     25  C   UNL     1       3.623   5.903  18.124  0.00  0.00    +0.000 A 
ATOM     26  N   UNL     1       3.469   4.791  17.422  0.00  0.00    +0.000 NA
ATOM     27  C   UNL     1       4.609   4.718  16.661  0.00  0.00    +0.000 A 
ATOM     28  C   UNL     1       5.047   3.758  15.740  0.00  0.00    +0.000 A 
ATOM     29  C   UNL     1       6.300   3.944  15.137  0.00  0.00    +0.000 A 
ATOM     30  C   UNL     1       7.087   5.067  15.432  0.00  0.00    +0.000 A 
ATOM     31  C   UNL     1       6.652   6.046  16.333  0.00  0.00    +0.000 A 
ATOM     32  C   UNL     1       5.413   5.815  16.918  0.00  0.00    +0.000 A 
ATOM     33  O   UNL     1       4.775   6.595  17.835  0.00  0.00    +0.000 OA
ENDBRANCH  23  25
BRANCH  22  34
ATOM     34  N   UNL     1       2.437   4.424  20.472  0.00  0.00    +0.000 N 
ATOM     35  H   UNL     1       3.240   4.138  19.930  0.00  0.00    +0.000 HD
ATOM     36  H   UNL     1       1.606   3.862  20.305  0.00  0.00    +0.000 HD
ENDBRANCH  22  34
ENDBRANCH   3  19
TORSDOF 6
ENDMDL
MODEL 8
REMARK VINA RESULT:      -8.0      2.493      3.289
REMARK  Name = 
REMARK  8 active torsions:
REMARK  status: ('A' for Active; 'I' for Inactive)
REMARK    1  A    between atoms: C_1  and  C_2
REMARK    2  A    between atoms: C_2  and  N_3
REMARK    3  A    between atoms: N_3  and  C_4
REMARK    4  A    between atoms: C_4  and  C_5
REMARK    5  A    between atoms: C_11  and  N_12
REMARK    6  A    between atoms: C_14  and  C_15
REMARK    7  A    between atoms: C_18  and  N_19
REMARK    8  A    between atoms: C_20  and  C_21
REMARK                            x       y       z     vdW  Elec       q    Type
REMARK                         _______ _______ _______ _____ _____    ______ ____
ROOT
ATOM      1  N   UNL     1      -0.205  12.063  20.349  0.00  0.00    +0.000 N 
ATOM      2  C   UNL     1       0.389  10.963  20.905  0.00  0.00    +0.000 A 
ATOM      3  C   UNL     1       0.611  10.072  19.875  0.00  0.00    +0.000 A 
ATOM      4  C   UNL     1       0.171  10.765  18.727  0.00  0.00    +0.000 A 
ATOM      5  N   UNL     1      -0.306  11.977  19.011  0.00  0.00    +0.000 NA
ENDROOT
BRANCH   1  12
ATOM      6  N   UNL     1      -5.675  12.797  22.676  0.00  0.00    +0.000 N 
ATOM      7  C   UNL     1      -4.383  12.746  23.199  0.00  0.00    +0.000 C 
ATOM      8  O   UNL     1      -4.234  12.713  24.428  0.00  0.00    +0.000 OA
ATOM      9  N   UNL     1      -3.258  12.747  22.385  0.00  0.00    +0.000 N 
ATOM     10  C   UNL     1      -2.014  12.250  22.995  0.00  0.00    +0.000 C 
ATOM     11  C   UNL     1      -0.781  13.051  22.580  0.00  0.00    +0.000 C 
ATOM     12  C   UNL     1      -0.669  13.245  21.066  0.00  0.00    +0.000 C 
ATOM     13  C   UNL     1      -1.977  13.778  20.508  0.00  0.00    +0.000 C 
ATOM     14  C   UNL     1      -3.178  12.949  20.940  0.00  0.00    +0.000 C 
BRANCH   6  16
ATOM     15  C   UNL     1      -7.047  14.531  23.841  0.00  0.00    +0.000 C 
ATOM     16  C   UNL     1      -6.739  13.051  23.656  0.00  0.00    +0.000 C 
ENDBRANCH   6  16
BRANCH   6  17
ATOM     17  C   UNL     1      -6.056  12.648  21.268  0.00  0.00    +0.000 C 
ATOM     18  C   UNL     1      -7.509  12.408  20.885  0.00  0.00    +0.000 C 
ENDBRANCH   6  17
ENDBRANCH   1  12
BRANCH   3  19
ATOM     19  C   UNL     1       1.188   8.754  20.022  0.00  0.00    +0.000 A 
ATOM     20  C   UNL     1       0.929   7.971  21.141  0.00  0.00    +0.000 A 
ATOM     21  N   UNL     1       1.431   6.731  21.339  0.00  0.00    +0.000 NA
ATOM     22  C   UNL     1       2.244   6.218  20.389  0.00  0.00    +0.000 A 
ATOM     23  C   UNL     1       2.589   6.918  19.226  0.00  0.00    +0.000 A 
ATOM     24  C   UNL     1       2.043   8.203  19.064  0.00  0.00    +0.000 A 
BRANCH  23  25
ATOM     25  C   UNL     1       3.474   6.414  18.176  0.00  0.00    +0.000 A 
ATOM     26  N   UNL     1       4.102   7.103  17.236  0.00  0.00    +0.000 NA
ATOM     27  C   UNL     1       4.763   6.146  16.508  0.00  0.00    +0.000 A 
ATOM     28  C   UNL     1       5.573   6.244  15.370  0.00  0.00    +0.000 A 
ATOM     29  C   UNL     1       6.088   5.059  14.821  0.00  0.00    +0.000 A 
ATOM     30  C   UNL     1       5.816   3.813  15.402  0.00  0.00    +0.000 A 
ATOM     31  C   UNL     1       5.026   3.702  16.553  0.00  0.00    +0.000 A 
ATOM     32  C   UNL     1       4.525   4.897  17.055  0.00  0.00    +0.000 A 
ATOM     33  O   UNL     1       3.721   5.063  18.142  0.00  0.00    +0.000 OA
ENDBRANCH  23  25
BRANCH  22  34
ATOM     34  N   UNL     1       2.627   4.905  20.650  0.00  0.00    +0.000 N 
ATOM     35  H   UNL     1       2.996   4.869  21.589  0.00  0.00    +0.000 HD
ATOM     36  H   UNL     1       3.261   4.541  19.943  0.00  0.00    +0.000 HD
ENDBRANCH  22  34
ENDBRANCH   3  19
TORSDOF 6
ENDMDL
MODEL 9
REMARK VINA RESULT:      -8.0      2.525      3.636
REMARK  Name = 
REMARK  8 active torsions:
REMARK  status: ('A' for Active; 'I' for Inactive)
REMARK    1  A    between atoms: C_1  and  C_2
REMARK    2  A    between atoms: C_2  and  N_3
REMARK    3  A    between atoms: N_3  and  C_4
REMARK    4  A    between atoms: C_4  and  C_5
REMARK    5  A    between atoms: C_11  and  N_12
REMARK    6  A    between atoms: C_14  and  C_15
REMARK    7  A    between atoms: C_18  and  N_19
REMARK    8  A    between atoms: C_20  and  C_21
REMARK                            x       y       z     vdW  Elec       q    Type
REMARK                         _______ _______ _______ _____ _____    ______ ____
ROOT
ATOM      1  N   UNL     1       1.351   9.473  19.024  0.00  0.00    +0.000 N 
ATOM      2  C   UNL     1       1.903   8.475  18.269  0.00  0.00    +0.000 A 
ATOM      3  C   UNL     1       2.201   7.444  19.136  0.00  0.00    +0.000 A 
ATOM      4  C   UNL     1       1.727   7.903  20.384  0.00  0.00    +0.000 A 
ATOM      5  N   UNL     1       1.196   9.124  20.313  0.00  0.00    +0.000 NA
ENDROOT
BRANCH   1  12
ATOM      6  N   UNL     1      -1.601  13.577  22.237  0.00  0.00    +0.000 N 
ATOM      7  C   UNL     1      -0.357  13.530  21.607  0.00  0.00    +0.000 C 
ATOM      8  O   UNL     1       0.447  14.452  21.797  0.00  0.00    +0.000 OA
ATOM      9  N   UNL     1      -0.000  12.490  20.759  0.00  0.00    +0.000 N 
ATOM     10  C   UNL     1       1.441  12.313  20.520  0.00  0.00    +0.000 C 
ATOM     11  C   UNL     1       1.768  11.945  19.073  0.00  0.00    +0.000 C 
ATOM     12  C   UNL     1       0.926  10.782  18.542  0.00  0.00    +0.000 C 
ATOM     13  C   UNL     1      -0.548  11.040  18.803  0.00  0.00    +0.000 C 
ATOM     14  C   UNL     1      -0.830  11.399  20.255  0.00  0.00    +0.000 C 
BRANCH   6  16
ATOM     15  C   UNL     1      -1.698  14.841  24.392  0.00  0.00    +0.000 C 
ATOM     16  C   UNL     1      -1.928  14.854  22.886  0.00  0.00    +0.000 C 
ENDBRANCH   6  16
BRANCH   6  17
ATOM     17  C   UNL     1      -2.597  12.503  22.289  0.00  0.00    +0.000 C 
ATOM     18  C   UNL     1      -4.073  12.830  22.460  0.00  0.00    +0.000 C 
ENDBRANCH   6  17
ENDBRANCH   1  12
BRANCH   3  19
ATOM     19  C   UNL     1       2.838   6.199  18.765  0.00  0.00    +0.000 A 
ATOM     20  C   UNL     1       2.659   5.043  19.515  0.00  0.00    +0.000 A 
ATOM     21  N   UNL     1       3.221   3.848  19.223  0.00  0.00    +0.000 NA
ATOM     22  C   UNL     1       4.014   3.772  18.132  0.00  0.00    +0.000 A 
ATOM     23  C   UNL     1       4.282   4.873  17.309  0.00  0.00    +0.000 A 
ATOM     24  C   UNL     1       3.676   6.094  17.652  0.00  0.00    +0.000 A 
BRANCH  23  25
ATOM     25  C   UNL     1       5.143   4.845  16.126  0.00  0.00    +0.000 A 
ATOM     26  N   UNL     1       6.204   5.595  15.871  0.00  0.00    +0.000 NA
ATOM     27  C   UNL     1       6.611   5.182  14.627  0.00  0.00    +0.000 A 
ATOM     28  C   UNL     1       7.658   5.615  13.804  0.00  0.00    +0.000 A 
ATOM     29  C   UNL     1       7.803   5.011  12.546  0.00  0.00    +0.000 A 
ATOM     30  C   UNL     1       6.937   3.991  12.127  0.00  0.00    +0.000 A 
ATOM     31  C   UNL     1       5.900   3.533  12.948  0.00  0.00    +0.000 A 
ATOM     32  C   UNL     1       5.783   4.167  14.179  0.00  0.00    +0.000 A 
ATOM     33  O   UNL     1       4.855   3.926  15.146  0.00  0.00    +0.000 OA
ENDBRANCH  23  25
BRANCH  22  34
ATOM     34  N   UNL     1       4.463   2.479  17.873  0.00  0.00    +0.000 N 
ATOM     35  H   UNL     1       5.333   2.346  18.367  0.00  0.00    +0.000 HD
ATOM     36  H   UNL     1       4.520   2.283  16.877  0.00  0.00    +0.000 HD
ENDBRANCH  22  34
ENDBRANCH   3  19
TORSDOF 6
ENDMDL
