MODEL 1
REMARK VINA RESULT:      -7.2      0.000      0.000
REMARK  Name = 
REMARK  4 active torsions:
REMARK  status: ('A' for Active; 'I' for Inactive)
REMARK    1  A    between atoms: N_2  and  C_4
REMARK    2  A    between atoms: C_7  and  N_8
REMARK    3  A    between atoms: C_9  and  C_12
REMARK    4  A    between atoms: N_10  and  O_11
REMARK                            x       y       z     vdW  Elec       q    Type
REMARK                         _______ _______ _______ _____ _____    ______ ____
ROOT
ATOM      1  N   UNL     1       3.957   6.807  18.793  0.00  0.00    +0.000 N 
ATOM      2  C   UNL     1       2.643   6.503  19.106  0.00  0.00    +0.000 C 
ATOM      3  N   UNL     1       1.986   5.396  18.879  0.00  0.00    +0.000 NA
ATOM      4  H   UNL     1       4.487   7.323  19.489  0.00  0.00    +0.000 HD
ENDROOT
BRANCH   1   8
ATOM      5  C   UNL     1       6.326   5.398  15.434  0.00  0.00    +0.000 A 
ATOM      6  C   UNL     1       5.208   6.218  15.244  0.00  0.00    +0.000 A 
ATOM      7  C   UNL     1       4.452   6.682  16.352  0.00  0.00    +0.000 A 
ATOM      8  C   UNL     1       4.732   6.368  17.711  0.00  0.00    +0.000 A 
ATOM      9  C   UNL     1       5.907   5.580  17.873  0.00  0.00    +0.000 A 
ATOM     10  N   UNL     1       6.480   5.148  19.005  0.00  0.00    +0.000 NA
ATOM     11  O   UNL     1       7.586   4.415  18.615  0.00  0.00    +0.000 OA
ATOM     12  N   UNL     1       7.725   4.380  17.240  0.00  0.00    +0.000 NA
ATOM     13  C   UNL     1       6.699   5.088  16.747  0.00  0.00    +0.000 A 
BRANCH   5  15
ATOM     14  O   UNL     1       6.700   3.848  13.815  0.00  0.00    +0.000 OA
ATOM     15  N   UNL     1       7.098   4.897  14.339  0.00  0.00    +0.000 N 
ATOM     16  O   UNL     1       8.133   5.506  14.045  0.00  0.00    +0.000 OA
ENDBRANCH   5  15
ENDBRANCH   1   8
BRANCH   2  17
ATOM     17  C   UNL     1       1.845   7.527  19.893  0.00  0.00    +0.000 A 
ATOM     18  C   UNL     1       1.384   7.117  21.162  0.00  0.00    +0.000 A 
ATOM     19  C   UNL     1       0.584   7.945  21.951  0.00  0.00    +0.000 A 
ATOM     20  C   UNL     1       0.238   9.209  21.489  0.00  0.00    +0.000 A 
ATOM     21  C   UNL     1       0.702   9.643  20.246  0.00  0.00    +0.000 A 
ATOM     22  C   UNL     1       1.503   8.811  19.444  0.00  0.00    +0.000 A 
ATOM     23 BR   UNL     1       1.992   9.517  17.750  0.00  0.00    +0.000 Br
ENDBRANCH   2  17
BRANCH   3  24
ATOM     24  O   UNL     1       2.779   4.356  18.396  0.00  0.00    +0.000 OA
ATOM     25  H   UNL     1       3.051   4.698  17.526  0.00  0.00    +0.000 HD
ENDBRANCH   3  24
TORSDOF 4
ENDMDL
MODEL 2
REMARK VINA RESULT:      -6.8      3.418      7.567
REMARK  Name = 
REMARK  4 active torsions:
REMARK  status: ('A' for Active; 'I' for Inactive)
REMARK    1  A    between atoms: N_2  and  C_4
REMARK    2  A    between atoms: C_7  and  N_8
REMARK    3  A    between atoms: C_9  and  C_12
REMARK    4  A    between atoms: N_10  and  O_11
REMARK                            x       y       z     vdW  Elec       q    Type
REMARK                         _______ _______ _______ _____ _____    ______ ____
ROOT
ATOM      1  N   UNL     1       3.390   6.747  17.709  0.00  0.00    +0.000 N 
ATOM      2  C   UNL     1       3.651   5.419  17.417  0.00  0.00    +0.000 C 
ATOM      3  N   UNL     1       2.892   4.375  17.620  0.00  0.00    +0.000 NA
ATOM      4  H   UNL     1       3.678   7.436  17.020  0.00  0.00    +0.000 HD
ENDROOT
BRANCH   1   8
ATOM      5  C   UNL     1       0.994   8.400  20.936  0.00  0.00    +0.000 A 
ATOM      6  C   UNL     1       1.661   7.177  21.076  0.00  0.00    +0.000 A 
ATOM      7  C   UNL     1       2.451   6.657  20.018  0.00  0.00    +0.000 A 
ATOM      8  C   UNL     1       2.633   7.289  18.757  0.00  0.00    +0.000 A 
ATOM      9  C   UNL     1       1.987   8.555  18.667  0.00  0.00    +0.000 A 
ATOM     10  N   UNL     1       1.989   9.430  17.651  0.00  0.00    +0.000 NA
ATOM     11  O   UNL     1       1.204  10.492  18.063  0.00  0.00    +0.000 OA
ATOM     12  N   UNL     1       0.704  10.302  19.337  0.00  0.00    +0.000 NA
ATOM     13  C   UNL     1       1.165   9.110  19.742  0.00  0.00    +0.000 A 
BRANCH   5  15
ATOM     14  O   UNL     1       0.669   9.849  22.655  0.00  0.00    +0.000 OA
ATOM     15  N   UNL     1       0.173   8.943  21.973  0.00  0.00    +0.000 N 
ATOM     16  O   UNL     1      -0.935   8.424  22.153  0.00  0.00    +0.000 OA
ENDBRANCH   5  15
ENDBRANCH   1   8
BRANCH   2  17
ATOM     17  C   UNL     1       4.941   5.095  16.684  0.00  0.00    +0.000 A 
ATOM     18  C   UNL     1       4.818   4.778  15.315  0.00  0.00    +0.000 A 
ATOM     19  C   UNL     1       5.923   4.397  14.551  0.00  0.00    +0.000 A 
ATOM     20  C   UNL     1       7.178   4.336  15.142  0.00  0.00    +0.000 A 
ATOM     21  C   UNL     1       7.326   4.667  16.490  0.00  0.00    +0.000 A 
ATOM     22  C   UNL     1       6.217   5.046  17.266  0.00  0.00    +0.000 A 
ATOM     23 BR   UNL     1       6.569   5.394  19.100  0.00  0.00    +0.000 Br
ENDBRANCH   2  17
BRANCH   3  24
ATOM     24  O   UNL     1       1.603   4.687  18.047  0.00  0.00    +0.000 OA
ATOM     25  H   UNL     1       1.604   4.346  18.959  0.00  0.00    +0.000 HD
ENDBRANCH   3  24
TORSDOF 4
ENDMDL
MODEL 3
REMARK VINA RESULT:      -6.4      7.006     10.610
REMARK  Name = 
REMARK  4 active torsions:
REMARK  status: ('A' for Active; 'I' for Inactive)
REMARK    1  A    between atoms: N_2  and  C_4
REMARK    2  A    between atoms: C_7  and  N_8
REMARK    3  A    between atoms: C_9  and  C_12
REMARK    4  A    between atoms: N_10  and  O_11
REMARK                            x       y       z     vdW  Elec       q    Type
REMARK                         _______ _______ _______ _____ _____    ______ ____
ROOT
ATOM      1  N   UNL     1      -0.750  10.763  21.375  0.00  0.00    +0.000 N 
ATOM      2  C   UNL     1       0.362   9.954  21.536  0.00  0.00    +0.000 C 
ATOM      3  N   UNL     1       0.934   9.564  22.644  0.00  0.00    +0.000 NA
ATOM      4  H   UNL     1      -1.411  10.499  20.651  0.00  0.00    +0.000 HD
ENDROOT
BRANCH   1   8
ATOM      5  C   UNL     1      -2.154  14.076  23.812  0.00  0.00    +0.000 A 
ATOM      6  C   UNL     1      -2.896  12.895  23.691  0.00  0.00    +0.000 A 
ATOM      7  C   UNL     1      -2.417  11.816  22.902  0.00  0.00    +0.000 A 
ATOM      8  C   UNL     1      -1.194  11.825  22.177  0.00  0.00    +0.000 A 
ATOM      9  C   UNL     1      -0.438  13.017  22.366  0.00  0.00    +0.000 A 
ATOM     10  N   UNL     1       0.767  13.335  21.874  0.00  0.00    +0.000 NA
ATOM     11  O   UNL     1       1.046  14.606  22.345  0.00  0.00    +0.000 OA
ATOM     12  N   UNL     1       0.027  15.098  23.138  0.00  0.00    +0.000 NA
ATOM     13  C   UNL     1      -0.912  14.143  23.170  0.00  0.00    +0.000 A 
BRANCH   5  15
ATOM     14  O   UNL     1      -2.299  15.208  25.777  0.00  0.00    +0.000 OA
ATOM     15  N   UNL     1      -2.617  15.190  24.581  0.00  0.00    +0.000 N 
ATOM     16  O   UNL     1      -3.350  16.009  24.014  0.00  0.00    +0.000 OA
ENDBRANCH   5  15
ENDBRANCH   1   8
BRANCH   2  17
ATOM     17  C   UNL     1       0.981   9.344  20.290  0.00  0.00    +0.000 A 
ATOM     18  C   UNL     1       1.566   8.070  20.444  0.00  0.00    +0.000 A 
ATOM     19  C   UNL     1       2.225   7.436  19.390  0.00  0.00    +0.000 A 
ATOM     20  C   UNL     1       2.302   8.063  18.152  0.00  0.00    +0.000 A 
ATOM     21  C   UNL     1       1.711   9.314  17.972  0.00  0.00    +0.000 A 
ATOM     22  C   UNL     1       1.051   9.961  19.032  0.00  0.00    +0.000 A 
ATOM     23 BR   UNL     1       0.363  11.689  18.648  0.00  0.00    +0.000 Br
ENDBRANCH   2  17
BRANCH   3  24
ATOM     24  O   UNL     1       0.222   9.898  23.795  0.00  0.00    +0.000 OA
ATOM     25  H   UNL     1      -0.675  10.040  23.444  0.00  0.00    +0.000 HD
ENDBRANCH   3  24
TORSDOF 4
ENDMDL
MODEL 4
REMARK VINA RESULT:      -6.4      3.316      3.624
REMARK  Name = 
REMARK  4 active torsions:
REMARK  status: ('A' for Active; 'I' for Inactive)
REMARK    1  A    between atoms: N_2  and  C_4
REMARK    2  A    between atoms: C_7  and  N_8
REMARK    3  A    between atoms: C_9  and  C_12
REMARK    4  A    between atoms: N_10  and  O_11
REMARK                            x       y       z     vdW  Elec       q    Type
REMARK                         _______ _______ _______ _____ _____    ______ ____
ROOT
ATOM      1  N   UNL     1       4.194   4.765  17.862  0.00  0.00    +0.000 N 
ATOM      2  C   UNL     1       4.345   3.951  18.971  0.00  0.00    +0.000 C 
ATOM      3  N   UNL     1       5.448   3.499  19.508  0.00  0.00    +0.000 NA
ATOM      4  H   UNL     1       3.488   5.493  17.917  0.00  0.00    +0.000 HD
ENDROOT
BRANCH   1   8
ATOM      5  C   UNL     1       6.688   4.962  14.308  0.00  0.00    +0.000 A 
ATOM      6  C   UNL     1       5.552   4.147  14.357  0.00  0.00    +0.000 A 
ATOM      7  C   UNL     1       4.739   4.103  15.520  0.00  0.00    +0.000 A 
ATOM      8  C   UNL     1       4.988   4.843  16.708  0.00  0.00    +0.000 A 
ATOM      9  C   UNL     1       6.118   5.704  16.607  0.00  0.00    +0.000 A 
ATOM     10  N   UNL     1       6.603   6.565  17.512  0.00  0.00    +0.000 NA
ATOM     11  O   UNL     1       7.715   7.145  16.928  0.00  0.00    +0.000 OA
ATOM     12  N   UNL     1       7.939   6.661  15.652  0.00  0.00    +0.000 NA
ATOM     13  C   UNL     1       6.972   5.763  15.421  0.00  0.00    +0.000 A 
BRANCH   5  15
ATOM     14  O   UNL     1       7.264   4.247  12.230  0.00  0.00    +0.000 OA
ATOM     15  N   UNL     1       7.540   5.014  13.161  0.00  0.00    +0.000 N 
ATOM     16  O   UNL     1       8.520   5.767  13.213  0.00  0.00    +0.000 OA
ENDBRANCH   5  15
ENDBRANCH   1   8
BRANCH   2  17
ATOM     17  C   UNL     1       3.097   3.579  19.753  0.00  0.00    +0.000 A 
ATOM     18  C   UNL     1       3.304   3.073  21.053  0.00  0.00    +0.000 A 
ATOM     19  C   UNL     1       2.240   2.633  21.843  0.00  0.00    +0.000 A 
ATOM     20  C   UNL     1       0.944   2.702  21.350  0.00  0.00    +0.000 A 
ATOM     21  C   UNL     1       0.715   3.220  20.074  0.00  0.00    +0.000 A 
ATOM     22  C   UNL     1       1.782   3.659  19.271  0.00  0.00    +0.000 A 
ATOM     23 BR   UNL     1       1.316   4.268  17.534  0.00  0.00    +0.000 Br
ENDBRANCH   2  17
BRANCH   3  24
ATOM     24  O   UNL     1       6.608   4.046  18.961  0.00  0.00    +0.000 OA
ATOM     25  H   UNL     1       6.589   4.954  19.314  0.00  0.00    +0.000 HD
ENDBRANCH   3  24
TORSDOF 4
ENDMDL
MODEL 5
REMARK VINA RESULT:      -6.4      4.839      7.902
REMARK  Name = 
REMARK  4 active torsions:
REMARK  status: ('A' for Active; 'I' for Inactive)
REMARK    1  A    between atoms: N_2  and  C_4
REMARK    2  A    between atoms: C_7  and  N_8
REMARK    3  A    between atoms: C_9  and  C_12
REMARK    4  A    between atoms: N_10  and  O_11
REMARK                            x       y       z     vdW  Elec       q    Type
REMARK                         _______ _______ _______ _____ _____    ______ ____
ROOT
ATOM      1  N   UNL     1       1.851   7.646  20.561  0.00  0.00    +0.000 N 
ATOM      2  C   UNL     1       2.267   6.783  19.562  0.00  0.00    +0.000 C 
ATOM      3  N   UNL     1       2.657   7.069  18.348  0.00  0.00    +0.000 NA
ATOM      4  H   UNL     1       2.170   7.447  21.505  0.00  0.00    +0.000 HD
ENDROOT
BRANCH   1   8
ATOM      5  C   UNL     1      -0.201  11.461  20.214  0.00  0.00    +0.000 A 
ATOM      6  C   UNL     1       0.218  10.754  19.082  0.00  0.00    +0.000 A 
ATOM      7  C   UNL     1       0.875   9.502  19.210  0.00  0.00    +0.000 A 
ATOM      8  C   UNL     1       1.171   8.868  20.449  0.00  0.00    +0.000 A 
ATOM      9  C   UNL     1       0.683   9.586  21.577  0.00  0.00    +0.000 A 
ATOM     10  N   UNL     1       0.747   9.257  22.875  0.00  0.00    +0.000 NA
ATOM     11  O   UNL     1       0.139  10.293  23.560  0.00  0.00    +0.000 OA
ATOM     12  N   UNL     1      -0.316  11.281  22.706  0.00  0.00    +0.000 NA
ATOM     13  C   UNL     1       0.008  10.879  21.469  0.00  0.00    +0.000 A 
BRANCH   5  15
ATOM     14  O   UNL     1      -2.070  12.724  19.939  0.00  0.00    +0.000 OA
ATOM     15  N   UNL     1      -0.846  12.734  20.121  0.00  0.00    +0.000 N 
ATOM     16  O   UNL     1      -0.129  13.741  20.162  0.00  0.00    +0.000 OA
ENDBRANCH   5  15
ENDBRANCH   1   8
BRANCH   2  17
ATOM     17  C   UNL     1       2.385   5.308  19.903  0.00  0.00    +0.000 A 
ATOM     18  C   UNL     1       1.236   4.702  20.454  0.00  0.00    +0.000 A 
ATOM     19  C   UNL     1       1.242   3.369  20.871  0.00  0.00    +0.000 A 
ATOM     20  C   UNL     1       2.399   2.612  20.732  0.00  0.00    +0.000 A 
ATOM     21  C   UNL     1       3.540   3.186  20.169  0.00  0.00    +0.000 A 
ATOM     22  C   UNL     1       3.542   4.529  19.754  0.00  0.00    +0.000 A 
ATOM     23 BR   UNL     1       5.191   5.184  19.076  0.00  0.00    +0.000 Br
ENDBRANCH   2  17
BRANCH   3  24
ATOM     24  O   UNL     1       2.806   8.434  18.109  0.00  0.00    +0.000 OA
ATOM     25  H   UNL     1       2.421   8.823  18.914  0.00  0.00    +0.000 HD
ENDBRANCH   3  24
TORSDOF 4
ENDMDL
MODEL 6
REMARK VINA RESULT:      -6.3      2.696      3.643
REMARK  Name = 
REMARK  4 active torsions:
REMARK  status: ('A' for Active; 'I' for Inactive)
REMARK    1  A    between atoms: N_2  and  C_4
REMARK    2  A    between atoms: C_7  and  N_8
REMARK    3  A    between atoms: C_9  and  C_12
REMARK    4  A    between atoms: N_10  and  O_11
REMARK                            x       y       z     vdW  Elec       q    Type
REMARK                         _______ _______ _______ _____ _____    ______ ____
ROOT
ATOM      1  N   UNL     1       4.268   4.726  17.171  0.00  0.00    +0.000 N 
ATOM      2  C   UNL     1       4.468   4.088  18.383  0.00  0.00    +0.000 C 
ATOM      3  N   UNL     1       5.579   3.612  18.881  0.00  0.00    +0.000 NA
ATOM      4  H   UNL     1       3.640   5.525  17.169  0.00  0.00    +0.000 HD
ENDROOT
BRANCH   1   8
ATOM      5  C   UNL     1       6.354   4.084  13.413  0.00  0.00    +0.000 A 
ATOM      6  C   UNL     1       5.129   3.463  13.682  0.00  0.00    +0.000 A 
ATOM      7  C   UNL     1       4.453   3.693  14.908  0.00  0.00    +0.000 A 
ATOM      8  C   UNL     1       4.932   4.534  15.950  0.00  0.00    +0.000 A 
ATOM      9  C   UNL     1       6.150   5.194  15.623  0.00  0.00    +0.000 A 
ATOM     10  N   UNL     1       6.847   6.081  16.347  0.00  0.00    +0.000 NA
ATOM     11  O   UNL     1       7.955   6.406  15.587  0.00  0.00    +0.000 OA
ATOM     12  N   UNL     1       7.968   5.733  14.379  0.00  0.00    +0.000 NA
ATOM     13  C   UNL     1       6.867   4.970  14.368  0.00  0.00    +0.000 A 
BRANCH   5  15
ATOM     14  O   UNL     1       7.486   4.863  11.602  0.00  0.00    +0.000 OA
ATOM     15  N   UNL     1       7.073   3.858  12.197  0.00  0.00    +0.000 N 
ATOM     16  O   UNL     1       7.167   2.691  11.800  0.00  0.00    +0.000 OA
ENDBRANCH   5  15
ENDBRANCH   1   8
BRANCH   2  17
ATOM     17  C   UNL     1       3.287   3.981  19.331  0.00  0.00    +0.000 A 
ATOM     18  C   UNL     1       2.988   2.688  19.812  0.00  0.00    +0.000 A 
ATOM     19  C   UNL     1       1.886   2.452  20.635  0.00  0.00    +0.000 A 
ATOM     20  C   UNL     1       1.066   3.510  21.004  0.00  0.00    +0.000 A 
ATOM     21  C   UNL     1       1.355   4.800  20.558  0.00  0.00    +0.000 A 
ATOM     22  C   UNL     1       2.460   5.044  19.723  0.00  0.00    +0.000 A 
ATOM     23 BR   UNL     1       2.678   6.839  19.142  0.00  0.00    +0.000 Br
ENDBRANCH   2  17
BRANCH   3  24
ATOM     24  O   UNL     1       6.715   3.938  18.141  0.00  0.00    +0.000 OA
ATOM     25  H   UNL     1       7.108   3.061  17.979  0.00  0.00    +0.000 HD
ENDBRANCH   3  24
TORSDOF 4
ENDMDL
MODEL 7
REMARK VINA RESULT:      -6.2      2.759      3.546
REMARK  Name = 
REMARK  4 active torsions:
REMARK  status: ('A' for Active; 'I' for Inactive)
REMARK    1  A    between atoms: N_2  and  C_4
REMARK    2  A    between atoms: C_7  and  N_8
REMARK    3  A    between atoms: C_9  and  C_12
REMARK    4  A    between atoms: N_10  and  O_11
REMARK                            x       y       z     vdW  Elec       q    Type
REMARK                         _______ _______ _______ _____ _____    ______ ____
ROOT
ATOM      1  N   UNL     1       4.237   4.916  17.618  0.00  0.00    +0.000 N 
ATOM      2  C   UNL     1       4.342   4.131  18.754  0.00  0.00    +0.000 C 
ATOM      3  N   UNL     1       5.421   3.678  19.335  0.00  0.00    +0.000 NA
ATOM      4  H   UNL     1       3.541   5.656  17.632  0.00  0.00    +0.000 HD
ENDROOT
BRANCH   1   8
ATOM      5  C   UNL     1       6.836   4.975  14.136  0.00  0.00    +0.000 A 
ATOM      6  C   UNL     1       5.686   4.178  14.173  0.00  0.00    +0.000 A 
ATOM      7  C   UNL     1       4.840   4.179  15.313  0.00  0.00    +0.000 A 
ATOM      8  C   UNL     1       5.065   4.950  16.487  0.00  0.00    +0.000 A 
ATOM      9  C   UNL     1       6.210   5.791  16.394  0.00  0.00    +0.000 A 
ATOM     10  N   UNL     1       6.682   6.670  17.289  0.00  0.00    +0.000 NA
ATOM     11  O   UNL     1       7.819   7.217  16.722  0.00  0.00    +0.000 OA
ATOM     12  N   UNL     1       8.073   6.694  15.468  0.00  0.00    +0.000 NA
ATOM     13  C   UNL     1       7.099   5.803  15.233  0.00  0.00    +0.000 A 
BRANCH   5  15
ATOM     14  O   UNL     1       8.716   5.715  13.096  0.00  0.00    +0.000 OA
ATOM     15  N   UNL     1       7.722   4.982  13.013  0.00  0.00    +0.000 N 
ATOM     16  O   UNL     1       7.395   4.313  12.025  0.00  0.00    +0.000 OA
ENDBRANCH   5  15
ENDBRANCH   1   8
BRANCH   2  17
ATOM     17  C   UNL     1       3.066   3.800  19.508  0.00  0.00    +0.000 A 
ATOM     18  C   UNL     1       2.769   2.429  19.658  0.00  0.00    +0.000 A 
ATOM     19  C   UNL     1       1.591   2.001  20.273  0.00  0.00    +0.000 A 
ATOM     20  C   UNL     1       0.690   2.939  20.760  0.00  0.00    +0.000 A 
ATOM     21  C   UNL     1       0.975   4.300  20.641  0.00  0.00    +0.000 A 
ATOM     22  C   UNL     1       2.157   4.738  20.018  0.00  0.00    +0.000 A 
ATOM     23 BR   UNL     1       2.365   6.620  19.868  0.00  0.00    +0.000 Br
ENDBRANCH   2  17
BRANCH   3  24
ATOM     24  O   UNL     1       6.605   4.191  18.808  0.00  0.00    +0.000 OA
ATOM     25  H   UNL     1       6.298   5.013  18.384  0.00  0.00    +0.000 HD
ENDBRANCH   3  24
TORSDOF 4
ENDMDL
MODEL 8
REMARK VINA RESULT:      -6.2      4.737      8.127
REMARK  Name = 
REMARK  4 active torsions:
REMARK  status: ('A' for Active; 'I' for Inactive)
REMARK    1  A    between atoms: N_2  and  C_4
REMARK    2  A    between atoms: C_7  and  N_8
REMARK    3  A    between atoms: C_9  and  C_12
REMARK    4  A    between atoms: N_10  and  O_11
REMARK                            x       y       z     vdW  Elec       q    Type
REMARK                         _______ _______ _______ _____ _____    ______ ____
ROOT
ATOM      1  N   UNL     1       1.820   8.064  19.483  0.00  0.00    +0.000 N 
ATOM      2  C   UNL     1       2.331   7.760  18.233  0.00  0.00    +0.000 C 
ATOM      3  N   UNL     1       2.650   8.574  17.262  0.00  0.00    +0.000 NA
ATOM      4  H   UNL     1       2.184   7.536  20.271  0.00  0.00    +0.000 HD
ENDROOT
BRANCH   1   8
ATOM      5  C   UNL     1      -0.757  11.365  20.644  0.00  0.00    +0.000 A 
ATOM      6  C   UNL     1      -0.631  10.975  19.306  0.00  0.00    +0.000 A 
ATOM      7  C   UNL     1       0.204   9.886  18.943  0.00  0.00    +0.000 A 
ATOM      8  C   UNL     1       0.973   9.116  19.859  0.00  0.00    +0.000 A 
ATOM      9  C   UNL     1       0.780   9.502  21.216  0.00  0.00    +0.000 A 
ATOM     10  N   UNL     1       1.307   8.967  22.326  0.00  0.00    +0.000 NA
ATOM     11  O   UNL     1       0.812   9.713  23.380  0.00  0.00    +0.000 OA
ATOM     12  N   UNL     1      -0.031  10.720  22.950  0.00  0.00    +0.000 NA
ATOM     13  C   UNL     1      -0.072  10.623  21.613  0.00  0.00    +0.000 A 
BRANCH   5  15
ATOM     14  O   UNL     1      -2.794  12.272  21.083  0.00  0.00    +0.000 OA
ATOM     15  N   UNL     1      -1.573  12.470  21.042  0.00  0.00    +0.000 N 
ATOM     16  O   UNL     1      -1.007  13.551  21.247  0.00  0.00    +0.000 OA
ENDBRANCH   5  15
ENDBRANCH   1   8
BRANCH   2  17
ATOM     17  C   UNL     1       2.662   6.307  17.936  0.00  0.00    +0.000 A 
ATOM     18  C   UNL     1       1.610   5.382  18.099  0.00  0.00    +0.000 A 
ATOM     19  C   UNL     1       1.809   4.012  17.923  0.00  0.00    +0.000 A 
ATOM     20  C   UNL     1       3.066   3.540  17.567  0.00  0.00    +0.000 A 
ATOM     21  C   UNL     1       4.116   4.441  17.380  0.00  0.00    +0.000 A 
ATOM     22  C   UNL     1       3.924   5.822  17.562  0.00  0.00    +0.000 A 
ATOM     23 BR   UNL     1       5.466   6.909  17.342  0.00  0.00    +0.000 Br
ENDBRANCH   2  17
BRANCH   3  24
ATOM     24  O   UNL     1       2.600   9.921  17.615  0.00  0.00    +0.000 OA
ATOM     25  H   UNL     1       1.778   9.963  18.135  0.00  0.00    +0.000 HD
ENDBRANCH   3  24
TORSDOF 4
ENDMDL
MODEL 9
REMARK VINA RESULT:      -6.2      3.262      7.425
REMARK  Name = 
REMARK  4 active torsions:
REMARK  status: ('A' for Active; 'I' for Inactive)
REMARK    1  A    between atoms: N_2  and  C_4
REMARK    2  A    between atoms: C_7  and  N_8
REMARK    3  A    between atoms: C_9  and  C_12
REMARK    4  A    between atoms: N_10  and  O_11
REMARK                            x       y       z     vdW  Elec       q    Type
REMARK                         _______ _______ _______ _____ _____    ______ ____
ROOT
ATOM      1  N   UNL     1       3.318   6.016  17.740  0.00  0.00    +0.000 N 
ATOM      2  C   UNL     1       4.494   5.299  17.879  0.00  0.00    +0.000 C 
ATOM      3  N   UNL     1       4.961   4.695  18.939  0.00  0.00    +0.000 NA
ATOM      4  H   UNL     1       2.797   5.884  16.878  0.00  0.00    +0.000 HD
ENDROOT
BRANCH   1   8
ATOM      5  C   UNL     1       1.158   8.400  20.661  0.00  0.00    +0.000 A 
ATOM      6  C   UNL     1       1.556   7.088  20.943  0.00  0.00    +0.000 A 
ATOM      7  C   UNL     1       2.273   6.326  19.984  0.00  0.00    +0.000 A 
ATOM      8  C   UNL     1       2.638   6.792  18.690  0.00  0.00    +0.000 A 
ATOM      9  C   UNL     1       2.268   8.146  18.457  0.00  0.00    +0.000 A 
ATOM     10  N   UNL     1       2.495   8.906  17.376  0.00  0.00    +0.000 NA
ATOM     11  O   UNL     1       1.924  10.136  17.648  0.00  0.00    +0.000 OA
ATOM     12  N   UNL     1       1.336  10.167  18.899  0.00  0.00    +0.000 NA
ATOM     13  C   UNL     1       1.526   8.950  19.428  0.00  0.00    +0.000 A 
BRANCH   5  15
ATOM     14  O   UNL     1       0.987  10.186  22.057  0.00  0.00    +0.000 OA
ATOM     15  N   UNL     1       0.416   9.188  21.596  0.00  0.00    +0.000 N 
ATOM     16  O   UNL     1      -0.704   8.780  21.923  0.00  0.00    +0.000 OA
ENDBRANCH   5  15
ENDBRANCH   1   8
BRANCH   2  17
ATOM     17  C   UNL     1       5.345   5.087  16.639  0.00  0.00    +0.000 A 
ATOM     18  C   UNL     1       4.868   4.139  15.710  0.00  0.00    +0.000 A 
ATOM     19  C   UNL     1       5.595   3.807  14.565  0.00  0.00    +0.000 A 
ATOM     20  C   UNL     1       6.814   4.429  14.322  0.00  0.00    +0.000 A 
ATOM     21  C   UNL     1       7.294   5.386  15.218  0.00  0.00    +0.000 A 
ATOM     22  C   UNL     1       6.569   5.720  16.375  0.00  0.00    +0.000 A 
ATOM     23 BR   UNL     1       7.390   6.985  17.530  0.00  0.00    +0.000 Br
ENDBRANCH   2  17
BRANCH   3  24
ATOM     24  O   UNL     1       4.067   4.657  20.008  0.00  0.00    +0.000 OA
ATOM     25  H   UNL     1       3.207   4.691  19.553  0.00  0.00    +0.000 HD
ENDBRANCH   3  24
TORSDOF 4
ENDMDL
