MODEL 1
REMARK VINA RESULT:      -7.4      0.000      0.000
REMARK  Name = 
REMARK  3 active torsions:
REMARK  status: ('A' for Active; 'I' for Inactive)
REMARK    1  A    between atoms: C_1  and  C_2
REMARK    2  A    between atoms: C_3  and  C_4
REMARK    3  A    between atoms: N_9  and  C_10
REMARK                            x       y       z     vdW  Elec       q    Type
REMARK                         _______ _______ _______ _____ _____    ______ ____
ROOT
ATOM      1  C   UNL     1       2.650   9.532  18.160  0.00  0.00    +0.000 C 
ATOM      2  C   UNL     1       2.120   8.626  19.213  0.00  0.00    +0.000 A 
ATOM      3  C   UNL     1       1.242   8.868  20.261  0.00  0.00    +0.000 A 
ATOM      4  C   UNL     1       1.127   7.623  20.908  0.00  0.00    +0.000 A 
ATOM      5  N   UNL     1       1.904   6.686  20.381  0.00  0.00    +0.000 NA
ATOM      6  N   UNL     1       2.475   7.291  19.304  0.00  0.00    +0.000 N 
ATOM      7  C   UNL     1       3.300   6.532  18.454  0.00  0.00    +0.000 A 
ATOM      8  N   UNL     1       3.710   6.939  17.288  0.00  0.00    +0.000 NA
ATOM      9  N   UNL     1       4.593   6.079  16.726  0.00  0.00    +0.000 N 
ATOM     10  C   UNL     1       5.005   6.065  15.426  0.00  0.00    +0.000 A 
ATOM     11  C   UNL     1       5.984   5.108  15.318  0.00  0.00    +0.000 A 
ATOM     12  C   UNL     1       6.178   4.531  16.594  0.00  0.00    +0.000 A 
ATOM     13  C   UNL     1       5.226   5.083  17.412  0.00  0.00    +0.000 A 
ATOM     14  C   UNL     1       4.839   4.854  18.769  0.00  0.00    +0.000 A 
ATOM     15  O   UNL     1       5.554   4.371  19.635  0.00  0.00    +0.000 OA
ATOM     16  N   UNL     1       3.569   5.300  19.001  0.00  0.00    +0.000 N 
ATOM     17  H   UNL     1       2.961   4.659  18.497  0.00  0.00    +0.000 HD
ENDROOT
BRANCH   3  18
ATOM     18  C   UNL     1       0.543  10.109  20.549  0.00  0.00    +0.000 C 
ATOM     19  O   UNL     1       0.852  10.788  21.526  0.00  0.00    +0.000 OA
ATOM     20  N   UNL     1      -0.429  10.523  19.645  0.00  0.00    +0.000 N 
ATOM     21  C   UNL     1      -0.982  11.866  19.798  0.00  0.00    +0.000 C 
ATOM     22  C   UNL     1      -1.344  12.475  18.433  0.00  0.00    +0.000 C 
ATOM     23  N   UNL     1      -2.177  11.616  17.562  0.00  0.00    +0.000 NA
ATOM     24  C   UNL     1      -1.566  10.269  17.463  0.00  0.00    +0.000 C 
ATOM     25  C   UNL     1      -1.261   9.630  18.829  0.00  0.00    +0.000 C 
BRANCH  23  26
ATOM     26  C   UNL     1      -3.594  11.564  17.984  0.00  0.00    +0.000 C 
ATOM     27  C   UNL     1      -4.676  11.774  16.955  0.00  0.00    +0.000 C 
ATOM     28  C   UNL     1      -4.473  10.423  17.552  0.00  0.00    +0.000 C 
ATOM     29  F   UNL     1      -5.432   9.982  18.447  0.00  0.00    +0.000 F 
ENDBRANCH  23  26
ENDBRANCH   3  18
TORSDOF 2
ENDMDL
MODEL 2
REMARK VINA RESULT:      -7.1      3.671      8.804
REMARK  Name = 
REMARK  3 active torsions:
REMARK  status: ('A' for Active; 'I' for Inactive)
REMARK    1  A    between atoms: C_1  and  C_2
REMARK    2  A    between atoms: C_3  and  C_4
REMARK    3  A    between atoms: N_9  and  C_10
REMARK                            x       y       z     vdW  Elec       q    Type
REMARK                         _______ _______ _______ _____ _____    ______ ____
ROOT
ATOM      1  C   UNL     1       1.322  11.357  19.097  0.00  0.00    +0.000 C 
ATOM      2  C   UNL     1       1.080  10.176  19.966  0.00  0.00    +0.000 A 
ATOM      3  C   UNL     1       1.366   8.832  19.772  0.00  0.00    +0.000 A 
ATOM      4  C   UNL     1       0.899   8.206  20.944  0.00  0.00    +0.000 A 
ATOM      5  N   UNL     1       0.306   9.046  21.783  0.00  0.00    +0.000 NA
ATOM      6  N   UNL     1       0.465  10.267  21.203  0.00  0.00    +0.000 N 
ATOM      7  C   UNL     1       0.024  11.411  21.894  0.00  0.00    +0.000 A 
ATOM      8  N   UNL     1       0.324  12.628  21.546  0.00  0.00    +0.000 NA
ATOM      9  N   UNL     1      -0.326  13.551  22.294  0.00  0.00    +0.000 N 
ATOM     10  C   UNL     1      -0.047  14.884  22.372  0.00  0.00    +0.000 A 
ATOM     11  C   UNL     1      -1.020  15.460  23.153  0.00  0.00    +0.000 A 
ATOM     12  C   UNL     1      -1.921  14.446  23.553  0.00  0.00    +0.000 A 
ATOM     13  C   UNL     1      -1.398  13.266  23.091  0.00  0.00    +0.000 A 
ATOM     14  C   UNL     1      -1.774  11.895  23.241  0.00  0.00    +0.000 A 
ATOM     15  O   UNL     1      -2.901  11.496  23.500  0.00  0.00    +0.000 OA
ATOM     16  N   UNL     1      -0.718  11.065  22.998  0.00  0.00    +0.000 N 
ATOM     17  H   UNL     1      -0.085  11.196  23.782  0.00  0.00    +0.000 HD
ENDROOT
BRANCH   3  18
ATOM     18  C   UNL     1       2.069   8.239  18.646  0.00  0.00    +0.000 C 
ATOM     19  O   UNL     1       2.305   8.903  17.638  0.00  0.00    +0.000 OA
ATOM     20  N   UNL     1       2.519   6.931  18.787  0.00  0.00    +0.000 N 
ATOM     21  C   UNL     1       3.412   6.398  17.762  0.00  0.00    +0.000 C 
ATOM     22  C   UNL     1       4.417   5.402  18.368  0.00  0.00    +0.000 C 
ATOM     23  N   UNL     1       3.821   4.339  19.207  0.00  0.00    +0.000 NA
ATOM     24  C   UNL     1       2.917   4.949  20.212  0.00  0.00    +0.000 C 
ATOM     25  C   UNL     1       1.870   5.897  19.603  0.00  0.00    +0.000 C 
BRANCH  23  26
ATOM     26  C   UNL     1       3.155   3.282  18.417  0.00  0.00    +0.000 C 
ATOM     27  C   UNL     1       3.625   1.856  18.553  0.00  0.00    +0.000 C 
ATOM     28  C   UNL     1       2.295   2.253  19.098  0.00  0.00    +0.000 C 
ATOM     29  F   UNL     1       1.179   1.803  18.416  0.00  0.00    +0.000 F 
ENDBRANCH  23  26
ENDBRANCH   3  18
TORSDOF 2
ENDMDL
MODEL 3
REMARK VINA RESULT:      -7.0      1.647      2.636
REMARK  Name = 
REMARK  3 active torsions:
REMARK  status: ('A' for Active; 'I' for Inactive)
REMARK    1  A    between atoms: C_1  and  C_2
REMARK    2  A    between atoms: C_3  and  C_4
REMARK    3  A    between atoms: N_9  and  C_10
REMARK                            x       y       z     vdW  Elec       q    Type
REMARK                         _______ _______ _______ _____ _____    ______ ____
ROOT
ATOM      1  C   UNL     1       1.257   7.286  21.073  0.00  0.00    +0.000 C 
ATOM      2  C   UNL     1       1.693   7.879  19.782  0.00  0.00    +0.000 A 
ATOM      3  C   UNL     1       1.463   9.134  19.235  0.00  0.00    +0.000 A 
ATOM      4  C   UNL     1       2.131   9.098  17.996  0.00  0.00    +0.000 A 
ATOM      5  N   UNL     1       2.677   7.919  17.731  0.00  0.00    +0.000 NA
ATOM      6  N   UNL     1       2.452   7.185  18.855  0.00  0.00    +0.000 N 
ATOM      7  C   UNL     1       2.996   5.890  18.943  0.00  0.00    +0.000 A 
ATOM      8  N   UNL     1       3.038   5.195  20.042  0.00  0.00    +0.000 NA
ATOM      9  N   UNL     1       3.492   3.936  19.835  0.00  0.00    +0.000 N 
ATOM     10  C   UNL     1       3.904   3.049  20.786  0.00  0.00    +0.000 A 
ATOM     11  C   UNL     1       4.169   1.861  20.150  0.00  0.00    +0.000 A 
ATOM     12  C   UNL     1       3.901   2.030  18.771  0.00  0.00    +0.000 A 
ATOM     13  C   UNL     1       3.588   3.355  18.603  0.00  0.00    +0.000 A 
ATOM     14  C   UNL     1       3.315   4.166  17.458  0.00  0.00    +0.000 A 
ATOM     15  O   UNL     1       2.910   3.753  16.381  0.00  0.00    +0.000 OA
ATOM     16  N   UNL     1       3.510   5.489  17.733  0.00  0.00    +0.000 N 
ATOM     17  H   UNL     1       4.515   5.599  17.835  0.00  0.00    +0.000 HD
ENDROOT
BRANCH   3  18
ATOM     18  C   UNL     1       0.766  10.247  19.859  0.00  0.00    +0.000 C 
ATOM     19  O   UNL     1       1.244  10.812  20.840  0.00  0.00    +0.000 OA
ATOM     20  N   UNL     1      -0.412  10.681  19.262  0.00  0.00    +0.000 N 
ATOM     21  C   UNL     1      -1.005  11.927  19.739  0.00  0.00    +0.000 C 
ATOM     22  C   UNL     1      -1.710  12.679  18.597  0.00  0.00    +0.000 C 
ATOM     23  N   UNL     1      -2.660  11.868  17.803  0.00  0.00    +0.000 NA
ATOM     24  C   UNL     1      -1.998  10.616  17.365  0.00  0.00    +0.000 C 
ATOM     25  C   UNL     1      -1.346   9.829  18.515  0.00  0.00    +0.000 C 
BRANCH  23  26
ATOM     26  C   UNL     1      -3.935  11.616  18.507  0.00  0.00    +0.000 C 
ATOM     27  C   UNL     1      -5.207  12.215  17.961  0.00  0.00    +0.000 C 
ATOM     28  C   UNL     1      -4.988  10.742  17.881  0.00  0.00    +0.000 C 
ATOM     29  F   UNL     1      -5.743   9.949  18.726  0.00  0.00    +0.000 F 
ENDBRANCH  23  26
ENDBRANCH   3  18
TORSDOF 2
ENDMDL
MODEL 4
REMARK VINA RESULT:      -7.0      3.849      8.974
REMARK  Name = 
REMARK  3 active torsions:
REMARK  status: ('A' for Active; 'I' for Inactive)
REMARK    1  A    between atoms: C_1  and  C_2
REMARK    2  A    between atoms: C_3  and  C_4
REMARK    3  A    between atoms: N_9  and  C_10
REMARK                            x       y       z     vdW  Elec       q    Type
REMARK                         _______ _______ _______ _____ _____    ______ ____
ROOT
ATOM      1  C   UNL     1       1.148   8.640  22.011  0.00  0.00    +0.000 C 
ATOM      2  C   UNL     1       1.365   8.874  20.559  0.00  0.00    +0.000 A 
ATOM      3  C   UNL     1       1.836   8.029  19.564  0.00  0.00    +0.000 A 
ATOM      4  C   UNL     1       1.816   8.822  18.400  0.00  0.00    +0.000 A 
ATOM      5  N   UNL     1       1.439  10.074  18.628  0.00  0.00    +0.000 NA
ATOM      6  N   UNL     1       1.111  10.090  19.949  0.00  0.00    +0.000 N 
ATOM      7  C   UNL     1       0.573  11.267  20.502  0.00  0.00    +0.000 A 
ATOM      8  N   UNL     1       0.020  11.328  21.678  0.00  0.00    +0.000 NA
ATOM      9  N   UNL     1      -0.302  12.596  22.028  0.00  0.00    +0.000 N 
ATOM     10  C   UNL     1      -1.117  12.979  23.052  0.00  0.00    +0.000 A 
ATOM     11  C   UNL     1      -1.073  14.350  23.119  0.00  0.00    +0.000 A 
ATOM     12  C   UNL     1      -0.197  14.813  22.110  0.00  0.00    +0.000 A 
ATOM     13  C   UNL     1       0.174  13.706  21.390  0.00  0.00    +0.000 A 
ATOM     14  C   UNL     1       0.955  13.514  20.208  0.00  0.00    +0.000 A 
ATOM     15  O   UNL     1       1.806  14.287  19.792  0.00  0.00    +0.000 OA
ATOM     16  N   UNL     1       0.670  12.316  19.618  0.00  0.00    +0.000 N 
ATOM     17  H   UNL     1      -0.267  12.417  19.238  0.00  0.00    +0.000 HD
ENDROOT
BRANCH   3  18
ATOM     18  C   UNL     1       2.179   6.623  19.698  0.00  0.00    +0.000 C 
ATOM     19  O   UNL     1       1.626   5.923  20.544  0.00  0.00    +0.000 OA
ATOM     20  N   UNL     1       3.097   6.098  18.795  0.00  0.00    +0.000 N 
ATOM     21  C   UNL     1       3.287   4.650  18.772  0.00  0.00    +0.000 C 
ATOM     22  C   UNL     1       3.609   4.156  17.352  0.00  0.00    +0.000 C 
ATOM     23  N   UNL     1       4.702   4.881  16.667  0.00  0.00    +0.000 NA
ATOM     24  C   UNL     1       4.453   6.340  16.740  0.00  0.00    +0.000 C 
ATOM     25  C   UNL     1       4.192   6.849  18.169  0.00  0.00    +0.000 C 
BRANCH  23  26
ATOM     26  C   UNL     1       6.044   4.511  17.167  0.00  0.00    +0.000 C 
ATOM     27  C   UNL     1       7.185   4.387  16.188  0.00  0.00    +0.000 C 
ATOM     28  C   UNL     1       7.161   5.518  17.158  0.00  0.00    +0.000 C 
ATOM     29  F   UNL     1       8.070   5.471  18.200  0.00  0.00    +0.000 F 
ENDBRANCH  23  26
ENDBRANCH   3  18
TORSDOF 2
ENDMDL
MODEL 5
REMARK VINA RESULT:      -7.0      3.891      5.231
REMARK  Name = 
REMARK  3 active torsions:
REMARK  status: ('A' for Active; 'I' for Inactive)
REMARK    1  A    between atoms: C_1  and  C_2
REMARK    2  A    between atoms: C_3  and  C_4
REMARK    3  A    between atoms: N_9  and  C_10
REMARK                            x       y       z     vdW  Elec       q    Type
REMARK                         _______ _______ _______ _____ _____    ______ ____
ROOT
ATOM      1  C   UNL     1       0.485   8.446  21.398  0.00  0.00    +0.000 C 
ATOM      2  C   UNL     1       1.051   8.814  20.073  0.00  0.00    +0.000 A 
ATOM      3  C   UNL     1       1.083  10.031  19.406  0.00  0.00    +0.000 A 
ATOM      4  C   UNL     1       1.751   9.744  18.200  0.00  0.00    +0.000 A 
ATOM      5  N   UNL     1       2.057   8.461  18.064  0.00  0.00    +0.000 NA
ATOM      6  N   UNL     1       1.673   7.898  19.243  0.00  0.00    +0.000 N 
ATOM      7  C   UNL     1       1.948   6.537  19.469  0.00  0.00    +0.000 A 
ATOM      8  N   UNL     1       1.833   5.958  20.628  0.00  0.00    +0.000 NA
ATOM      9  N   UNL     1       2.033   4.620  20.554  0.00  0.00    +0.000 N 
ATOM     10  C   UNL     1       2.245   3.767  21.597  0.00  0.00    +0.000 A 
ATOM     11  C   UNL     1       2.281   2.493  21.083  0.00  0.00    +0.000 A 
ATOM     12  C   UNL     1       2.075   2.577  19.686  0.00  0.00    +0.000 A 
ATOM     13  C   UNL     1       2.032   3.914  19.385  0.00  0.00    +0.000 A 
ATOM     14  C   UNL     1       1.945   4.647  18.161  0.00  0.00    +0.000 A 
ATOM     15  O   UNL     1       1.484   4.218  17.113  0.00  0.00    +0.000 OA
ATOM     16  N   UNL     1       2.393   5.927  18.320  0.00  0.00    +0.000 N 
ATOM     17  H   UNL     1       3.398   5.848  18.447  0.00  0.00    +0.000 HD
ENDROOT
BRANCH   3  18
ATOM     18  C   UNL     1       0.610  11.314  19.899  0.00  0.00    +0.000 C 
ATOM     19  O   UNL     1      -0.360  11.374  20.652  0.00  0.00    +0.000 OA
ATOM     20  N   UNL     1       1.336  12.445  19.543  0.00  0.00    +0.000 N 
ATOM     21  C   UNL     1       1.009  13.706  20.203  0.00  0.00    +0.000 C 
ATOM     22  C   UNL     1       2.262  14.582  20.375  0.00  0.00    +0.000 C 
ATOM     23  N   UNL     1       3.066  14.777  19.148  0.00  0.00    +0.000 NA
ATOM     24  C   UNL     1       3.347  13.462  18.525  0.00  0.00    +0.000 C 
ATOM     25  C   UNL     1       2.088  12.608  18.293  0.00  0.00    +0.000 C 
BRANCH  23  26
ATOM     26  C   UNL     1       2.453  15.732  18.200  0.00  0.00    +0.000 C 
ATOM     27  C   UNL     1       2.368  17.190  18.576  0.00  0.00    +0.000 C 
ATOM     28  C   UNL     1       3.302  16.755  17.498  0.00  0.00    +0.000 C 
ATOM     29  F   UNL     1       2.958  17.087  16.199  0.00  0.00    +0.000 F 
ENDBRANCH  23  26
ENDBRANCH   3  18
TORSDOF 2
ENDMDL
MODEL 6
REMARK VINA RESULT:      -7.0      3.636      9.033
REMARK  Name = 
REMARK  3 active torsions:
REMARK  status: ('A' for Active; 'I' for Inactive)
REMARK    1  A    between atoms: C_1  and  C_2
REMARK    2  A    between atoms: C_3  and  C_4
REMARK    3  A    between atoms: N_9  and  C_10
REMARK                            x       y       z     vdW  Elec       q    Type
REMARK                         _______ _______ _______ _____ _____    ______ ____
ROOT
ATOM      1  C   UNL     1       0.570   8.883  21.516  0.00  0.00    +0.000 C 
ATOM      2  C   UNL     1       1.031   8.923  20.103  0.00  0.00    +0.000 A 
ATOM      3  C   UNL     1       1.766   8.009  19.361  0.00  0.00    +0.000 A 
ATOM      4  C   UNL     1       1.882   8.609  18.092  0.00  0.00    +0.000 A 
ATOM      5  N   UNL     1       1.342   9.819  18.036  0.00  0.00    +0.000 NA
ATOM      6  N   UNL     1       0.771   9.989  19.259  0.00  0.00    +0.000 N 
ATOM      7  C   UNL     1       0.019  11.154  19.504  0.00  0.00    +0.000 A 
ATOM      8  N   UNL     1      -0.748  11.315  20.541  0.00  0.00    +0.000 NA
ATOM      9  N   UNL     1      -1.261  12.567  20.610  0.00  0.00    +0.000 N 
ATOM     10  C   UNL     1      -2.289  12.987  21.401  0.00  0.00    +0.000 A 
ATOM     11  C   UNL     1      -2.402  14.347  21.238  0.00  0.00    +0.000 A 
ATOM     12  C   UNL     1      -1.404  14.765  20.327  0.00  0.00    +0.000 A 
ATOM     13  C   UNL     1      -0.791  13.623  19.881  0.00  0.00    +0.000 A 
ATOM     14  C   UNL     1       0.214  13.362  18.898  0.00  0.00    +0.000 A 
ATOM     15  O   UNL     1       1.043  14.170  18.505  0.00  0.00    +0.000 OA
ATOM     16  N   UNL     1       0.172  12.062  18.483  0.00  0.00    +0.000 N 
ATOM     17  H   UNL     1      -0.683  11.979  17.939  0.00  0.00    +0.000 HD
ENDROOT
BRANCH   3  18
ATOM     18  C   UNL     1       2.222   6.697  19.790  0.00  0.00    +0.000 C 
ATOM     19  O   UNL     1       1.667   6.117  20.721  0.00  0.00    +0.000 OA
ATOM     20  N   UNL     1       3.252   6.108  19.066  0.00  0.00    +0.000 N 
ATOM     21  C   UNL     1       3.573   4.710  19.340  0.00  0.00    +0.000 C 
ATOM     22  C   UNL     1       4.051   3.991  18.067  0.00  0.00    +0.000 C 
ATOM     23  N   UNL     1       5.127   4.683  17.322  0.00  0.00    +0.000 NA
ATOM     24  C   UNL     1       4.743   6.095  17.092  0.00  0.00    +0.000 C 
ATOM     25  C   UNL     1       4.323   6.836  18.373  0.00  0.00    +0.000 C 
BRANCH  23  26
ATOM     26  C   UNL     1       6.452   4.556  17.966  0.00  0.00    +0.000 C 
ATOM     27  C   UNL     1       7.686   4.477  17.102  0.00  0.00    +0.000 C 
ATOM     28  C   UNL     1       7.431   5.697  17.921  0.00  0.00    +0.000 C 
ATOM     29  F   UNL     1       8.238   5.889  19.028  0.00  0.00    +0.000 F 
ENDBRANCH  23  26
ENDBRANCH   3  18
TORSDOF 2
ENDMDL
MODEL 7
REMARK VINA RESULT:      -7.0      3.239      8.959
REMARK  Name = 
REMARK  3 active torsions:
REMARK  status: ('A' for Active; 'I' for Inactive)
REMARK    1  A    between atoms: C_1  and  C_2
REMARK    2  A    between atoms: C_3  and  C_4
REMARK    3  A    between atoms: N_9  and  C_10
REMARK                            x       y       z     vdW  Elec       q    Type
REMARK                         _______ _______ _______ _____ _____    ______ ____
ROOT
ATOM      1  C   UNL     1      -1.353  10.294  18.326  0.00  0.00    +0.000 C 
ATOM      2  C   UNL     1      -0.397  10.412  19.459  0.00  0.00    +0.000 A 
ATOM      3  C   UNL     1       0.874   9.882  19.633  0.00  0.00    +0.000 A 
ATOM      4  C   UNL     1       1.270  10.344  20.903  0.00  0.00    +0.000 A 
ATOM      5  N   UNL     1       0.326  11.043  21.521  0.00  0.00    +0.000 NA
ATOM      6  N   UNL     1      -0.680  11.128  20.609  0.00  0.00    +0.000 N 
ATOM      7  C   UNL     1      -1.816  11.899  20.918  0.00  0.00    +0.000 A 
ATOM      8  N   UNL     1      -2.723  12.233  20.048  0.00  0.00    +0.000 NA
ATOM      9  N   UNL     1      -3.776  12.865  20.622  0.00  0.00    +0.000 N 
ATOM     10  C   UNL     1      -4.753  13.570  19.983  0.00  0.00    +0.000 A 
ATOM     11  C   UNL     1      -5.677  13.939  20.930  0.00  0.00    +0.000 A 
ATOM     12  C   UNL     1      -5.250  13.434  22.181  0.00  0.00    +0.000 A 
ATOM     13  C   UNL     1      -4.019  12.870  21.965  0.00  0.00    +0.000 A 
ATOM     14  C   UNL     1      -3.039  12.283  22.826  0.00  0.00    +0.000 A 
ATOM     15  O   UNL     1      -3.265  11.795  23.924  0.00  0.00    +0.000 OA
ATOM     16  N   UNL     1      -1.806  12.282  22.238  0.00  0.00    +0.000 N 
ATOM     17  H   UNL     1      -1.515  13.255  22.219  0.00  0.00    +0.000 HD
ENDROOT
BRANCH   3  18
ATOM     18  C   UNL     1       1.639   9.104  18.671  0.00  0.00    +0.000 C 
ATOM     19  O   UNL     1       2.014   9.611  17.616  0.00  0.00    +0.000 OA
ATOM     20  N   UNL     1       1.982   7.805  19.026  0.00  0.00    +0.000 N 
ATOM     21  C   UNL     1       2.930   7.089  18.176  0.00  0.00    +0.000 C 
ATOM     22  C   UNL     1       3.803   6.131  19.005  0.00  0.00    +0.000 C 
ATOM     23  N   UNL     1       3.059   5.226  19.909  0.00  0.00    +0.000 NA
ATOM     24  C   UNL     1       2.108   6.015  20.728  0.00  0.00    +0.000 C 
ATOM     25  C   UNL     1       1.190   6.928  19.898  0.00  0.00    +0.000 C 
BRANCH  23  26
ATOM     26  C   UNL     1       2.400   4.110  19.198  0.00  0.00    +0.000 C 
ATOM     27  C   UNL     1       2.818   2.693  19.504  0.00  0.00    +0.000 C 
ATOM     28  C   UNL     1       1.476   3.179  19.936  0.00  0.00    +0.000 C 
ATOM     29  F   UNL     1       0.381   2.689  19.247  0.00  0.00    +0.000 F 
ENDBRANCH  23  26
ENDBRANCH   3  18
TORSDOF 2
ENDMDL
MODEL 8
REMARK VINA RESULT:      -6.9      3.397      8.928
REMARK  Name = 
REMARK  3 active torsions:
REMARK  status: ('A' for Active; 'I' for Inactive)
REMARK    1  A    between atoms: C_1  and  C_2
REMARK    2  A    between atoms: C_3  and  C_4
REMARK    3  A    between atoms: N_9  and  C_10
REMARK                            x       y       z     vdW  Elec       q    Type
REMARK                         _______ _______ _______ _____ _____    ______ ____
ROOT
ATOM      1  C   UNL     1      -0.220  11.028  18.739  0.00  0.00    +0.000 C 
ATOM      2  C   UNL     1       0.268  10.385  19.987  0.00  0.00    +0.000 A 
ATOM      3  C   UNL     1       1.151   9.331  20.180  0.00  0.00    +0.000 A 
ATOM      4  C   UNL     1       1.213   9.185  21.579  0.00  0.00    +0.000 A 
ATOM      5  N   UNL     1       0.401  10.011  22.227  0.00  0.00    +0.000 NA
ATOM      6  N   UNL     1      -0.140  10.785  21.248  0.00  0.00    +0.000 N 
ATOM      7  C   UNL     1      -0.991  11.846  21.611  0.00  0.00    +0.000 A 
ATOM      8  N   UNL     1      -1.379  12.777  20.790  0.00  0.00    +0.000 NA
ATOM      9  N   UNL     1      -2.293  13.606  21.349  0.00  0.00    +0.000 N 
ATOM     10  C   UNL     1      -2.699  14.817  20.870  0.00  0.00    +0.000 A 
ATOM     11  C   UNL     1      -3.715  15.258  21.682  0.00  0.00    +0.000 A 
ATOM     12  C   UNL     1      -3.938  14.279  22.679  0.00  0.00    +0.000 A 
ATOM     13  C   UNL     1      -2.969  13.326  22.502  0.00  0.00    +0.000 A 
ATOM     14  C   UNL     1      -2.597  12.151  23.227  0.00  0.00    +0.000 A 
ATOM     15  O   UNL     1      -3.335  11.514  23.964  0.00  0.00    +0.000 OA
ATOM     16  N   UNL     1      -1.312  11.785  22.946  0.00  0.00    +0.000 N 
ATOM     17  H   UNL     1      -0.728  12.494  23.381  0.00  0.00    +0.000 HD
ENDROOT
BRANCH   3  18
ATOM     18  C   UNL     1       1.898   8.616  19.159  0.00  0.00    +0.000 C 
ATOM     19  O   UNL     1       2.325   9.206  18.169  0.00  0.00    +0.000 OA
ATOM     20  N   UNL     1       2.163   7.269  19.383  0.00  0.00    +0.000 N 
ATOM     21  C   UNL     1       3.093   6.593  18.483  0.00  0.00    +0.000 C 
ATOM     22  C   UNL     1       3.893   5.509  19.225  0.00  0.00    +0.000 C 
ATOM     23  N   UNL     1       3.079   4.558  20.016  0.00  0.00    +0.000 NA
ATOM     24  C   UNL     1       2.151   5.310  20.893  0.00  0.00    +0.000 C 
ATOM     25  C   UNL     1       1.303   6.353  20.143  0.00  0.00    +0.000 C 
BRANCH  23  26
ATOM     26  C   UNL     1       2.381   3.559  19.180  0.00  0.00    +0.000 C 
ATOM     27  C   UNL     1       2.656   2.093  19.402  0.00  0.00    +0.000 C 
ATOM     28  C   UNL     1       1.332   2.665  19.782  0.00  0.00    +0.000 C 
ATOM     29  F   UNL     1       0.251   2.325  18.988  0.00  0.00    +0.000 F 
ENDBRANCH  23  26
ENDBRANCH   3  18
TORSDOF 2
ENDMDL
MODEL 9
REMARK VINA RESULT:      -6.9      2.655      3.578
REMARK  Name = 
REMARK  3 active torsions:
REMARK  status: ('A' for Active; 'I' for Inactive)
REMARK    1  A    between atoms: C_1  and  C_2
REMARK    2  A    between atoms: C_3  and  C_4
REMARK    3  A    between atoms: N_9  and  C_10
REMARK                            x       y       z     vdW  Elec       q    Type
REMARK                         _______ _______ _______ _____ _____    ______ ____
ROOT
ATOM      1  C   UNL     1       0.768   8.398  21.722  0.00  0.00    +0.000 C 
ATOM      2  C   UNL     1       1.275   8.782  20.378  0.00  0.00    +0.000 A 
ATOM      3  C   UNL     1       1.358  10.021  19.758  0.00  0.00    +0.000 A 
ATOM      4  C   UNL     1       1.923   9.741  18.499  0.00  0.00    +0.000 A 
ATOM      5  N   UNL     1       2.120   8.445  18.293  0.00  0.00    +0.000 NA
ATOM      6  N   UNL     1       1.770   7.860  19.471  0.00  0.00    +0.000 N 
ATOM      7  C   UNL     1       1.953   6.474  19.623  0.00  0.00    +0.000 A 
ATOM      8  N   UNL     1       1.868   5.853  20.764  0.00  0.00    +0.000 NA
ATOM      9  N   UNL     1       1.958   4.508  20.624  0.00  0.00    +0.000 N 
ATOM     10  C   UNL     1       2.171   3.596  21.615  0.00  0.00    +0.000 A 
ATOM     11  C   UNL     1       2.075   2.348  21.049  0.00  0.00    +0.000 A 
ATOM     12  C   UNL     1       1.787   2.509  19.674  0.00  0.00    +0.000 A 
ATOM     13  C   UNL     1       1.829   3.858  19.430  0.00  0.00    +0.000 A 
ATOM     14  C   UNL     1       1.719   4.650  18.245  0.00  0.00    +0.000 A 
ATOM     15  O   UNL     1       1.161   4.304  17.214  0.00  0.00    +0.000 OA
ATOM     16  N   UNL     1       2.275   5.884  18.424  0.00  0.00    +0.000 N 
ATOM     17  H   UNL     1       3.277   5.725  18.479  0.00  0.00    +0.000 HD
ENDROOT
BRANCH   3  18
ATOM     18  C   UNL     1       1.018  11.312  20.333  0.00  0.00    +0.000 C 
ATOM     19  O   UNL     1       1.866  11.975  20.927  0.00  0.00    +0.000 OA
ATOM     20  N   UNL     1      -0.272  11.788  20.123  0.00  0.00    +0.000 N 
ATOM     21  C   UNL     1      -0.564  13.169  20.498  0.00  0.00    +0.000 C 
ATOM     22  C   UNL     1      -1.606  13.791  19.553  0.00  0.00    +0.000 C 
ATOM     23  N   UNL     1      -2.833  12.987  19.354  0.00  0.00    +0.000 NA
ATOM     24  C   UNL     1      -2.462  11.599  18.990  0.00  0.00    +0.000 C 
ATOM     25  C   UNL     1      -1.468  10.950  19.969  0.00  0.00    +0.000 C 
BRANCH  23  26
ATOM     26  C   UNL     1      -3.756  13.042  20.508  0.00  0.00    +0.000 C 
ATOM     27  C   UNL     1      -4.882  14.044  20.502  0.00  0.00    +0.000 C 
ATOM     28  C   UNL     1      -5.183  12.591  20.361  0.00  0.00    +0.000 C 
ATOM     29  F   UNL     1      -5.769  11.963  21.446  0.00  0.00    +0.000 F 
ENDBRANCH  23  26
ENDBRANCH   3  18
TORSDOF 2
ENDMDL
