MODEL 1
REMARK VINA RESULT:      -8.4      0.000      0.000
REMARK  Name = 
REMARK  8 active torsions:
REMARK  status: ('A' for Active; 'I' for Inactive)
REMARK    1  A    between atoms: C_1  and  O_2
REMARK    2  A    between atoms: O_2  and  C_3
REMARK    3  A    between atoms: C_5  and  C_6
REMARK    4  A    between atoms: C_10  and  C_11
REMARK    5  A    between atoms: C_14  and  C_15
REMARK    6  A    between atoms: N_20  and  C_21
REMARK    7  A    between atoms: C_21  and  C_22
REMARK    8  A    between atoms: C_21  and  C_24
REMARK                            x       y       z     vdW  Elec       q    Type
REMARK                         _______ _______ _______ _____ _____    ______ ____
ROOT
ATOM      1  C   UNL     1       2.237   5.597  20.431  0.00  0.00    +0.000 A 
ATOM      2  C   UNL     1       3.099   5.066  19.471  0.00  0.00    +0.000 A 
ATOM      3  C   UNL     1       3.305   5.668  18.220  0.00  0.00    +0.000 A 
ATOM      4  C   UNL     1       2.810   6.969  17.978  0.00  0.00    +0.000 A 
ATOM      5  C   UNL     1       2.071   7.592  18.999  0.00  0.00    +0.000 A 
ATOM      6  N   UNL     1       1.530   8.860  19.105  0.00  0.00    +0.000 NA
ATOM      7  C   UNL     1       1.019   8.882  20.321  0.00  0.00    +0.000 A 
ATOM      8  N   UNL     1       0.482   9.873  21.031  0.00  0.00    +0.000 N 
ATOM      9  O   UNL     1       1.079   7.694  20.985  0.00  0.00    +0.000 OA
ATOM     10  C   UNL     1       1.793   6.883  20.155  0.00  0.00    +0.000 A 
ATOM     11  H   UNL     1       0.105   9.668  21.952  0.00  0.00    +0.000 HD
ENDROOT
BRANCH   3  12
ATOM     12  C   UNL     1       4.103   4.957  17.165  0.00  0.00    +0.000 C 
ATOM     13  O   UNL     1       3.689   3.855  16.818  0.00  0.00    +0.000 OA
ATOM     14  N   UNL     1       5.262   5.559  16.630  0.00  0.00    +0.000 N 
ATOM     15  C   UNL     1       5.895   6.754  17.201  0.00  0.00    +0.000 C 
ATOM     16  C   UNL     1       7.421   6.703  17.188  0.00  0.00    +0.000 C 
ATOM     17  C   UNL     1       7.961   8.040  17.680  0.00  0.00    +0.000 C 
ATOM     18  O   UNL     1       7.894   6.463  15.857  0.00  0.00    +0.000 OA
ATOM     19  C   UNL     1       7.380   5.213  15.363  0.00  0.00    +0.000 C 
ATOM     20  C   UNL     1       5.829   5.204  15.303  0.00  0.00    +0.000 C 
ATOM     21  C   UNL     1       5.357   3.920  14.629  0.00  0.00    +0.000 C 
ENDBRANCH   3  12
BRANCH   1  23
ATOM     22  C   UNL     1       2.035   3.568  21.638  0.00  0.00    +0.000 C 
ATOM     23  O   UNL     1       1.828   4.973  21.573  0.00  0.00    +0.000 OA
ENDBRANCH   1  23
BRANCH   8  24
ATOM     24  C   UNL     1       0.065  11.124  20.430  0.00  0.00    +0.000 C 
BRANCH  24  25
ATOM     25  C   UNL     1      -0.504  12.057  21.494  0.00  0.00    +0.000 A 
ATOM     26  C   UNL     1       0.129  13.281  21.761  0.00  0.00    +0.000 A 
ATOM     27  C   UNL     1      -0.378  14.161  22.719  0.00  0.00    +0.000 A 
ATOM     28  C   UNL     1      -1.528  13.829  23.432  0.00  0.00    +0.000 A 
ATOM     29  C   UNL     1      -2.165  12.617  23.186  0.00  0.00    +0.000 A 
ATOM     30 CL   UNL     1      -3.584  12.206  24.071  0.00  0.00    +0.000 Cl
ATOM     31  C   UNL     1      -1.663  11.732  22.228  0.00  0.00    +0.000 A 
ENDBRANCH  24  25
BRANCH  24  32
ATOM     32  C   UNL     1      -0.944  10.845  19.303  0.00  0.00    +0.000 C 
ATOM     33  F   UNL     1      -1.035  11.925  18.471  0.00  0.00    +0.000 F 
ENDBRANCH  24  32
ENDBRANCH   8  24
TORSDOF 5
ENDMDL
MODEL 2
REMARK VINA RESULT:      -8.3      0.925      1.246
REMARK  Name = 
REMARK  8 active torsions:
REMARK  status: ('A' for Active; 'I' for Inactive)
REMARK    1  A    between atoms: C_1  and  O_2
REMARK    2  A    between atoms: O_2  and  C_3
REMARK    3  A    between atoms: C_5  and  C_6
REMARK    4  A    between atoms: C_10  and  C_11
REMARK    5  A    between atoms: C_14  and  C_15
REMARK    6  A    between atoms: N_20  and  C_21
REMARK    7  A    between atoms: C_21  and  C_22
REMARK    8  A    between atoms: C_21  and  C_24
REMARK                            x       y       z     vdW  Elec       q    Type
REMARK                         _______ _______ _______ _____ _____    ______ ____
ROOT
ATOM      1  C   UNL     1       2.209   5.429  20.443  0.00  0.00    +0.000 A 
ATOM      2  C   UNL     1       3.070   4.899  19.482  0.00  0.00    +0.000 A 
ATOM      3  C   UNL     1       3.325   5.537  18.257  0.00  0.00    +0.000 A 
ATOM      4  C   UNL     1       2.885   6.864  18.053  0.00  0.00    +0.000 A 
ATOM      5  C   UNL     1       2.149   7.479  19.081  0.00  0.00    +0.000 A 
ATOM      6  N   UNL     1       1.654   8.762  19.223  0.00  0.00    +0.000 NA
ATOM      7  C   UNL     1       1.120   8.761  20.429  0.00  0.00    +0.000 A 
ATOM      8  N   UNL     1       0.606   9.746  21.163  0.00  0.00    +0.000 N 
ATOM      9  O   UNL     1       1.122   7.549  21.050  0.00  0.00    +0.000 OA
ATOM     10  C   UNL     1       1.821   6.741  20.205  0.00  0.00    +0.000 A 
ATOM     11  H   UNL     1       0.204   9.524  22.069  0.00  0.00    +0.000 HD
ENDROOT
BRANCH   3  12
ATOM     12  C   UNL     1       4.116   4.833  17.193  0.00  0.00    +0.000 C 
ATOM     13  O   UNL     1       3.713   3.724  16.855  0.00  0.00    +0.000 OA
ATOM     14  N   UNL     1       5.258   5.449  16.637  0.00  0.00    +0.000 N 
ATOM     15  C   UNL     1       5.883   6.655  17.194  0.00  0.00    +0.000 C 
ATOM     16  C   UNL     1       7.409   6.625  17.158  0.00  0.00    +0.000 C 
ATOM     17  C   UNL     1       7.938   7.971  17.637  0.00  0.00    +0.000 C 
ATOM     18  O   UNL     1       7.865   6.386  15.821  0.00  0.00    +0.000 OA
ATOM     19  C   UNL     1       7.361   5.128  15.339  0.00  0.00    +0.000 C 
ATOM     20  C   UNL     1       5.810   5.097  15.304  0.00  0.00    +0.000 C 
ATOM     21  C   UNL     1       5.346   3.804  14.641  0.00  0.00    +0.000 C 
ENDBRANCH   3  12
BRANCH   1  23
ATOM     22  C   UNL     1       1.945   3.373  21.591  0.00  0.00    +0.000 C 
ATOM     23  O   UNL     1       1.754   4.782  21.554  0.00  0.00    +0.000 OA
ENDBRANCH   1  23
BRANCH   8  24
ATOM     24  C   UNL     1       0.249  11.032  20.600  0.00  0.00    +0.000 C 
BRANCH  24  25
ATOM     25  C   UNL     1      -0.421  11.904  21.657  0.00  0.00    +0.000 A 
ATOM     26  C   UNL     1      -1.384  11.348  22.513  0.00  0.00    +0.000 A 
ATOM     27  C   UNL     1      -2.003  12.120  23.499  0.00  0.00    +0.000 A 
ATOM     28  C   UNL     1      -1.672  13.466  23.643  0.00  0.00    +0.000 A 
ATOM     29  C   UNL     1      -0.724  14.035  22.798  0.00  0.00    +0.000 A 
ATOM     30 CL   UNL     1      -0.319  15.699  22.975  0.00  0.00    +0.000 Cl
ATOM     31  C   UNL     1      -0.101  13.268  21.810  0.00  0.00    +0.000 A 
ENDBRANCH  24  25
BRANCH  24  32
ATOM     32  C   UNL     1      -0.644  10.826  19.366  0.00  0.00    +0.000 C 
ATOM     33  F   UNL     1      -1.737  11.644  19.430  0.00  0.00    +0.000 F 
ENDBRANCH  24  32
ENDBRANCH   8  24
TORSDOF 5
ENDMDL
MODEL 3
REMARK VINA RESULT:      -8.2      4.437      8.847
REMARK  Name = 
REMARK  8 active torsions:
REMARK  status: ('A' for Active; 'I' for Inactive)
REMARK    1  A    between atoms: C_1  and  O_2
REMARK    2  A    between atoms: O_2  and  C_3
REMARK    3  A    between atoms: C_5  and  C_6
REMARK    4  A    between atoms: C_10  and  C_11
REMARK    5  A    between atoms: C_14  and  C_15
REMARK    6  A    between atoms: N_20  and  C_21
REMARK    7  A    between atoms: C_21  and  C_22
REMARK    8  A    between atoms: C_21  and  C_24
REMARK                            x       y       z     vdW  Elec       q    Type
REMARK                         _______ _______ _______ _____ _____    ______ ____
ROOT
ATOM      1  C   UNL     1       0.623  11.138  21.254  0.00  0.00    +0.000 A 
ATOM      2  C   UNL     1       0.308  12.364  20.667  0.00  0.00    +0.000 A 
ATOM      3  C   UNL     1       0.682  12.696  19.355  0.00  0.00    +0.000 A 
ATOM      4  C   UNL     1       1.200  11.697  18.500  0.00  0.00    +0.000 A 
ATOM      5  C   UNL     1       1.376  10.406  19.027  0.00  0.00    +0.000 A 
ATOM      6  N   UNL     1       1.777   9.217  18.446  0.00  0.00    +0.000 NA
ATOM      7  C   UNL     1       1.675   8.339  19.425  0.00  0.00    +0.000 A 
ATOM      8  N   UNL     1       1.803   7.013  19.433  0.00  0.00    +0.000 N 
ATOM      9  O   UNL     1       1.346   8.871  20.635  0.00  0.00    +0.000 OA
ATOM     10  C   UNL     1       1.111  10.187  20.368  0.00  0.00    +0.000 A 
ATOM     11  H   UNL     1       1.722   6.518  20.316  0.00  0.00    +0.000 HD
ENDROOT
BRANCH   3  12
ATOM     12  C   UNL     1       0.473  14.092  18.844  0.00  0.00    +0.000 C 
ATOM     13  O   UNL     1      -0.683  14.410  18.581  0.00  0.00    +0.000 OA
ATOM     14  N   UNL     1       1.575  14.960  18.687  0.00  0.00    +0.000 N 
ATOM     15  C   UNL     1       2.973  14.520  18.767  0.00  0.00    +0.000 C 
ATOM     16  C   UNL     1       3.884  15.188  17.741  0.00  0.00    +0.000 C 
ATOM     17  C   UNL     1       5.321  14.756  18.004  0.00  0.00    +0.000 C 
ATOM     18  O   UNL     1       3.791  16.613  17.853  0.00  0.00    +0.000 OA
ATOM     19  C   UNL     1       2.437  17.044  17.628  0.00  0.00    +0.000 C 
ATOM     20  C   UNL     1       1.453  16.440  18.666  0.00  0.00    +0.000 C 
ATOM     21  C   UNL     1       0.072  17.055  18.469  0.00  0.00    +0.000 C 
ENDBRANCH   3  12
BRANCH   1  23
ATOM     22  C   UNL     1      -0.811  10.385  22.983  0.00  0.00    +0.000 C 
ATOM     23  O   UNL     1       0.479  10.821  22.573  0.00  0.00    +0.000 OA
ENDBRANCH   1  23
BRANCH   8  24
ATOM     24  C   UNL     1       2.418   6.284  18.343  0.00  0.00    +0.000 C 
BRANCH  24  25
ATOM     25  C   UNL     1       2.312   4.781  18.585  0.00  0.00    +0.000 A 
ATOM     26  C   UNL     1       2.471   3.889  17.514  0.00  0.00    +0.000 A 
ATOM     27  C   UNL     1       2.393   2.508  17.711  0.00  0.00    +0.000 A 
ATOM     28  C   UNL     1       2.149   1.996  18.983  0.00  0.00    +0.000 A 
ATOM     29  C   UNL     1       1.982   2.868  20.055  0.00  0.00    +0.000 A 
ATOM     30 CL   UNL     1       1.676   2.234  21.627  0.00  0.00    +0.000 Cl
ATOM     31  C   UNL     1       2.059   4.250  19.866  0.00  0.00    +0.000 A 
ENDBRANCH  24  25
BRANCH  24  32
ATOM     32  C   UNL     1       3.876   6.743  18.171  0.00  0.00    +0.000 C 
ATOM     33  F   UNL     1       4.161   6.930  16.848  0.00  0.00    +0.000 F 
ENDBRANCH  24  32
ENDBRANCH   8  24
TORSDOF 5
ENDMDL
MODEL 4
REMARK VINA RESULT:      -8.2      1.197      1.306
REMARK  Name = 
REMARK  8 active torsions:
REMARK  status: ('A' for Active; 'I' for Inactive)
REMARK    1  A    between atoms: C_1  and  O_2
REMARK    2  A    between atoms: O_2  and  C_3
REMARK    3  A    between atoms: C_5  and  C_6
REMARK    4  A    between atoms: C_10  and  C_11
REMARK    5  A    between atoms: C_14  and  C_15
REMARK    6  A    between atoms: N_20  and  C_21
REMARK    7  A    between atoms: C_21  and  C_22
REMARK    8  A    between atoms: C_21  and  C_24
REMARK                            x       y       z     vdW  Elec       q    Type
REMARK                         _______ _______ _______ _____ _____    ______ ____
ROOT
ATOM      1  C   UNL     1       2.015   5.206  20.371  0.00  0.00    +0.000 A 
ATOM      2  C   UNL     1       2.892   4.699  19.413  0.00  0.00    +0.000 A 
ATOM      3  C   UNL     1       3.266   5.421  18.268  0.00  0.00    +0.000 A 
ATOM      4  C   UNL     1       2.937   6.792  18.166  0.00  0.00    +0.000 A 
ATOM      5  C   UNL     1       2.187   7.368  19.206  0.00  0.00    +0.000 A 
ATOM      6  N   UNL     1       1.779   8.668  19.440  0.00  0.00    +0.000 NA
ATOM      7  C   UNL     1       1.174   8.601  20.610  0.00  0.00    +0.000 A 
ATOM      8  N   UNL     1       0.689   9.554  21.405  0.00  0.00    +0.000 N 
ATOM      9  O   UNL     1       1.049   7.342  21.115  0.00  0.00    +0.000 OA
ATOM     10  C   UNL     1       1.738   6.560  20.237  0.00  0.00    +0.000 A 
ATOM     11  H   UNL     1       0.217   9.284  22.263  0.00  0.00    +0.000 HD
ENDROOT
BRANCH   3  12
ATOM     12  C   UNL     1       4.068   4.755  17.188  0.00  0.00    +0.000 C 
ATOM     13  O   UNL     1       3.671   3.657  16.811  0.00  0.00    +0.000 OA
ATOM     14  N   UNL     1       5.212   5.393  16.661  0.00  0.00    +0.000 N 
ATOM     15  C   UNL     1       5.828   6.582  17.262  0.00  0.00    +0.000 C 
ATOM     16  C   UNL     1       7.354   6.559  17.236  0.00  0.00    +0.000 C 
ATOM     17  C   UNL     1       7.875   7.891  17.762  0.00  0.00    +0.000 C 
ATOM     18  O   UNL     1       7.821   6.366  15.895  0.00  0.00    +0.000 OA
ATOM     19  C   UNL     1       7.324   5.122  15.368  0.00  0.00    +0.000 C 
ATOM     20  C   UNL     1       5.774   5.088  15.320  0.00  0.00    +0.000 C 
ATOM     21  C   UNL     1       5.319   3.816  14.612  0.00  0.00    +0.000 C 
ENDBRANCH   3  12
BRANCH   1  23
ATOM     22  C   UNL     1       1.665   3.095  21.389  0.00  0.00    +0.000 C 
ATOM     23  O   UNL     1       1.446   4.500  21.391  0.00  0.00    +0.000 OA
ENDBRANCH   1  23
BRANCH   8  24
ATOM     24  C   UNL     1       0.462  10.909  20.946  0.00  0.00    +0.000 C 
BRANCH  24  25
ATOM     25  C   UNL     1      -0.833  11.457  21.538  0.00  0.00    +0.000 A 
ATOM     26  C   UNL     1      -1.085  11.322  22.912  0.00  0.00    +0.000 A 
ATOM     27  C   UNL     1      -2.255  11.827  23.482  0.00  0.00    +0.000 A 
ATOM     28  C   UNL     1      -3.198  12.474  22.686  0.00  0.00    +0.000 A 
ATOM     29  C   UNL     1      -2.967  12.611  21.320  0.00  0.00    +0.000 A 
ATOM     30 CL   UNL     1      -4.135  13.406  20.336  0.00  0.00    +0.000 Cl
ATOM     31  C   UNL     1      -1.798  12.108  20.743  0.00  0.00    +0.000 A 
ENDBRANCH  24  25
BRANCH  24  32
ATOM     32  C   UNL     1       0.457  10.940  19.408  0.00  0.00    +0.000 C 
ATOM     33  F   UNL     1       1.239  11.964  18.953  0.00  0.00    +0.000 F 
ENDBRANCH  24  32
ENDBRANCH   8  24
TORSDOF 5
ENDMDL
MODEL 5
REMARK VINA RESULT:      -7.9      4.651      8.960
REMARK  Name = 
REMARK  8 active torsions:
REMARK  status: ('A' for Active; 'I' for Inactive)
REMARK    1  A    between atoms: C_1  and  O_2
REMARK    2  A    between atoms: O_2  and  C_3
REMARK    3  A    between atoms: C_5  and  C_6
REMARK    4  A    between atoms: C_10  and  C_11
REMARK    5  A    between atoms: C_14  and  C_15
REMARK    6  A    between atoms: N_20  and  C_21
REMARK    7  A    between atoms: C_21  and  C_22
REMARK    8  A    between atoms: C_21  and  C_24
REMARK                            x       y       z     vdW  Elec       q    Type
REMARK                         _______ _______ _______ _____ _____    ______ ____
ROOT
ATOM      1  C   UNL     1       0.557  10.994  21.384  0.00  0.00    +0.000 A 
ATOM      2  C   UNL     1       0.226  12.187  20.741  0.00  0.00    +0.000 A 
ATOM      3  C   UNL     1       0.624  12.476  19.426  0.00  0.00    +0.000 A 
ATOM      4  C   UNL     1       1.188  11.457  18.625  0.00  0.00    +0.000 A 
ATOM      5  C   UNL     1       1.382  10.193  19.208  0.00  0.00    +0.000 A 
ATOM      6  N   UNL     1       1.827   8.992  18.685  0.00  0.00    +0.000 NA
ATOM      7  C   UNL     1       1.721   8.151  19.696  0.00  0.00    +0.000 A 
ATOM      8  N   UNL     1       1.882   6.831  19.761  0.00  0.00    +0.000 N 
ATOM      9  O   UNL     1       1.351   8.723  20.875  0.00  0.00    +0.000 OA
ATOM     10  C   UNL     1       1.090  10.021  20.550  0.00  0.00    +0.000 A 
ATOM     11  H   UNL     1       1.791   6.369  20.661  0.00  0.00    +0.000 HD
ENDROOT
BRANCH   3  12
ATOM     12  C   UNL     1       0.393  13.844  18.854  0.00  0.00    +0.000 C 
ATOM     13  O   UNL     1      -0.750  14.099  18.490  0.00  0.00    +0.000 OA
ATOM     14  N   UNL     1       1.464  14.759  18.756  0.00  0.00    +0.000 N 
ATOM     15  C   UNL     1       2.870  14.390  18.962  0.00  0.00    +0.000 C 
ATOM     16  C   UNL     1       3.829  15.071  17.990  0.00  0.00    +0.000 C 
ATOM     17  C   UNL     1       5.259  14.717  18.381  0.00  0.00    +0.000 C 
ATOM     18  O   UNL     1       3.663  16.493  18.048  0.00  0.00    +0.000 OA
ATOM     19  C   UNL     1       2.313  16.851  17.701  0.00  0.00    +0.000 C 
ATOM     20  C   UNL     1       1.277  16.231  18.676  0.00  0.00    +0.000 C 
ATOM     21  C   UNL     1      -0.110  16.772  18.350  0.00  0.00    +0.000 C 
ENDBRANCH   3  12
BRANCH   1  23
ATOM     22  C   UNL     1      -0.948  10.516  23.152  0.00  0.00    +0.000 C 
ATOM     23  O   UNL     1       0.388  10.726  22.711  0.00  0.00    +0.000 OA
ENDBRANCH   1  23
BRANCH   8  24
ATOM     24  C   UNL     1       2.542   6.075  18.715  0.00  0.00    +0.000 C 
BRANCH  24  25
ATOM     25  C   UNL     1       2.274   4.583  18.893  0.00  0.00    +0.000 A 
ATOM     26  C   UNL     1       1.105   4.156  19.542  0.00  0.00    +0.000 A 
ATOM     27  C   UNL     1       0.828   2.797  19.705  0.00  0.00    +0.000 A 
ATOM     28  C   UNL     1       1.720   1.840  19.226  0.00  0.00    +0.000 A 
ATOM     29  C   UNL     1       2.888   2.246  18.586  0.00  0.00    +0.000 A 
ATOM     30 CL   UNL     1       3.991   1.062  17.998  0.00  0.00    +0.000 Cl
ATOM     31  C   UNL     1       3.170   3.604  18.419  0.00  0.00    +0.000 A 
ENDBRANCH  24  25
BRANCH  24  32
ATOM     32  C   UNL     1       4.045   6.399  18.713  0.00  0.00    +0.000 C 
ATOM     33  F   UNL     1       4.407   6.955  17.518  0.00  0.00    +0.000 F 
ENDBRANCH  24  32
ENDBRANCH   8  24
TORSDOF 5
ENDMDL
MODEL 6
REMARK VINA RESULT:      -7.9      1.948      2.472
REMARK  Name = 
REMARK  8 active torsions:
REMARK  status: ('A' for Active; 'I' for Inactive)
REMARK    1  A    between atoms: C_1  and  O_2
REMARK    2  A    between atoms: O_2  and  C_3
REMARK    3  A    between atoms: C_5  and  C_6
REMARK    4  A    between atoms: C_10  and  C_11
REMARK    5  A    between atoms: C_14  and  C_15
REMARK    6  A    between atoms: N_20  and  C_21
REMARK    7  A    between atoms: C_21  and  C_22
REMARK    8  A    between atoms: C_21  and  C_24
REMARK                            x       y       z     vdW  Elec       q    Type
REMARK                         _______ _______ _______ _____ _____    ______ ____
ROOT
ATOM      1  C   UNL     1       2.000   5.518  20.248  0.00  0.00    +0.000 A 
ATOM      2  C   UNL     1       2.885   4.968  19.321  0.00  0.00    +0.000 A 
ATOM      3  C   UNL     1       3.278   5.642  18.154  0.00  0.00    +0.000 A 
ATOM      4  C   UNL     1       2.958   7.009  17.992  0.00  0.00    +0.000 A 
ATOM      5  C   UNL     1       2.199   7.630  18.999  0.00  0.00    +0.000 A 
ATOM      6  N   UNL     1       1.795   8.941  19.176  0.00  0.00    +0.000 NA
ATOM      7  C   UNL     1       1.176   8.925  20.341  0.00  0.00    +0.000 A 
ATOM      8  N   UNL     1       0.687   9.911  21.090  0.00  0.00    +0.000 N 
ATOM      9  O   UNL     1       1.038   7.687  20.894  0.00  0.00    +0.000 OA
ATOM     10  C   UNL     1       1.733   6.867  20.056  0.00  0.00    +0.000 A 
ATOM     11  H   UNL     1       0.203   9.678  21.953  0.00  0.00    +0.000 HD
ENDROOT
BRANCH   3  12
ATOM     12  C   UNL     1       4.088   4.929  17.110  0.00  0.00    +0.000 C 
ATOM     13  O   UNL     1       3.688   3.820  16.771  0.00  0.00    +0.000 OA
ATOM     14  N   UNL     1       5.244   5.538  16.575  0.00  0.00    +0.000 N 
ATOM     15  C   UNL     1       5.862   6.744  17.138  0.00  0.00    +0.000 C 
ATOM     16  C   UNL     1       7.388   6.709  17.134  0.00  0.00    +0.000 C 
ATOM     17  C   UNL     1       7.912   8.056  17.616  0.00  0.00    +0.000 C 
ATOM     18  O   UNL     1       7.871   6.461  15.808  0.00  0.00    +0.000 OA
ATOM     19  C   UNL     1       7.372   5.201  15.323  0.00  0.00    +0.000 C 
ATOM     20  C   UNL     1       5.821   5.176  15.255  0.00  0.00    +0.000 C 
ATOM     21  C   UNL     1       5.366   3.882  14.590  0.00  0.00    +0.000 C 
ENDBRANCH   3  12
BRANCH   1  23
ATOM     22  C   UNL     1       1.643   3.455  21.357  0.00  0.00    +0.000 C 
ATOM     23  O   UNL     1       1.415   4.857  21.288  0.00  0.00    +0.000 OA
ENDBRANCH   1  23
BRANCH   8  24
ATOM     24  C   UNL     1       0.473  11.248  20.575  0.00  0.00    +0.000 C 
BRANCH  24  25
ATOM     25  C   UNL     1      -0.824  11.305  19.775  0.00  0.00    +0.000 A 
ATOM     26  C   UNL     1      -1.873  12.133  20.203  0.00  0.00    +0.000 A 
ATOM     27  C   UNL     1      -3.065  12.216  19.481  0.00  0.00    +0.000 A 
ATOM     28  C   UNL     1      -3.232  11.465  18.319  0.00  0.00    +0.000 A 
ATOM     29  C   UNL     1      -2.205  10.633  17.884  0.00  0.00    +0.000 A 
ATOM     30 CL   UNL     1      -2.414   9.702  16.450  0.00  0.00    +0.000 Cl
ATOM     31  C   UNL     1      -1.009  10.547  18.601  0.00  0.00    +0.000 A 
ENDBRANCH  24  25
BRANCH  24  32
ATOM     32  C   UNL     1       1.691  11.681  19.740  0.00  0.00    +0.000 C 
ATOM     33  F   UNL     1       1.336  12.667  18.863  0.00  0.00    +0.000 F 
ENDBRANCH  24  32
ENDBRANCH   8  24
TORSDOF 5
ENDMDL
MODEL 7
REMARK VINA RESULT:      -7.9      1.881      2.472
REMARK  Name = 
REMARK  8 active torsions:
REMARK  status: ('A' for Active; 'I' for Inactive)
REMARK    1  A    between atoms: C_1  and  O_2
REMARK    2  A    between atoms: O_2  and  C_3
REMARK    3  A    between atoms: C_5  and  C_6
REMARK    4  A    between atoms: C_10  and  C_11
REMARK    5  A    between atoms: C_14  and  C_15
REMARK    6  A    between atoms: N_20  and  C_21
REMARK    7  A    between atoms: C_21  and  C_22
REMARK    8  A    between atoms: C_21  and  C_24
REMARK                            x       y       z     vdW  Elec       q    Type
REMARK                         _______ _______ _______ _____ _____    ______ ____
ROOT
ATOM      1  C   UNL     1       2.343   5.719  20.414  0.00  0.00    +0.000 A 
ATOM      2  C   UNL     1       3.187   5.186  19.439  0.00  0.00    +0.000 A 
ATOM      3  C   UNL     1       3.307   5.739  18.154  0.00  0.00    +0.000 A 
ATOM      4  C   UNL     1       2.738   7.003  17.879  0.00  0.00    +0.000 A 
ATOM      5  C   UNL     1       2.015   7.636  18.905  0.00  0.00    +0.000 A 
ATOM      6  N   UNL     1       1.416   8.880  18.981  0.00  0.00    +0.000 NA
ATOM      7  C   UNL     1       0.960   8.934  20.218  0.00  0.00    +0.000 A 
ATOM      8  N   UNL     1       0.406   9.929  20.908  0.00  0.00    +0.000 N 
ATOM      9  O   UNL     1       1.109   7.782  20.929  0.00  0.00    +0.000 OA
ATOM     10  C   UNL     1       1.825   6.969  20.103  0.00  0.00    +0.000 A 
ATOM     11  H   UNL     1       0.082   9.750  21.854  0.00  0.00    +0.000 HD
ENDROOT
BRANCH   3  12
ATOM     12  C   UNL     1       4.091   5.019  17.095  0.00  0.00    +0.000 C 
ATOM     13  O   UNL     1       3.648   3.935  16.730  0.00  0.00    +0.000 OA
ATOM     14  N   UNL     1       5.271   5.593  16.576  0.00  0.00    +0.000 N 
ATOM     15  C   UNL     1       5.935   6.761  17.168  0.00  0.00    +0.000 C 
ATOM     16  C   UNL     1       7.458   6.665  17.165  0.00  0.00    +0.000 C 
ATOM     17  C   UNL     1       8.035   7.979  17.679  0.00  0.00    +0.000 C 
ATOM     18  O   UNL     1       7.934   6.429  15.834  0.00  0.00    +0.000 OA
ATOM     19  C   UNL     1       7.387   5.202  15.319  0.00  0.00    +0.000 C 
ATOM     20  C   UNL     1       5.837   5.240  15.249  0.00  0.00    +0.000 C 
ATOM     21  C   UNL     1       5.333   3.981  14.553  0.00  0.00    +0.000 C 
ENDBRANCH   3  12
BRANCH   1  23
ATOM     22  C   UNL     1       2.055   3.709  21.634  0.00  0.00    +0.000 C 
ATOM     23  O   UNL     1       2.018   5.130  21.600  0.00  0.00    +0.000 OA
ENDBRANCH   1  23
BRANCH   8  24
ATOM     24  C   UNL     1      -0.099  11.130  20.273  0.00  0.00    +0.000 C 
BRANCH  24  25
ATOM     25  C   UNL     1       1.042  12.105  20.001  0.00  0.00    +0.000 A 
ATOM     26  C   UNL     1       1.537  12.254  18.697  0.00  0.00    +0.000 A 
ATOM     27  C   UNL     1       2.571  13.150  18.417  0.00  0.00    +0.000 A 
ATOM     28  C   UNL     1       3.133  13.910  19.440  0.00  0.00    +0.000 A 
ATOM     29  C   UNL     1       2.660  13.768  20.741  0.00  0.00    +0.000 A 
ATOM     30 CL   UNL     1       3.359  14.705  22.007  0.00  0.00    +0.000 Cl
ATOM     31  C   UNL     1       1.625  12.875  21.028  0.00  0.00    +0.000 A 
ENDBRANCH  24  25
BRANCH  24  32
ATOM     32  C   UNL     1      -1.199  11.754  21.150  0.00  0.00    +0.000 C 
ATOM     33  F   UNL     1      -1.979  12.593  20.404  0.00  0.00    +0.000 F 
ENDBRANCH  24  32
ENDBRANCH   8  24
TORSDOF 5
ENDMDL
MODEL 8
REMARK VINA RESULT:      -7.9      3.370      4.018
REMARK  Name = 
REMARK  8 active torsions:
REMARK  status: ('A' for Active; 'I' for Inactive)
REMARK    1  A    between atoms: C_1  and  O_2
REMARK    2  A    between atoms: O_2  and  C_3
REMARK    3  A    between atoms: C_5  and  C_6
REMARK    4  A    between atoms: C_10  and  C_11
REMARK    5  A    between atoms: C_14  and  C_15
REMARK    6  A    between atoms: N_20  and  C_21
REMARK    7  A    between atoms: C_21  and  C_22
REMARK    8  A    between atoms: C_21  and  C_24
REMARK                            x       y       z     vdW  Elec       q    Type
REMARK                         _______ _______ _______ _____ _____    ______ ____
ROOT
ATOM      1  C   UNL     1       1.618   7.958  20.293  0.00  0.00    +0.000 A 
ATOM      2  C   UNL     1       2.396   6.982  19.671  0.00  0.00    +0.000 A 
ATOM      3  C   UNL     1       2.850   7.103  18.347  0.00  0.00    +0.000 A 
ATOM      4  C   UNL     1       2.718   8.336  17.671  0.00  0.00    +0.000 A 
ATOM      5  C   UNL     1       2.076   9.390  18.344  0.00  0.00    +0.000 A 
ATOM      6  N   UNL     1       1.862  10.712  17.999  0.00  0.00    +0.000 NA
ATOM      7  C   UNL     1       1.274  11.223  19.064  0.00  0.00    +0.000 A 
ATOM      8  N   UNL     1       0.945  12.477  19.369  0.00  0.00    +0.000 N 
ATOM      9  O   UNL     1       0.980  10.320  20.040  0.00  0.00    +0.000 OA
ATOM     10  C   UNL     1       1.535   9.157  19.596  0.00  0.00    +0.000 A 
ATOM     11  H   UNL     1       0.454  12.657  20.241  0.00  0.00    +0.000 HD
ENDROOT
BRANCH   3  12
ATOM     12  C   UNL     1       3.528   5.944  17.677  0.00  0.00    +0.000 C 
ATOM     13  O   UNL     1       2.905   4.888  17.647  0.00  0.00    +0.000 OA
ATOM     14  N   UNL     1       4.818   6.103  17.124  0.00  0.00    +0.000 N 
ATOM     15  C   UNL     1       5.664   7.279  17.361  0.00  0.00    +0.000 C 
ATOM     16  C   UNL     1       7.140   6.941  17.551  0.00  0.00    +0.000 C 
ATOM     17  C   UNL     1       7.932   8.239  17.658  0.00  0.00    +0.000 C 
ATOM     18  O   UNL     1       7.620   6.186  16.432  0.00  0.00    +0.000 OA
ATOM     19  C   UNL     1       6.874   4.963  16.299  0.00  0.00    +0.000 C 
ATOM     20  C   UNL     1       5.364   5.226  16.057  0.00  0.00    +0.000 C 
ATOM     21  C   UNL     1       4.661   3.904  15.769  0.00  0.00    +0.000 C 
ENDBRANCH   3  12
BRANCH   1  23
ATOM     22  C   UNL     1       1.166   8.874  22.431  0.00  0.00    +0.000 C 
ATOM     23  O   UNL     1       0.973   7.827  21.488  0.00  0.00    +0.000 OA
ENDBRANCH   1  23
BRANCH   8  24
ATOM     24  C   UNL     1       0.905  13.535  18.380  0.00  0.00    +0.000 C 
BRANCH  24  25
ATOM     25  C   UNL     1       2.108  14.458  18.544  0.00  0.00    +0.000 A 
ATOM     26  C   UNL     1       1.947  15.715  19.145  0.00  0.00    +0.000 A 
ATOM     27  C   UNL     1       3.034  16.574  19.321  0.00  0.00    +0.000 A 
ATOM     28  C   UNL     1       4.303  16.191  18.893  0.00  0.00    +0.000 A 
ATOM     29  C   UNL     1       4.480  14.950  18.288  0.00  0.00    +0.000 A 
ATOM     30 CL   UNL     1       6.049  14.479  17.756  0.00  0.00    +0.000 Cl
ATOM     31  C   UNL     1       3.397  14.086  18.110  0.00  0.00    +0.000 A 
ENDBRANCH  24  25
BRANCH  24  32
ATOM     32  C   UNL     1      -0.429  14.294  18.488  0.00  0.00    +0.000 C 
ATOM     33  F   UNL     1      -1.019  14.043  19.695  0.00  0.00    +0.000 F 
ENDBRANCH  24  32
ENDBRANCH   8  24
TORSDOF 5
ENDMDL
MODEL 9
REMARK VINA RESULT:      -7.8      3.090      3.759
REMARK  Name = 
REMARK  8 active torsions:
REMARK  status: ('A' for Active; 'I' for Inactive)
REMARK    1  A    between atoms: C_1  and  O_2
REMARK    2  A    between atoms: O_2  and  C_3
REMARK    3  A    between atoms: C_5  and  C_6
REMARK    4  A    between atoms: C_10  and  C_11
REMARK    5  A    between atoms: C_14  and  C_15
REMARK    6  A    between atoms: N_20  and  C_21
REMARK    7  A    between atoms: C_21  and  C_22
REMARK    8  A    between atoms: C_21  and  C_24
REMARK                            x       y       z     vdW  Elec       q    Type
REMARK                         _______ _______ _______ _____ _____    ______ ____
ROOT
ATOM      1  C   UNL     1       1.631   7.907  20.361  0.00  0.00    +0.000 A 
ATOM      2  C   UNL     1       2.404   6.937  19.723  0.00  0.00    +0.000 A 
ATOM      3  C   UNL     1       2.833   7.062  18.392  0.00  0.00    +0.000 A 
ATOM      4  C   UNL     1       2.682   8.296  17.720  0.00  0.00    +0.000 A 
ATOM      5  C   UNL     1       2.047   9.346  18.407  0.00  0.00    +0.000 A 
ATOM      6  N   UNL     1       1.819  10.667  18.069  0.00  0.00    +0.000 NA
ATOM      7  C   UNL     1       1.248  11.173  19.145  0.00  0.00    +0.000 A 
ATOM      8  N   UNL     1       0.917  12.424  19.459  0.00  0.00    +0.000 N 
ATOM      9  O   UNL     1       0.976  10.266  20.124  0.00  0.00    +0.000 OA
ATOM     10  C   UNL     1       1.529   9.107  19.668  0.00  0.00    +0.000 A 
ATOM     11  H   UNL     1       0.441  12.600  20.339  0.00  0.00    +0.000 HD
ENDROOT
BRANCH   3  12
ATOM     12  C   UNL     1       3.505   5.908  17.707  0.00  0.00    +0.000 C 
ATOM     13  O   UNL     1       2.882   4.852  17.676  0.00  0.00    +0.000 OA
ATOM     14  N   UNL     1       4.789   6.073  17.141  0.00  0.00    +0.000 N 
ATOM     15  C   UNL     1       5.636   7.248  17.377  0.00  0.00    +0.000 C 
ATOM     16  C   UNL     1       7.115   6.910  17.549  0.00  0.00    +0.000 C 
ATOM     17  C   UNL     1       7.906   8.208  17.656  0.00  0.00    +0.000 C 
ATOM     18  O   UNL     1       7.584   6.163  16.421  0.00  0.00    +0.000 OA
ATOM     19  C   UNL     1       6.837   4.940  16.287  0.00  0.00    +0.000 C 
ATOM     20  C   UNL     1       5.324   5.203  16.063  0.00  0.00    +0.000 C 
ATOM     21  C   UNL     1       4.620   3.882  15.774  0.00  0.00    +0.000 C 
ENDBRANCH   3  12
BRANCH   1  23
ATOM     22  C   UNL     1      -0.346   8.201  21.634  0.00  0.00    +0.000 C 
ATOM     23  O   UNL     1       1.008   7.770  21.567  0.00  0.00    +0.000 OA
ENDBRANCH   1  23
BRANCH   8  24
ATOM     24  C   UNL     1       0.854  13.484  18.472  0.00  0.00    +0.000 C 
BRANCH  24  25
ATOM     25  C   UNL     1       2.041  14.429  18.635  0.00  0.00    +0.000 A 
ATOM     26  C   UNL     1       3.269  14.117  18.033  0.00  0.00    +0.000 A 
ATOM     27  C   UNL     1       4.367  14.971  18.153  0.00  0.00    +0.000 A 
ATOM     28  C   UNL     1       4.257  16.152  18.884  0.00  0.00    +0.000 A 
ATOM     29  C   UNL     1       3.048  16.473  19.494  0.00  0.00    +0.000 A 
ATOM     30 CL   UNL     1       2.913  17.931  20.400  0.00  0.00    +0.000 Cl
ATOM     31  C   UNL     1       1.945  15.624  19.377  0.00  0.00    +0.000 A 
ENDBRANCH  24  25
BRANCH  24  32
ATOM     32  C   UNL     1      -0.493  14.218  18.588  0.00  0.00    +0.000 C 
ATOM     33  F   UNL     1      -1.068  13.963  19.801  0.00  0.00    +0.000 F 
ENDBRANCH  24  32
ENDBRANCH   8  24
TORSDOF 5
ENDMDL
