MODEL 1
REMARK VINA RESULT:      -7.9      0.000      0.000
REMARK  Name = 
REMARK  11 active torsions:
REMARK  status: ('A' for Active; 'I' for Inactive)
REMARK    1  A    between atoms: C_2  and  C_3
REMARK    2  A    between atoms: C_3  and  C_4
REMARK    3  A    between atoms: C_4  and  C_5
REMARK    4  A    between atoms: C_5  and  C_6
REMARK    5  A    between atoms: C_6  and  C_7
REMARK    6  A    between atoms: C_7  and  N_8
REMARK    7  A    between atoms: N_23  and  CA_24
REMARK    8  A    between atoms: CA_24  and  CB_25
REMARK    9  A    between atoms: CA_24  and  C_32
REMARK   10  A    between atoms: CB_25  and  CG_26
REMARK   11  A    between atoms: C_32  and  OXT_34
REMARK                            x       y       z     vdW  Elec       q    Type
REMARK                         _______ _______ _______ _____ _____    ______ ____
ROOT
ATOM      1  C   UNK A   0       2.014   2.972  20.376  0.00  0.00    +0.000 C 
ENDROOT
BRANCH   1   2
ATOM      2  C   UNK A   0       2.261   2.534  18.932  0.00  0.00    +0.000 C 
BRANCH   2   3
ATOM      3  C   UNK A   0       3.743   2.357  18.594  0.00  0.00    +0.000 C 
BRANCH   3   5
ATOM      4  O   UNK A   0       3.303   3.941  16.850  0.00  0.00    +0.000 OA
ATOM      5  C   UNK A   0       4.129   3.385  17.559  0.00  0.00    +0.000 C 
ATOM      6  N   PHE A   1       5.464   3.746  17.591  0.00  0.00    +0.000 N 
ATOM      7  H   PHE A   1       6.138   3.073  17.959  0.00  0.00    +0.000 HD
BRANCH   6   8
ATOM      8  CA  PHE A   1       5.955   4.818  16.697  0.00  0.00    +0.000 C 
BRANCH   8   9
ATOM      9  C   PHE A   1       6.584   5.935  17.544  0.00  0.00    +0.000 C 
ATOM     10  O   PHE A   1       7.749   5.942  17.922  0.00  0.00    +0.000 OA
BRANCH   9  11
ATOM     11  OXT PHE A   1       5.707   6.909  17.893  0.00  0.00    +0.000 OA
ATOM     12  HXT PHE A   1       5.010   6.955  17.206  0.00  0.00    +0.000 HD
ENDBRANCH   9  11
ENDBRANCH   8   9
BRANCH   8  13
ATOM     13  CB  PHE A   1       7.001   4.326  15.683  0.00  0.00    +0.000 C 
BRANCH  13  14
ATOM     14  CG  PHE A   1       6.505   4.080  14.273  0.00  0.00    +0.000 A 
ATOM     15  CD1 PHE A   1       5.157   3.833  13.979  0.00  0.00    +0.000 A 
ATOM     16  CE1 PHE A   1       4.753   3.559  12.670  0.00  0.00    +0.000 A 
ATOM     17  CZ  PHE A   1       5.683   3.562  11.636  0.00  0.00    +0.000 A 
ATOM     18  CE2 PHE A   1       7.014   3.867  11.902  0.00  0.00    +0.000 A 
ATOM     19  CD2 PHE A   1       7.422   4.131  13.211  0.00  0.00    +0.000 A 
ENDBRANCH  13  14
ENDBRANCH   8  13
ENDBRANCH   6   8
ENDBRANCH   3   5
ENDBRANCH   2   3
ENDBRANCH   1   2
BRANCH   1  20
ATOM     20  C   UNK A   0       1.526   4.417  20.518  0.00  0.00    +0.000 C 
BRANCH  20  21
ATOM     21  C   UNK A   0       2.623   5.428  20.188  0.00  0.00    +0.000 C 
BRANCH  21  22
ATOM     22  N   UNK A   0       2.109   6.762  20.045  0.00  0.00    +0.000 N 
ATOM     23  C   UNK A   0       2.329   7.548  18.944  0.00  0.00    +0.000 C 
ATOM     24  O   UNK A   0       3.020   7.175  17.996  0.00  0.00    +0.000 OA
ATOM     25  N   UNK A   0       1.743   8.787  18.986  0.00  0.00    +0.000 N 
ATOM     26  C   UNK A   0       1.843   9.822  17.945  0.00  0.00    +0.000 C 
ATOM     27  C   UNK A   0       1.260  11.093  18.607  0.00  0.00    +0.000 C 
ATOM     28  N   UNK A   0       0.681  10.561  19.827  0.00  0.00    +0.000 N 
ATOM     29  C   UNK A   0       0.986   9.253  20.021  0.00  0.00    +0.000 A 
ATOM     30  N   UNK A   0       0.512   8.781  21.139  0.00  0.00    +0.000 NA
ATOM     31  C   UNK A   0      -0.119   9.878  21.702  0.00  0.00    +0.000 A 
ATOM     32  C   UNK A   0      -0.809   9.966  22.920  0.00  0.00    +0.000 A 
ATOM     33  C   UNK A   0      -1.331  11.206  23.306  0.00  0.00    +0.000 A 
ATOM     34  C   UNK A   0      -1.170  12.336  22.499  0.00  0.00    +0.000 A 
ATOM     35  C   UNK A   0      -0.501  12.272  21.270  0.00  0.00    +0.000 A 
ATOM     36  C   UNK A   0       0.003  11.024  20.900  0.00  0.00    +0.000 A 
ATOM     37  H   UNK A   0       1.432   7.105  20.725  0.00  0.00    +0.000 HD
ENDBRANCH  21  22
ENDBRANCH  20  21
ENDBRANCH   1  20
TORSDOF 11
ENDMDL
MODEL 2
REMARK VINA RESULT:      -7.7      3.331      5.663
REMARK  Name = 
REMARK  11 active torsions:
REMARK  status: ('A' for Active; 'I' for Inactive)
REMARK    1  A    between atoms: C_2  and  C_3
REMARK    2  A    between atoms: C_3  and  C_4
REMARK    3  A    between atoms: C_4  and  C_5
REMARK    4  A    between atoms: C_5  and  C_6
REMARK    5  A    between atoms: C_6  and  C_7
REMARK    6  A    between atoms: C_7  and  N_8
REMARK    7  A    between atoms: N_23  and  CA_24
REMARK    8  A    between atoms: CA_24  and  CB_25
REMARK    9  A    between atoms: CA_24  and  C_32
REMARK   10  A    between atoms: CB_25  and  CG_26
REMARK   11  A    between atoms: C_32  and  OXT_34
REMARK                            x       y       z     vdW  Elec       q    Type
REMARK                         _______ _______ _______ _____ _____    ______ ____
ROOT
ATOM      1  C   UNK A   0       2.084   9.219  17.827  0.00  0.00    +0.000 C 
ENDROOT
BRANCH   1   2
ATOM      2  C   UNK A   0       2.232   7.739  18.185  0.00  0.00    +0.000 C 
BRANCH   2   3
ATOM      3  C   UNK A   0       2.146   7.464  19.687  0.00  0.00    +0.000 C 
BRANCH   3   5
ATOM      4  O   UNK A   0       1.712   5.397  20.818  0.00  0.00    +0.000 OA
ATOM      5  C   UNK A   0       2.295   5.981  19.917  0.00  0.00    +0.000 C 
ATOM      6  N   PHE A   1       3.019   5.326  18.936  0.00  0.00    +0.000 N 
ATOM      7  H   PHE A   1       3.709   5.860  18.407  0.00  0.00    +0.000 HD
BRANCH   6   8
ATOM      8  CA  PHE A   1       3.154   3.853  18.985  0.00  0.00    +0.000 C 
BRANCH   8   9
ATOM      9  C   PHE A   1       2.189   3.222  17.970  0.00  0.00    +0.000 C 
ATOM     10  O   PHE A   1       1.355   3.848  17.327  0.00  0.00    +0.000 OA
BRANCH   9  11
ATOM     11  OXT PHE A   1       2.302   1.873  17.883  0.00  0.00    +0.000 OA
ATOM     12  HXT PHE A   1       2.570   1.647  16.968  0.00  0.00    +0.000 HD
ENDBRANCH   9  11
ENDBRANCH   8   9
BRANCH   8  13
ATOM     13  CB  PHE A   1       4.579   3.368  18.670  0.00  0.00    +0.000 C 
BRANCH  13  14
ATOM     14  CG  PHE A   1       5.543   4.413  18.146  0.00  0.00    +0.000 A 
ATOM     15  CD1 PHE A   1       6.377   5.162  18.987  0.00  0.00    +0.000 A 
ATOM     16  CE1 PHE A   1       7.212   6.151  18.464  0.00  0.00    +0.000 A 
ATOM     17  CZ  PHE A   1       7.250   6.382  17.092  0.00  0.00    +0.000 A 
ATOM     18  CE2 PHE A   1       6.475   5.603  16.238  0.00  0.00    +0.000 A 
ATOM     19  CD2 PHE A   1       5.632   4.621  16.760  0.00  0.00    +0.000 A 
ENDBRANCH  13  14
ENDBRANCH   8  13
ENDBRANCH   6   8
ENDBRANCH   3   5
ENDBRANCH   2   3
ENDBRANCH   1   2
BRANCH   1  20
ATOM     20  C   UNK A   0       0.734   9.826  18.222  0.00  0.00    +0.000 C 
BRANCH  20  21
ATOM     21  C   UNK A   0       0.884  10.918  19.280  0.00  0.00    +0.000 C 
BRANCH  21  22
ATOM     22  N   UNK A   0      -0.385  11.433  19.714  0.00  0.00    +0.000 N 
ATOM     23  C   UNK A   0      -0.577  12.069  20.914  0.00  0.00    +0.000 C 
ATOM     24  O   UNK A   0       0.331  12.220  21.733  0.00  0.00    +0.000 OA
ATOM     25  N   UNK A   0      -1.856  12.503  21.144  0.00  0.00    +0.000 N 
ATOM     26  C   UNK A   0      -2.327  13.192  22.356  0.00  0.00    +0.000 C 
ATOM     27  C   UNK A   0      -3.868  13.195  22.226  0.00  0.00    +0.000 C 
ATOM     28  N   UNK A   0      -4.058  12.744  20.859  0.00  0.00    +0.000 N 
ATOM     29  C   UNK A   0      -2.899  12.343  20.278  0.00  0.00    +0.000 A 
ATOM     30  N   UNK A   0      -3.067  11.889  19.069  0.00  0.00    +0.000 NA
ATOM     31  C   UNK A   0      -4.436  11.989  18.883  0.00  0.00    +0.000 A 
ATOM     32  C   UNK A   0      -5.198  11.640  17.757  0.00  0.00    +0.000 A 
ATOM     33  C   UNK A   0      -6.588  11.789  17.817  0.00  0.00    +0.000 A 
ATOM     34  C   UNK A   0      -7.210  12.275  18.972  0.00  0.00    +0.000 A 
ATOM     35  C   UNK A   0      -6.471  12.648  20.102  0.00  0.00    +0.000 A 
ATOM     36  C   UNK A   0      -5.086  12.500  20.017  0.00  0.00    +0.000 A 
ATOM     37  H   UNK A   0      -1.159  11.459  19.053  0.00  0.00    +0.000 HD
ENDBRANCH  21  22
ENDBRANCH  20  21
ENDBRANCH   1  20
TORSDOF 11
ENDMDL
MODEL 3
REMARK VINA RESULT:      -7.7      0.926      1.253
REMARK  Name = 
REMARK  11 active torsions:
REMARK  status: ('A' for Active; 'I' for Inactive)
REMARK    1  A    between atoms: C_2  and  C_3
REMARK    2  A    between atoms: C_3  and  C_4
REMARK    3  A    between atoms: C_4  and  C_5
REMARK    4  A    between atoms: C_5  and  C_6
REMARK    5  A    between atoms: C_6  and  C_7
REMARK    6  A    between atoms: C_7  and  N_8
REMARK    7  A    between atoms: N_23  and  CA_24
REMARK    8  A    between atoms: CA_24  and  CB_25
REMARK    9  A    between atoms: CA_24  and  C_32
REMARK   10  A    between atoms: CB_25  and  CG_26
REMARK   11  A    between atoms: C_32  and  OXT_34
REMARK                            x       y       z     vdW  Elec       q    Type
REMARK                         _______ _______ _______ _____ _____    ______ ____
ROOT
ATOM      1  C   UNK A   0       1.208   4.065  19.423  0.00  0.00    +0.000 C 
ENDROOT
BRANCH   1   2
ATOM      2  C   UNK A   0       1.713   3.010  18.438  0.00  0.00    +0.000 C 
BRANCH   2   3
ATOM      3  C   UNK A   0       2.271   3.604  17.143  0.00  0.00    +0.000 C 
BRANCH   3   5
ATOM      4  O   UNK A   0       4.455   2.774  17.675  0.00  0.00    +0.000 OA
ATOM      5  C   UNK A   0       3.772   3.699  17.261  0.00  0.00    +0.000 C 
ATOM      6  N   PHE A   1       4.310   4.854  16.724  0.00  0.00    +0.000 N 
ATOM      7  H   PHE A   1       3.721   5.686  16.678  0.00  0.00    +0.000 HD
BRANCH   6   8
ATOM      8  CA  PHE A   1       5.779   5.028  16.682  0.00  0.00    +0.000 C 
BRANCH   8   9
ATOM      9  C   PHE A   1       6.327   5.053  18.117  0.00  0.00    +0.000 C 
ATOM     10  O   PHE A   1       7.112   4.230  18.572  0.00  0.00    +0.000 OA
BRANCH   9  11
ATOM     11  OXT PHE A   1       5.815   6.056  18.874  0.00  0.00    +0.000 OA
ATOM     12  HXT PHE A   1       5.054   6.444  18.395  0.00  0.00    +0.000 HD
ENDBRANCH   9  11
ENDBRANCH   8   9
BRANCH   8  13
ATOM     13  CB  PHE A   1       6.497   3.911  15.905  0.00  0.00    +0.000 C 
BRANCH  13  14
ATOM     14  CG  PHE A   1       6.775   4.184  14.441  0.00  0.00    +0.000 A 
ATOM     15  CD1 PHE A   1       7.706   5.141  14.014  0.00  0.00    +0.000 A 
ATOM     16  CE1 PHE A   1       7.891   5.395  12.653  0.00  0.00    +0.000 A 
ATOM     17  CZ  PHE A   1       7.175   4.675  11.703  0.00  0.00    +0.000 A 
ATOM     18  CE2 PHE A   1       6.293   3.678  12.109  0.00  0.00    +0.000 A 
ATOM     19  CD2 PHE A   1       6.099   3.429  13.469  0.00  0.00    +0.000 A 
ENDBRANCH  13  14
ENDBRANCH   8  13
ENDBRANCH   6   8
ENDBRANCH   3   5
ENDBRANCH   2   3
ENDBRANCH   1   2
BRANCH   1  20
ATOM     20  C   UNK A   0       2.136   4.300  20.619  0.00  0.00    +0.000 C 
BRANCH  20  21
ATOM     21  C   UNK A   0       3.120   5.441  20.367  0.00  0.00    +0.000 C 
BRANCH  21  22
ATOM     22  N   UNK A   0       2.457   6.699  20.166  0.00  0.00    +0.000 N 
ATOM     23  C   UNK A   0       2.551   7.432  19.011  0.00  0.00    +0.000 C 
ATOM     24  O   UNK A   0       3.246   7.076  18.060  0.00  0.00    +0.000 OA
ATOM     25  N   UNK A   0       1.833   8.599  19.003  0.00  0.00    +0.000 N 
ATOM     26  C   UNK A   0       1.782   9.571  17.899  0.00  0.00    +0.000 C 
ATOM     27  C   UNK A   0       1.084  10.810  18.506  0.00  0.00    +0.000 C 
ATOM     28  N   UNK A   0       0.609  10.298  19.779  0.00  0.00    +0.000 N 
ATOM     29  C   UNK A   0       1.065   9.046  20.038  0.00  0.00    +0.000 A 
ATOM     30  N   UNK A   0       0.684   8.598  21.201  0.00  0.00    +0.000 NA
ATOM     31  C   UNK A   0      -0.045   9.654  21.722  0.00  0.00    +0.000 A 
ATOM     32  C   UNK A   0      -0.699   9.744  22.960  0.00  0.00    +0.000 A 
ATOM     33  C   UNK A   0      -1.342  10.942  23.293  0.00  0.00    +0.000 A 
ATOM     34  C   UNK A   0      -1.335  12.029  22.414  0.00  0.00    +0.000 A 
ATOM     35  C   UNK A   0      -0.705  11.959  21.164  0.00  0.00    +0.000 A 
ATOM     36  C   UNK A   0      -0.079  10.753  20.849  0.00  0.00    +0.000 A 
ATOM     37  H   UNK A   0       1.769   7.009  20.851  0.00  0.00    +0.000 HD
ENDBRANCH  21  22
ENDBRANCH  20  21
ENDBRANCH   1  20
TORSDOF 11
ENDMDL
MODEL 4
REMARK VINA RESULT:      -7.6      1.149      1.370
REMARK  Name = 
REMARK  11 active torsions:
REMARK  status: ('A' for Active; 'I' for Inactive)
REMARK    1  A    between atoms: C_2  and  C_3
REMARK    2  A    between atoms: C_3  and  C_4
REMARK    3  A    between atoms: C_4  and  C_5
REMARK    4  A    between atoms: C_5  and  C_6
REMARK    5  A    between atoms: C_6  and  C_7
REMARK    6  A    between atoms: C_7  and  N_8
REMARK    7  A    between atoms: N_23  and  CA_24
REMARK    8  A    between atoms: CA_24  and  CB_25
REMARK    9  A    between atoms: CA_24  and  C_32
REMARK   10  A    between atoms: CB_25  and  CG_26
REMARK   11  A    between atoms: C_32  and  OXT_34
REMARK                            x       y       z     vdW  Elec       q    Type
REMARK                         _______ _______ _______ _____ _____    ______ ____
ROOT
ATOM      1  C   UNK A   0       1.642   2.222  19.252  0.00  0.00    +0.000 C 
ENDROOT
BRANCH   1   2
ATOM      2  C   UNK A   0       2.644   2.339  18.103  0.00  0.00    +0.000 C 
BRANCH   2   3
ATOM      3  C   UNK A   0       4.092   2.090  18.530  0.00  0.00    +0.000 C 
BRANCH   3   5
ATOM      4  O   UNK A   0       4.904   3.890  19.889  0.00  0.00    +0.000 OA
ATOM      5  C   UNK A   0       4.761   3.421  18.769  0.00  0.00    +0.000 C 
ATOM      6  N   PHE A   1       5.327   3.981  17.637  0.00  0.00    +0.000 N 
ATOM      7  H   PHE A   1       4.937   3.731  16.728  0.00  0.00    +0.000 HD
BRANCH   6   8
ATOM      8  CA  PHE A   1       6.103   5.236  17.751  0.00  0.00    +0.000 C 
BRANCH   8   9
ATOM      9  C   PHE A   1       7.561   4.900  18.095  0.00  0.00    +0.000 C 
ATOM     10  O   PHE A   1       8.208   4.005  17.565  0.00  0.00    +0.000 OA
BRANCH   9  11
ATOM     11  OXT PHE A   1       8.070   5.661  19.096  0.00  0.00    +0.000 OA
ATOM     12  HXT PHE A   1       7.399   6.331  19.343  0.00  0.00    +0.000 HD
ENDBRANCH   9  11
ENDBRANCH   8   9
BRANCH   8  13
ATOM     13  CB  PHE A   1       6.086   6.074  16.460  0.00  0.00    +0.000 C 
BRANCH  13  14
ATOM     14  CG  PHE A   1       6.166   5.302  15.159  0.00  0.00    +0.000 A 
ATOM     15  CD1 PHE A   1       5.090   4.563  14.651  0.00  0.00    +0.000 A 
ATOM     16  CE1 PHE A   1       5.227   3.825  13.473  0.00  0.00    +0.000 A 
ATOM     17  CZ  PHE A   1       6.428   3.843  12.771  0.00  0.00    +0.000 A 
ATOM     18  CE2 PHE A   1       7.486   4.622  13.229  0.00  0.00    +0.000 A 
ATOM     19  CD2 PHE A   1       7.354   5.353  14.412  0.00  0.00    +0.000 A 
ENDBRANCH  13  14
ENDBRANCH   8  13
ENDBRANCH   6   8
ENDBRANCH   3   5
ENDBRANCH   2   3
ENDBRANCH   1   2
BRANCH   1  20
ATOM     20  C   UNK A   0       0.996   3.550  19.657  0.00  0.00    +0.000 C 
BRANCH  20  21
ATOM     21  C   UNK A   0       1.961   4.445  20.433  0.00  0.00    +0.000 C 
BRANCH  21  22
ATOM     22  N   UNK A   0       1.719   5.842  20.196  0.00  0.00    +0.000 N 
ATOM     23  C   UNK A   0       2.122   6.502  19.064  0.00  0.00    +0.000 C 
ATOM     24  O   UNK A   0       2.757   5.946  18.168  0.00  0.00    +0.000 OA
ATOM     25  N   UNK A   0       1.786   7.829  19.014  0.00  0.00    +0.000 N 
ATOM     26  C   UNK A   0       2.117   8.761  17.924  0.00  0.00    +0.000 C 
ATOM     27  C   UNK A   0       1.770  10.158  18.490  0.00  0.00    +0.000 C 
ATOM     28  N   UNK A   0       1.061   9.823  19.711  0.00  0.00    +0.000 N 
ATOM     29  C   UNK A   0       1.101   8.495  19.989  0.00  0.00    +0.000 A 
ATOM     30  N   UNK A   0       0.510   8.192  21.110  0.00  0.00    +0.000 NA
ATOM     31  C   UNK A   0       0.086   9.422  21.585  0.00  0.00    +0.000 A 
ATOM     32  C   UNK A   0      -0.612   9.715  22.766  0.00  0.00    +0.000 A 
ATOM     33  C   UNK A   0      -0.896  11.053  23.062  0.00  0.00    +0.000 A 
ATOM     34  C   UNK A   0      -0.495  12.079  22.203  0.00  0.00    +0.000 A 
ATOM     35  C   UNK A   0       0.187  11.813  21.008  0.00  0.00    +0.000 A 
ATOM     36  C   UNK A   0       0.452  10.472  20.728  0.00  0.00    +0.000 A 
ATOM     37  H   UNK A   0       1.100   6.348  20.827  0.00  0.00    +0.000 HD
ENDBRANCH  21  22
ENDBRANCH  20  21
ENDBRANCH   1  20
TORSDOF 11
ENDMDL
MODEL 5
REMARK VINA RESULT:      -7.5      5.915      7.369
REMARK  Name = 
REMARK  11 active torsions:
REMARK  status: ('A' for Active; 'I' for Inactive)
REMARK    1  A    between atoms: C_2  and  C_3
REMARK    2  A    between atoms: C_3  and  C_4
REMARK    3  A    between atoms: C_4  and  C_5
REMARK    4  A    between atoms: C_5  and  C_6
REMARK    5  A    between atoms: C_6  and  C_7
REMARK    6  A    between atoms: C_7  and  N_8
REMARK    7  A    between atoms: N_23  and  CA_24
REMARK    8  A    between atoms: CA_24  and  CB_25
REMARK    9  A    between atoms: CA_24  and  C_32
REMARK   10  A    between atoms: CB_25  and  CG_26
REMARK   11  A    between atoms: C_32  and  OXT_34
REMARK                            x       y       z     vdW  Elec       q    Type
REMARK                         _______ _______ _______ _____ _____    ______ ____
ROOT
ATOM      1  C   UNK A   0       8.330   9.345  17.663  0.00  0.00    +0.000 C 
ENDROOT
BRANCH   1   2
ATOM      2  C   UNK A   0       7.562   8.024  17.586  0.00  0.00    +0.000 C 
BRANCH   2   3
ATOM      3  C   UNK A   0       8.055   6.975  18.583  0.00  0.00    +0.000 C 
BRANCH   3   5
ATOM      4  O   UNK A   0       8.176   4.587  18.414  0.00  0.00    +0.000 OA
ATOM      5  C   UNK A   0       7.581   5.616  18.130  0.00  0.00    +0.000 C 
ATOM      6  N   PHE A   1       6.348   5.627  17.504  0.00  0.00    +0.000 N 
ATOM      7  H   PHE A   1       6.051   6.484  17.035  0.00  0.00    +0.000 HD
BRANCH   6   8
ATOM      8  CA  PHE A   1       5.719   4.350  17.100  0.00  0.00    +0.000 C 
BRANCH   8   9
ATOM      9  C   PHE A   1       4.794   3.863  18.225  0.00  0.00    +0.000 C 
ATOM     10  O   PHE A   1       5.172   3.567  19.352  0.00  0.00    +0.000 OA
BRANCH   9  11
ATOM     11  OXT PHE A   1       3.499   3.732  17.842  0.00  0.00    +0.000 OA
ATOM     12  HXT PHE A   1       2.936   4.180  18.508  0.00  0.00    +0.000 HD
ENDBRANCH   9  11
ENDBRANCH   8   9
BRANCH   8  13
ATOM     13  CB  PHE A   1       4.894   4.466  15.806  0.00  0.00    +0.000 C 
BRANCH  13  14
ATOM     14  CG  PHE A   1       5.664   4.343  14.507  0.00  0.00    +0.000 A 
ATOM     15  CD1 PHE A   1       5.196   3.594  13.419  0.00  0.00    +0.000 A 
ATOM     16  CE1 PHE A   1       5.965   3.466  12.260  0.00  0.00    +0.000 A 
ATOM     17  CZ  PHE A   1       7.194   4.111  12.160  0.00  0.00    +0.000 A 
ATOM     18  CE2 PHE A   1       7.643   4.910  13.207  0.00  0.00    +0.000 A 
ATOM     19  CD2 PHE A   1       6.881   5.030  14.371  0.00  0.00    +0.000 A 
ENDBRANCH  13  14
ENDBRANCH   8  13
ENDBRANCH   6   8
ENDBRANCH   3   5
ENDBRANCH   2   3
ENDBRANCH   1   2
BRANCH   1  20
ATOM     20  C   UNK A   0       8.884   9.668  19.053  0.00  0.00    +0.000 C 
BRANCH  20  21
ATOM     21  C   UNK A   0      10.130  10.549  18.984  0.00  0.00    +0.000 C 
BRANCH  21  22
ATOM     22  N   UNK A   0       9.810  11.929  18.749  0.00  0.00    +0.000 N 
ATOM     23  C   UNK A   0      10.605  12.782  18.027  0.00  0.00    +0.000 C 
ATOM     24  O   UNK A   0      11.683  12.430  17.547  0.00  0.00    +0.000 OA
ATOM     25  N   UNK A   0      10.122  14.058  17.899  0.00  0.00    +0.000 N 
ATOM     26  C   UNK A   0      10.790  15.164  17.194  0.00  0.00    +0.000 C 
ATOM     27  C   UNK A   0       9.982  16.421  17.593  0.00  0.00    +0.000 C 
ATOM     28  N   UNK A   0       8.828  15.842  18.255  0.00  0.00    +0.000 N 
ATOM     29  C   UNK A   0       8.945  14.501  18.427  0.00  0.00    +0.000 A 
ATOM     30  N   UNK A   0       7.936  13.980  19.067  0.00  0.00    +0.000 NA
ATOM     31  C   UNK A   0       7.135  15.078  19.337  0.00  0.00    +0.000 A 
ATOM     32  C   UNK A   0       5.905  15.123  20.011  0.00  0.00    +0.000 A 
ATOM     33  C   UNK A   0       5.294  16.367  20.207  0.00  0.00    +0.000 A 
ATOM     34  C   UNK A   0       5.892  17.542  19.742  0.00  0.00    +0.000 A 
ATOM     35  C   UNK A   0       7.110  17.522  19.050  0.00  0.00    +0.000 A 
ATOM     36  C   UNK A   0       7.697  16.271  18.858  0.00  0.00    +0.000 A 
ATOM     37  H   UNK A   0       8.885  12.271  19.006  0.00  0.00    +0.000 HD
ENDBRANCH  21  22
ENDBRANCH  20  21
ENDBRANCH   1  20
TORSDOF 11
ENDMDL
MODEL 6
REMARK VINA RESULT:      -7.5      1.038      1.188
REMARK  Name = 
REMARK  11 active torsions:
REMARK  status: ('A' for Active; 'I' for Inactive)
REMARK    1  A    between atoms: C_2  and  C_3
REMARK    2  A    between atoms: C_3  and  C_4
REMARK    3  A    between atoms: C_4  and  C_5
REMARK    4  A    between atoms: C_5  and  C_6
REMARK    5  A    between atoms: C_6  and  C_7
REMARK    6  A    between atoms: C_7  and  N_8
REMARK    7  A    between atoms: N_23  and  CA_24
REMARK    8  A    between atoms: CA_24  and  CB_25
REMARK    9  A    between atoms: CA_24  and  C_32
REMARK   10  A    between atoms: CB_25  and  CG_26
REMARK   11  A    between atoms: C_32  and  OXT_34
REMARK                            x       y       z     vdW  Elec       q    Type
REMARK                         _______ _______ _______ _____ _____    ______ ____
ROOT
ATOM      1  C   UNK A   0       1.137   3.690  20.095  0.00  0.00    +0.000 C 
ENDROOT
BRANCH   1   2
ATOM      2  C   UNK A   0       0.957   2.676  18.965  0.00  0.00    +0.000 C 
BRANCH   2   3
ATOM      3  C   UNK A   0       2.275   2.087  18.460  0.00  0.00    +0.000 C 
BRANCH   3   5
ATOM      4  O   UNK A   0       2.068   3.523  16.552  0.00  0.00    +0.000 OA
ATOM      5  C   UNK A   0       2.804   2.964  17.352  0.00  0.00    +0.000 C 
ATOM      6  N   PHE A   1       4.166   3.198  17.417  0.00  0.00    +0.000 N 
ATOM      7  H   PHE A   1       4.754   2.505  17.881  0.00  0.00    +0.000 HD
BRANCH   6   8
ATOM      8  CA  PHE A   1       4.797   4.124  16.451  0.00  0.00    +0.000 C 
BRANCH   8   9
ATOM      9  C   PHE A   1       5.014   5.488  17.124  0.00  0.00    +0.000 C 
ATOM     10  O   PHE A   1       5.497   5.639  18.239  0.00  0.00    +0.000 OA
BRANCH   9  11
ATOM     11  OXT PHE A   1       4.566   6.533  16.384  0.00  0.00    +0.000 OA
ATOM     12  HXT PHE A   1       4.430   6.223  15.465  0.00  0.00    +0.000 HD
ENDBRANCH   9  11
ENDBRANCH   8   9
BRANCH   8  13
ATOM     13  CB  PHE A   1       6.152   3.618  15.927  0.00  0.00    +0.000 C 
BRANCH  13  14
ATOM     14  CG  PHE A   1       6.483   3.955  14.487  0.00  0.00    +0.000 A 
ATOM     15  CD1 PHE A   1       5.914   3.274  13.402  0.00  0.00    +0.000 A 
ATOM     16  CE1 PHE A   1       6.289   3.585  12.092  0.00  0.00    +0.000 A 
ATOM     17  CZ  PHE A   1       7.209   4.600  11.849  0.00  0.00    +0.000 A 
ATOM     18  CE2 PHE A   1       7.734   5.328  12.913  0.00  0.00    +0.000 A 
ATOM     19  CD2 PHE A   1       7.369   5.011  14.223  0.00  0.00    +0.000 A 
ENDBRANCH  13  14
ENDBRANCH   8  13
ENDBRANCH   6   8
ENDBRANCH   3   5
ENDBRANCH   2   3
ENDBRANCH   1   2
BRANCH   1  20
ATOM     20  C   UNK A   0       1.977   4.912  19.713  0.00  0.00    +0.000 C 
BRANCH  20  21
ATOM     21  C   UNK A   0       2.174   5.865  20.891  0.00  0.00    +0.000 C 
BRANCH  21  22
ATOM     22  N   UNK A   0       1.720   7.196  20.597  0.00  0.00    +0.000 N 
ATOM     23  C   UNK A   0       1.999   7.854  19.427  0.00  0.00    +0.000 C 
ATOM     24  O   UNK A   0       2.695   7.356  18.541  0.00  0.00    +0.000 OA
ATOM     25  N   UNK A   0       1.465   9.112  19.325  0.00  0.00    +0.000 N 
ATOM     26  C   UNK A   0       1.632  10.029  18.186  0.00  0.00    +0.000 C 
ATOM     27  C   UNK A   0       1.089  11.384  18.697  0.00  0.00    +0.000 C 
ATOM     28  N   UNK A   0       0.460  11.006  19.949  0.00  0.00    +0.000 N 
ATOM     29  C   UNK A   0       0.705   9.714  20.285  0.00  0.00    +0.000 A 
ATOM     30  N   UNK A   0       0.187   9.380  21.433  0.00  0.00    +0.000 NA
ATOM     31  C   UNK A   0      -0.410  10.554  21.862  0.00  0.00    +0.000 A 
ATOM     32  C   UNK A   0      -1.124  10.796  23.046  0.00  0.00    +0.000 A 
ATOM     33  C   UNK A   0      -1.601  12.089  23.288  0.00  0.00    +0.000 A 
ATOM     34  C   UNK A   0      -1.375  13.121  22.373  0.00  0.00    +0.000 A 
ATOM     35  C   UNK A   0      -0.681  12.903  21.176  0.00  0.00    +0.000 A 
ATOM     36  C   UNK A   0      -0.222  11.605  20.950  0.00  0.00    +0.000 A 
ATOM     37  H   UNK A   0       1.043   7.634  21.219  0.00  0.00    +0.000 HD
ENDBRANCH  21  22
ENDBRANCH  20  21
ENDBRANCH   1  20
TORSDOF 11
ENDMDL
MODEL 7
REMARK VINA RESULT:      -7.5      2.460      3.297
REMARK  Name = 
REMARK  11 active torsions:
REMARK  status: ('A' for Active; 'I' for Inactive)
REMARK    1  A    between atoms: C_2  and  C_3
REMARK    2  A    between atoms: C_3  and  C_4
REMARK    3  A    between atoms: C_4  and  C_5
REMARK    4  A    between atoms: C_5  and  C_6
REMARK    5  A    between atoms: C_6  and  C_7
REMARK    6  A    between atoms: C_7  and  N_8
REMARK    7  A    between atoms: N_23  and  CA_24
REMARK    8  A    between atoms: CA_24  and  CB_25
REMARK    9  A    between atoms: CA_24  and  C_32
REMARK   10  A    between atoms: CB_25  and  CG_26
REMARK   11  A    between atoms: C_32  and  OXT_34
REMARK                            x       y       z     vdW  Elec       q    Type
REMARK                         _______ _______ _______ _____ _____    ______ ____
ROOT
ATOM      1  C   UNK A   0       2.231   5.364  20.694  0.00  0.00    +0.000 C 
ENDROOT
BRANCH   1   2
ATOM      2  C   UNK A   0       2.206   3.913  20.211  0.00  0.00    +0.000 C 
BRANCH   2   3
ATOM      3  C   UNK A   0       3.580   3.389  19.789  0.00  0.00    +0.000 C 
BRANCH   3   5
ATOM      4  O   UNK A   0       3.004   3.582  17.470  0.00  0.00    +0.000 OA
ATOM      5  C   UNK A   0       3.826   3.781  18.352  0.00  0.00    +0.000 C 
ATOM      6  N   PHE A   1       4.985   4.511  18.157  0.00  0.00    +0.000 N 
ATOM      7  H   PHE A   1       5.750   4.390  18.820  0.00  0.00    +0.000 HD
BRANCH   6   8
ATOM      8  CA  PHE A   1       5.295   5.046  16.812  0.00  0.00    +0.000 C 
BRANCH   8   9
ATOM      9  C   PHE A   1       5.412   6.576  16.890  0.00  0.00    +0.000 C 
ATOM     10  O   PHE A   1       6.470   7.191  16.838  0.00  0.00    +0.000 OA
BRANCH   9  11
ATOM     11  OXT PHE A   1       4.223   7.201  17.081  0.00  0.00    +0.000 OA
ATOM     12  HXT PHE A   1       3.564   6.796  16.479  0.00  0.00    +0.000 HD
ENDBRANCH   9  11
ENDBRANCH   8   9
BRANCH   8  13
ATOM     13  CB  PHE A   1       6.603   4.486  16.227  0.00  0.00    +0.000 C 
BRANCH  13  14
ATOM     14  CG  PHE A   1       6.674   4.390  14.716  0.00  0.00    +0.000 A 
ATOM     15  CD1 PHE A   1       5.840   3.546  13.972  0.00  0.00    +0.000 A 
ATOM     16  CE1 PHE A   1       5.978   3.452  12.585  0.00  0.00    +0.000 A 
ATOM     17  CZ  PHE A   1       6.926   4.225  11.922  0.00  0.00    +0.000 A 
ATOM     18  CE2 PHE A   1       7.719   5.115  12.640  0.00  0.00    +0.000 A 
ATOM     19  CD2 PHE A   1       7.590   5.202  14.028  0.00  0.00    +0.000 A 
ENDBRANCH  13  14
ENDBRANCH   8  13
ENDBRANCH   6   8
ENDBRANCH   3   5
ENDBRANCH   2   3
ENDBRANCH   1   2
BRANCH   1  20
ATOM     20  C   UNK A   0       1.732   6.377  19.661  0.00  0.00    +0.000 C 
BRANCH  20  21
ATOM     21  C   UNK A   0       2.202   7.797  19.975  0.00  0.00    +0.000 C 
BRANCH  21  22
ATOM     22  N   UNK A   0       1.143   8.761  19.854  0.00  0.00    +0.000 N 
ATOM     23  C   UNK A   0       0.832   9.675  20.827  0.00  0.00    +0.000 C 
ATOM     24  O   UNK A   0       1.426   9.717  21.905  0.00  0.00    +0.000 OA
ATOM     25  N   UNK A   0      -0.201  10.522  20.521  0.00  0.00    +0.000 N 
ATOM     26  C   UNK A   0      -0.740  11.574  21.398  0.00  0.00    +0.000 C 
ATOM     27  C   UNK A   0      -2.048  12.022  20.704  0.00  0.00    +0.000 C 
ATOM     28  N   UNK A   0      -1.952  11.358  19.417  0.00  0.00    +0.000 N 
ATOM     29  C   UNK A   0      -0.901  10.502  19.350  0.00  0.00    +0.000 A 
ATOM     30  N   UNK A   0      -0.836   9.864  18.216  0.00  0.00    +0.000 NA
ATOM     31  C   UNK A   0      -1.941  10.336  17.526  0.00  0.00    +0.000 A 
ATOM     32  C   UNK A   0      -2.384   9.998  16.238  0.00  0.00    +0.000 A 
ATOM     33  C   UNK A   0      -3.565  10.577  15.762  0.00  0.00    +0.000 A 
ATOM     34  C   UNK A   0      -4.293  11.475  16.549  0.00  0.00    +0.000 A 
ATOM     35  C   UNK A   0      -3.863  11.844  17.831  0.00  0.00    +0.000 A 
ATOM     36  C   UNK A   0      -2.678  11.262  18.282  0.00  0.00    +0.000 A 
ATOM     37  H   UNK A   0       0.682   8.875  18.953  0.00  0.00    +0.000 HD
ENDBRANCH  21  22
ENDBRANCH  20  21
ENDBRANCH   1  20
TORSDOF 11
ENDMDL
MODEL 8
REMARK VINA RESULT:      -7.4      3.118      5.881
REMARK  Name = 
REMARK  11 active torsions:
REMARK  status: ('A' for Active; 'I' for Inactive)
REMARK    1  A    between atoms: C_2  and  C_3
REMARK    2  A    between atoms: C_3  and  C_4
REMARK    3  A    between atoms: C_4  and  C_5
REMARK    4  A    between atoms: C_5  and  C_6
REMARK    5  A    between atoms: C_6  and  C_7
REMARK    6  A    between atoms: C_7  and  N_8
REMARK    7  A    between atoms: N_23  and  CA_24
REMARK    8  A    between atoms: CA_24  and  CB_25
REMARK    9  A    between atoms: CA_24  and  C_32
REMARK   10  A    between atoms: CB_25  and  CG_26
REMARK   11  A    between atoms: C_32  and  OXT_34
REMARK                            x       y       z     vdW  Elec       q    Type
REMARK                         _______ _______ _______ _____ _____    ______ ____
ROOT
ATOM      1  C   UNK A   0       1.407   9.188  17.820  0.00  0.00    +0.000 C 
ENDROOT
BRANCH   1   2
ATOM      2  C   UNK A   0       2.005   7.785  17.925  0.00  0.00    +0.000 C 
BRANCH   2   3
ATOM      3  C   UNK A   0       3.532   7.780  18.024  0.00  0.00    +0.000 C 
BRANCH   3   5
ATOM      4  O   UNK A   0       4.659   6.854  16.122  0.00  0.00    +0.000 OA
ATOM      5  C   UNK A   0       4.068   6.655  17.174  0.00  0.00    +0.000 C 
ATOM      6  N   PHE A   1       3.966   5.406  17.759  0.00  0.00    +0.000 N 
ATOM      7  H   PHE A   1       3.231   5.254  18.450  0.00  0.00    +0.000 HD
BRANCH   6   8
ATOM      8  CA  PHE A   1       4.546   4.227  17.077  0.00  0.00    +0.000 C 
BRANCH   8   9
ATOM      9  C   PHE A   1       6.059   4.185  17.337  0.00  0.00    +0.000 C 
ATOM     10  O   PHE A   1       6.913   4.256  16.462  0.00  0.00    +0.000 OA
BRANCH   9  11
ATOM     11  OXT PHE A   1       6.379   4.005  18.643  0.00  0.00    +0.000 OA
ATOM     12  HXT PHE A   1       5.879   3.231  18.977  0.00  0.00    +0.000 HD
ENDBRANCH   9  11
ENDBRANCH   8   9
BRANCH   8  13
ATOM     13  CB  PHE A   1       3.933   2.896  17.546  0.00  0.00    +0.000 C 
BRANCH  13  14
ATOM     14  CG  PHE A   1       2.969   2.976  18.712  0.00  0.00    +0.000 A 
ATOM     15  CD1 PHE A   1       1.598   3.212  18.545  0.00  0.00    +0.000 A 
ATOM     16  CE1 PHE A   1       0.756   3.330  19.653  0.00  0.00    +0.000 A 
ATOM     17  CZ  PHE A   1       1.265   3.180  20.939  0.00  0.00    +0.000 A 
ATOM     18  CE2 PHE A   1       2.613   2.883  21.119  0.00  0.00    +0.000 A 
ATOM     19  CD2 PHE A   1       3.459   2.775  20.013  0.00  0.00    +0.000 A 
ENDBRANCH  13  14
ENDBRANCH   8  13
ENDBRANCH   6   8
ENDBRANCH   3   5
ENDBRANCH   2   3
ENDBRANCH   1   2
BRANCH   1  20
ATOM     20  C   UNK A   0       1.119   9.850  19.170  0.00  0.00    +0.000 C 
BRANCH  20  21
ATOM     21  C   UNK A   0       0.793  11.336  19.024  0.00  0.00    +0.000 C 
BRANCH  21  22
ATOM     22  N   UNK A   0      -0.362  11.718  19.788  0.00  0.00    +0.000 N 
ATOM     23  C   UNK A   0      -0.323  12.020  21.125  0.00  0.00    +0.000 C 
ATOM     24  O   UNK A   0       0.714  11.956  21.785  0.00  0.00    +0.000 OA
ATOM     25  N   UNK A   0      -1.526  12.378  21.675  0.00  0.00    +0.000 N 
ATOM     26  C   UNK A   0      -1.756  12.728  23.086  0.00  0.00    +0.000 C 
ATOM     27  C   UNK A   0      -3.296  12.761  23.229  0.00  0.00    +0.000 C 
ATOM     28  N   UNK A   0      -3.732  12.679  21.847  0.00  0.00    +0.000 N 
ATOM     29  C   UNK A   0      -2.704  12.446  20.991  0.00  0.00    +0.000 A 
ATOM     30  N   UNK A   0      -3.092  12.320  19.754  0.00  0.00    +0.000 NA
ATOM     31  C   UNK A   0      -4.468  12.462  19.839  0.00  0.00    +0.000 A 
ATOM     32  C   UNK A   0      -5.422  12.415  18.811  0.00  0.00    +0.000 A 
ATOM     33  C   UNK A   0      -6.775  12.541  19.147  0.00  0.00    +0.000 A 
ATOM     34  C   UNK A   0      -7.172  12.709  20.477  0.00  0.00    +0.000 A 
ATOM     35  C   UNK A   0      -6.239  12.778  21.519  0.00  0.00    +0.000 A 
ATOM     36  C   UNK A   0      -4.896  12.660  21.162  0.00  0.00    +0.000 A 
ATOM     37  H   UNK A   0      -1.234  11.912  19.299  0.00  0.00    +0.000 HD
ENDBRANCH  21  22
ENDBRANCH  20  21
ENDBRANCH   1  20
TORSDOF 11
ENDMDL
MODEL 9
REMARK VINA RESULT:      -7.4      3.508      6.197
REMARK  Name = 
REMARK  11 active torsions:
REMARK  status: ('A' for Active; 'I' for Inactive)
REMARK    1  A    between atoms: C_2  and  C_3
REMARK    2  A    between atoms: C_3  and  C_4
REMARK    3  A    between atoms: C_4  and  C_5
REMARK    4  A    between atoms: C_5  and  C_6
REMARK    5  A    between atoms: C_6  and  C_7
REMARK    6  A    between atoms: C_7  and  N_8
REMARK    7  A    between atoms: N_23  and  CA_24
REMARK    8  A    between atoms: CA_24  and  CB_25
REMARK    9  A    between atoms: CA_24  and  C_32
REMARK   10  A    between atoms: CB_25  and  CG_26
REMARK   11  A    between atoms: C_32  and  OXT_34
REMARK                            x       y       z     vdW  Elec       q    Type
REMARK                         _______ _______ _______ _____ _____    ______ ____
ROOT
ATOM      1  C   UNK A   0       0.914   9.769  18.035  0.00  0.00    +0.000 C 
ENDROOT
BRANCH   1   2
ATOM      2  C   UNK A   0       2.156   8.951  17.680  0.00  0.00    +0.000 C 
BRANCH   2   3
ATOM      3  C   UNK A   0       2.485   7.866  18.708  0.00  0.00    +0.000 C 
BRANCH   3   5
ATOM      4  O   UNK A   0       3.937   7.067  16.977  0.00  0.00    +0.000 OA
ATOM      5  C   UNK A   0       3.475   6.906  18.097  0.00  0.00    +0.000 C 
ATOM      6  N   PHE A   1       3.920   5.925  18.964  0.00  0.00    +0.000 N 
ATOM      7  H   PHE A   1       3.313   5.652  19.738  0.00  0.00    +0.000 HD
BRANCH   6   8
ATOM      8  CA  PHE A   1       4.969   4.979  18.524  0.00  0.00    +0.000 C 
BRANCH   8   9
ATOM      9  C   PHE A   1       6.344   5.509  18.958  0.00  0.00    +0.000 C 
ATOM     10  O   PHE A   1       6.916   5.182  19.991  0.00  0.00    +0.000 OA
BRANCH   9  11
ATOM     11  OXT PHE A   1       6.860   6.433  18.110  0.00  0.00    +0.000 OA
ATOM     12  HXT PHE A   1       6.124   6.816  17.589  0.00  0.00    +0.000 HD
ENDBRANCH   9  11
ENDBRANCH   8   9
BRANCH   8  13
ATOM     13  CB  PHE A   1       4.787   3.564  19.101  0.00  0.00    +0.000 C 
BRANCH  13  14
ATOM     14  CG  PHE A   1       3.365   3.143  19.408  0.00  0.00    +0.000 A 
ATOM     15  CD1 PHE A   1       2.863   3.069  20.714  0.00  0.00    +0.000 A 
ATOM     16  CE1 PHE A   1       1.560   2.625  20.952  0.00  0.00    +0.000 A 
ATOM     17  CZ  PHE A   1       0.732   2.283  19.887  0.00  0.00    +0.000 A 
ATOM     18  CE2 PHE A   1       1.195   2.412  18.581  0.00  0.00    +0.000 A 
ATOM     19  CD2 PHE A   1       2.501   2.845  18.342  0.00  0.00    +0.000 A 
ENDBRANCH  13  14
ENDBRANCH   8  13
ENDBRANCH   6   8
ENDBRANCH   3   5
ENDBRANCH   2   3
ENDBRANCH   1   2
BRANCH   1  20
ATOM     20  C   UNK A   0       0.607   9.825  19.534  0.00  0.00    +0.000 C 
BRANCH  20  21
ATOM     21  C   UNK A   0       0.559  11.260  20.057  0.00  0.00    +0.000 C 
BRANCH  21  22
ATOM     22  N   UNK A   0      -0.777  11.677  20.381  0.00  0.00    +0.000 N 
ATOM     23  C   UNK A   0      -1.149  12.144  21.615  0.00  0.00    +0.000 C 
ATOM     24  O   UNK A   0      -0.362  12.213  22.559  0.00  0.00    +0.000 OA
ATOM     25  N   UNK A   0      -2.466  12.508  21.726  0.00  0.00    +0.000 N 
ATOM     26  C   UNK A   0      -3.118  13.019  22.943  0.00  0.00    +0.000 C 
ATOM     27  C   UNK A   0      -4.629  12.995  22.611  0.00  0.00    +0.000 C 
ATOM     28  N   UNK A   0      -4.622  12.721  21.186  0.00  0.00    +0.000 N 
ATOM     29  C   UNK A   0      -3.381  12.433  20.717  0.00  0.00    +0.000 A 
ATOM     30  N   UNK A   0      -3.373  12.136  19.449  0.00  0.00    +0.000 NA
ATOM     31  C   UNK A   0      -4.711  12.221  19.097  0.00  0.00    +0.000 A 
ATOM     32  C   UNK A   0      -5.306  12.000  17.846  0.00  0.00    +0.000 A 
ATOM     33  C   UNK A   0      -6.698  12.101  17.739  0.00  0.00    +0.000 A 
ATOM     34  C   UNK A   0      -7.483  12.413  18.853  0.00  0.00    +0.000 A 
ATOM     35  C   UNK A   0      -6.912  12.656  20.110  0.00  0.00    +0.000 A 
ATOM     36  C   UNK A   0      -5.522  12.559  20.191  0.00  0.00    +0.000 A 
ATOM     37  H   UNK A   0      -1.461  11.767  19.632  0.00  0.00    +0.000 HD
ENDBRANCH  21  22
ENDBRANCH  20  21
ENDBRANCH   1  20
TORSDOF 11
ENDMDL
