MODEL 1
REMARK VINA RESULT:      -7.3      0.000      0.000
REMARK  Name = 
REMARK  6 active torsions:
REMARK  status: ('A' for Active; 'I' for Inactive)
REMARK    1  A    between atoms: C_1  and  O_2
REMARK    2  A    between atoms: O_2  and  C_3
REMARK    3  A    between atoms: C_3  and  C_5
REMARK    4  A    between atoms: C_6  and  C_7
REMARK    5  A    between atoms: C_12  and  O_13
REMARK    6  A    between atoms: O_13  and  C_14
REMARK                            x       y       z     vdW  Elec       q    Type
REMARK                         _______ _______ _______ _____ _____    ______ ____
ROOT
ATOM      1  C   UNL     1       5.594   4.857  17.826  0.00  0.00    +0.000 A 
ATOM      2  C   UNL     1       4.420   4.166  18.144  0.00  0.00    +0.000 A 
ATOM      3  S   UNL     1       3.737   3.480  16.725  0.00  0.00    +0.000 S 
ATOM      4  C   UNL     1       5.027   3.999  15.703  0.00  0.00    +0.000 A 
ATOM      5  C   UNL     1       5.197   3.735  14.322  0.00  0.00    +0.000 A 
ATOM      6  C   UNL     1       6.328   4.267  13.714  0.00  0.00    +0.000 A 
ATOM      7  C   UNL     1       7.234   5.016  14.403  0.00  0.00    +0.000 A 
ATOM      8  C   UNL     1       7.087   5.285  15.741  0.00  0.00    +0.000 A 
ATOM      9  C   UNL     1       5.953   4.761  16.425  0.00  0.00    +0.000 A 
ATOM     10  O   UNL     1       8.271   5.445  13.632  0.00  0.00    +0.000 OA
ATOM     11  C   UNL     1       7.902   4.880  12.360  0.00  0.00    +0.000 C 
ATOM     12  O   UNL     1       6.679   4.114  12.410  0.00  0.00    +0.000 OA
ENDROOT
BRANCH   2  13
ATOM     13  C   UNL     1       3.750   4.043  19.479  0.00  0.00    +0.000 A 
ATOM     14  C   UNL     1       3.801   2.779  20.106  0.00  0.00    +0.000 A 
ATOM     15  C   UNL     1       2.975   2.442  21.178  0.00  0.00    +0.000 A 
ATOM     16  C   UNL     1       2.131   3.397  21.713  0.00  0.00    +0.000 A 
ATOM     17  C   UNL     1       2.159   4.695  21.211  0.00  0.00    +0.000 A 
ATOM     18  C   UNL     1       2.973   5.044  20.114  0.00  0.00    +0.000 A 
BRANCH  18  19
ATOM     19  O   UNL     1       2.973   6.325  19.613  0.00  0.00    +0.000 OA
ATOM     20  C   UNL     1       1.997   7.207  20.176  0.00  0.00    +0.000 C 
ENDBRANCH  18  19
ENDBRANCH   2  13
BRANCH   1  21
ATOM     21  C   UNL     1       6.421   5.583  18.786  0.00  0.00    +0.000 C 
ATOM     22  O   UNL     1       6.802   5.125  19.861  0.00  0.00    +0.000 OA
BRANCH  21  24
ATOM     23  C   UNL     1       8.077   7.233  18.487  0.00  0.00    +0.000 C 
ATOM     24  O   UNL     1       6.710   6.846  18.355  0.00  0.00    +0.000 OA
ENDBRANCH  21  24
ENDBRANCH   1  21
TORSDOF 4
ENDMDL
MODEL 2
REMARK VINA RESULT:      -7.0      3.000      7.825
REMARK  Name = 
REMARK  6 active torsions:
REMARK  status: ('A' for Active; 'I' for Inactive)
REMARK    1  A    between atoms: C_1  and  O_2
REMARK    2  A    between atoms: O_2  and  C_3
REMARK    3  A    between atoms: C_3  and  C_5
REMARK    4  A    between atoms: C_6  and  C_7
REMARK    5  A    between atoms: C_12  and  O_13
REMARK    6  A    between atoms: O_13  and  C_14
REMARK                            x       y       z     vdW  Elec       q    Type
REMARK                         _______ _______ _______ _____ _____    ______ ____
ROOT
ATOM      1  C   UNL     1       1.891   6.517  19.968  0.00  0.00    +0.000 A 
ATOM      2  C   UNL     1       2.527   6.675  18.732  0.00  0.00    +0.000 A 
ATOM      3  S   UNL     1       2.302   8.276  18.153  0.00  0.00    +0.000 S 
ATOM      4  C   UNL     1       1.457   8.801  19.562  0.00  0.00    +0.000 A 
ATOM      5  C   UNL     1       0.978  10.102  19.851  0.00  0.00    +0.000 A 
ATOM      6  C   UNL     1       0.322  10.277  21.064  0.00  0.00    +0.000 A 
ATOM      7  C   UNL     1       0.134   9.250  21.939  0.00  0.00    +0.000 A 
ATOM      8  C   UNL     1       0.589   7.981  21.678  0.00  0.00    +0.000 A 
ATOM      9  C   UNL     1       1.277   7.738  20.456  0.00  0.00    +0.000 A 
ATOM     10  O   UNL     1      -0.529   9.623  23.068  0.00  0.00    +0.000 OA
ATOM     11  C   UNL     1      -0.748  11.019  22.793  0.00  0.00    +0.000 C 
ATOM     12  O   UNL     1      -0.194  11.446  21.530  0.00  0.00    +0.000 OA
ENDROOT
BRANCH   2  13
ATOM     13  C   UNL     1       3.260   5.643  17.930  0.00  0.00    +0.000 A 
ATOM     14  C   UNL     1       2.526   4.505  17.528  0.00  0.00    +0.000 A 
ATOM     15  C   UNL     1       3.142   3.346  17.057  0.00  0.00    +0.000 A 
ATOM     16  C   UNL     1       4.515   3.323  16.891  0.00  0.00    +0.000 A 
ATOM     17  C   UNL     1       5.254   4.476  17.144  0.00  0.00    +0.000 A 
ATOM     18  C   UNL     1       4.647   5.648  17.640  0.00  0.00    +0.000 A 
BRANCH  18  19
ATOM     19  O   UNL     1       5.394   6.772  17.906  0.00  0.00    +0.000 OA
ATOM     20  C   UNL     1       6.652   6.851  17.229  0.00  0.00    +0.000 C 
ENDBRANCH  18  19
ENDBRANCH   2  13
BRANCH   1  21
ATOM     21  C   UNL     1       1.856   5.277  20.737  0.00  0.00    +0.000 C 
ATOM     22  O   UNL     1       2.729   4.927  21.529  0.00  0.00    +0.000 OA
BRANCH  21  24
ATOM     23  C   UNL     1       0.946   3.126  20.424  0.00  0.00    +0.000 C 
ATOM     24  O   UNL     1       0.742   4.538  20.461  0.00  0.00    +0.000 OA
ENDBRANCH  21  24
ENDBRANCH   1  21
TORSDOF 4
ENDMDL
MODEL 3
REMARK VINA RESULT:      -7.0      4.276      7.650
REMARK  Name = 
REMARK  6 active torsions:
REMARK  status: ('A' for Active; 'I' for Inactive)
REMARK    1  A    between atoms: C_1  and  O_2
REMARK    2  A    between atoms: O_2  and  C_3
REMARK    3  A    between atoms: C_3  and  C_5
REMARK    4  A    between atoms: C_6  and  C_7
REMARK    5  A    between atoms: C_12  and  O_13
REMARK    6  A    between atoms: O_13  and  C_14
REMARK                            x       y       z     vdW  Elec       q    Type
REMARK                         _______ _______ _______ _____ _____    ______ ____
ROOT
ATOM      1  C   UNL     1       0.951   8.734  20.159  0.00  0.00    +0.000 A 
ATOM      2  C   UNL     1       0.841   9.808  19.269  0.00  0.00    +0.000 A 
ATOM      3  S   UNL     1       1.906   9.584  17.940  0.00  0.00    +0.000 S 
ATOM      4  C   UNL     1       2.445   8.034  18.472  0.00  0.00    +0.000 A 
ATOM      5  C   UNL     1       3.341   7.156  17.815  0.00  0.00    +0.000 A 
ATOM      6  C   UNL     1       3.622   5.952  18.450  0.00  0.00    +0.000 A 
ATOM      7  C   UNL     1       3.074   5.624  19.653  0.00  0.00    +0.000 A 
ATOM      8  C   UNL     1       2.204   6.460  20.308  0.00  0.00    +0.000 A 
ATOM      9  C   UNL     1       1.868   7.706  19.706  0.00  0.00    +0.000 A 
ATOM     10  O   UNL     1       3.472   4.404  20.108  0.00  0.00    +0.000 OA
ATOM     11  C   UNL     1       4.354   4.003  19.044  0.00  0.00    +0.000 C 
ATOM     12  O   UNL     1       4.439   4.973  17.978  0.00  0.00    +0.000 OA
ENDROOT
BRANCH   2  13
ATOM     13  C   UNL     1      -0.004  11.038  19.403  0.00  0.00    +0.000 A 
ATOM     14  C   UNL     1       0.602  12.167  19.999  0.00  0.00    +0.000 A 
ATOM     15  C   UNL     1      -0.138  13.255  20.462  0.00  0.00    +0.000 A 
ATOM     16  C   UNL     1      -1.506  13.283  20.261  0.00  0.00    +0.000 A 
ATOM     17  C   UNL     1      -2.115  12.253  19.550  0.00  0.00    +0.000 A 
ATOM     18  C   UNL     1      -1.383  11.137  19.095  0.00  0.00    +0.000 A 
BRANCH  18  19
ATOM     19  O   UNL     1      -2.003  10.115  18.414  0.00  0.00    +0.000 OA
ATOM     20  C   UNL     1      -2.131  10.304  17.002  0.00  0.00    +0.000 C 
ENDBRANCH  18  19
ENDBRANCH   2  13
BRANCH   1  21
ATOM     21  C   UNL     1       0.209   8.607  21.410  0.00  0.00    +0.000 C 
ATOM     22  O   UNL     1      -0.736   7.841  21.582  0.00  0.00    +0.000 OA
BRANCH  21  24
ATOM     23  C   UNL     1      -0.323  10.102  23.154  0.00  0.00    +0.000 C 
ATOM     24  O   UNL     1       0.680   9.458  22.369  0.00  0.00    +0.000 OA
ENDBRANCH  21  24
ENDBRANCH   1  21
TORSDOF 4
ENDMDL
MODEL 4
REMARK VINA RESULT:      -7.0      1.266      2.169
REMARK  Name = 
REMARK  6 active torsions:
REMARK  status: ('A' for Active; 'I' for Inactive)
REMARK    1  A    between atoms: C_1  and  O_2
REMARK    2  A    between atoms: O_2  and  C_3
REMARK    3  A    between atoms: C_3  and  C_5
REMARK    4  A    between atoms: C_6  and  C_7
REMARK    5  A    between atoms: C_12  and  O_13
REMARK    6  A    between atoms: O_13  and  C_14
REMARK                            x       y       z     vdW  Elec       q    Type
REMARK                         _______ _______ _______ _____ _____    ______ ____
ROOT
ATOM      1  C   UNL     1       5.134   4.411  17.869  0.00  0.00    +0.000 A 
ATOM      2  C   UNL     1       4.008   3.587  17.968  0.00  0.00    +0.000 A 
ATOM      3  S   UNL     1       3.568   3.001  16.414  0.00  0.00    +0.000 S 
ATOM      4  C   UNL     1       4.908   3.741  15.618  0.00  0.00    +0.000 A 
ATOM      5  C   UNL     1       5.264   3.645  14.250  0.00  0.00    +0.000 A 
ATOM      6  C   UNL     1       6.397   4.338  13.844  0.00  0.00    +0.000 A 
ATOM      7  C   UNL     1       7.136   5.087  14.710  0.00  0.00    +0.000 A 
ATOM      8  C   UNL     1       6.808   5.195  16.040  0.00  0.00    +0.000 A 
ATOM      9  C   UNL     1       5.662   4.501  16.521  0.00  0.00    +0.000 A 
ATOM     10  O   UNL     1       8.206   5.687  14.121  0.00  0.00    +0.000 OA
ATOM     11  C   UNL     1       8.047   5.233  12.765  0.00  0.00    +0.000 C 
ATOM     12  O   UNL     1       6.911   4.360  12.585  0.00  0.00    +0.000 OA
ENDROOT
BRANCH   2  13
ATOM     13  C   UNL     1       3.204   3.261  19.189  0.00  0.00    +0.000 A 
ATOM     14  C   UNL     1       1.942   3.884  19.309  0.00  0.00    +0.000 A 
ATOM     15  C   UNL     1       1.236   3.918  20.512  0.00  0.00    +0.000 A 
ATOM     16  C   UNL     1       1.736   3.249  21.614  0.00  0.00    +0.000 A 
ATOM     17  C   UNL     1       2.907   2.505  21.491  0.00  0.00    +0.000 A 
ATOM     18  C   UNL     1       3.642   2.480  20.287  0.00  0.00    +0.000 A 
BRANCH  18  19
ATOM     19  O   UNL     1       4.809   1.759  20.187  0.00  0.00    +0.000 OA
ATOM     20  C   UNL     1       5.269   1.160  21.402  0.00  0.00    +0.000 C 
ENDBRANCH  18  19
ENDBRANCH   2  13
BRANCH   1  21
ATOM     21  C   UNL     1       5.766   5.100  18.990  0.00  0.00    +0.000 C 
ATOM     22  O   UNL     1       5.206   5.936  19.696  0.00  0.00    +0.000 OA
BRANCH  21  24
ATOM     23  C   UNL     1       7.978   5.777  19.439  0.00  0.00    +0.000 C 
ATOM     24  O   UNL     1       7.066   4.717  19.155  0.00  0.00    +0.000 OA
ENDBRANCH  21  24
ENDBRANCH   1  21
TORSDOF 4
ENDMDL
MODEL 5
REMARK VINA RESULT:      -6.9      2.996      7.653
REMARK  Name = 
REMARK  6 active torsions:
REMARK  status: ('A' for Active; 'I' for Inactive)
REMARK    1  A    between atoms: C_1  and  O_2
REMARK    2  A    between atoms: O_2  and  C_3
REMARK    3  A    between atoms: C_3  and  C_5
REMARK    4  A    between atoms: C_6  and  C_7
REMARK    5  A    between atoms: C_12  and  O_13
REMARK    6  A    between atoms: O_13  and  C_14
REMARK                            x       y       z     vdW  Elec       q    Type
REMARK                         _______ _______ _______ _____ _____    ______ ____
ROOT
ATOM      1  C   UNL     1       2.507   6.420  19.624  0.00  0.00    +0.000 A 
ATOM      2  C   UNL     1       3.135   6.682  18.402  0.00  0.00    +0.000 A 
ATOM      3  S   UNL     1       2.688   8.239  17.831  0.00  0.00    +0.000 S 
ATOM      4  C   UNL     1       1.750   8.619  19.228  0.00  0.00    +0.000 A 
ATOM      5  C   UNL     1       1.080   9.833  19.517  0.00  0.00    +0.000 A 
ATOM      6  C   UNL     1       0.384   9.898  20.718  0.00  0.00    +0.000 A 
ATOM      7  C   UNL     1       0.333   8.845  21.582  0.00  0.00    +0.000 A 
ATOM      8  C   UNL     1       0.974   7.659  21.320  0.00  0.00    +0.000 A 
ATOM      9  C   UNL     1       1.712   7.532  20.110  0.00  0.00    +0.000 A 
ATOM     10  O   UNL     1      -0.397   9.105  22.701  0.00  0.00    +0.000 OA
ATOM     11  C   UNL     1      -0.815  10.456  22.433  0.00  0.00    +0.000 C 
ATOM     12  O   UNL     1      -0.306  10.973  21.184  0.00  0.00    +0.000 OA
ENDROOT
BRANCH   2  13
ATOM     13  C   UNL     1       4.026   5.777  17.607  0.00  0.00    +0.000 A 
ATOM     14  C   UNL     1       5.319   6.259  17.303  0.00  0.00    +0.000 A 
ATOM     15  C   UNL     1       6.125   5.671  16.329  0.00  0.00    +0.000 A 
ATOM     16  C   UNL     1       5.694   4.523  15.689  0.00  0.00    +0.000 A 
ATOM     17  C   UNL     1       4.488   3.941  16.067  0.00  0.00    +0.000 A 
ATOM     18  C   UNL     1       3.652   4.536  17.034  0.00  0.00    +0.000 A 
BRANCH  18  19
ATOM     19  O   UNL     1       2.452   3.961  17.381  0.00  0.00    +0.000 OA
ATOM     20  C   UNL     1       2.505   2.567  17.701  0.00  0.00    +0.000 C 
ENDBRANCH  18  19
ENDBRANCH   2  13
BRANCH   1  21
ATOM     21  C   UNL     1       2.641   5.180  20.383  0.00  0.00    +0.000 C 
ATOM     22  O   UNL     1       3.715   4.686  20.721  0.00  0.00    +0.000 OA
BRANCH  21  24
ATOM     23  C   UNL     1       1.479   3.312  21.230  0.00  0.00    +0.000 C 
ATOM     24  O   UNL     1       1.428   4.620  20.662  0.00  0.00    +0.000 OA
ENDBRANCH  21  24
ENDBRANCH   1  21
TORSDOF 4
ENDMDL
MODEL 6
REMARK VINA RESULT:      -6.9      4.354      7.585
REMARK  Name = 
REMARK  6 active torsions:
REMARK  status: ('A' for Active; 'I' for Inactive)
REMARK    1  A    between atoms: C_1  and  O_2
REMARK    2  A    between atoms: O_2  and  C_3
REMARK    3  A    between atoms: C_3  and  C_5
REMARK    4  A    between atoms: C_6  and  C_7
REMARK    5  A    between atoms: C_12  and  O_13
REMARK    6  A    between atoms: O_13  and  C_14
REMARK                            x       y       z     vdW  Elec       q    Type
REMARK                         _______ _______ _______ _____ _____    ______ ____
ROOT
ATOM      1  C   UNL     1       1.014   8.776  20.202  0.00  0.00    +0.000 A 
ATOM      2  C   UNL     1       0.847   9.957  19.471  0.00  0.00    +0.000 A 
ATOM      3  S   UNL     1       1.846   9.933  18.074  0.00  0.00    +0.000 S 
ATOM      4  C   UNL     1       2.428   8.335  18.365  0.00  0.00    +0.000 A 
ATOM      5  C   UNL     1       3.300   7.570  17.553  0.00  0.00    +0.000 A 
ATOM      6  C   UNL     1       3.626   6.296  18.005  0.00  0.00    +0.000 A 
ATOM      7  C   UNL     1       3.143   5.800  19.178  0.00  0.00    +0.000 A 
ATOM      8  C   UNL     1       2.298   6.526  19.981  0.00  0.00    +0.000 A 
ATOM      9  C   UNL     1       1.918   7.835  19.569  0.00  0.00    +0.000 A 
ATOM     10  O   UNL     1       3.578   4.538  19.444  0.00  0.00    +0.000 OA
ATOM     11  C   UNL     1       4.409   4.299  18.295  0.00  0.00    +0.000 C 
ATOM     12  O   UNL     1       4.429   5.405  17.366  0.00  0.00    +0.000 OA
ENDROOT
BRANCH   2  13
ATOM     13  C   UNL     1      -0.003  11.144  19.811  0.00  0.00    +0.000 A 
ATOM     14  C   UNL     1      -1.333  11.135  19.333  0.00  0.00    +0.000 A 
ATOM     15  C   UNL     1      -2.124  12.283  19.306  0.00  0.00    +0.000 A 
ATOM     16  C   UNL     1      -1.635  13.461  19.841  0.00  0.00    +0.000 A 
ATOM     17  C   UNL     1      -0.383  13.468  20.449  0.00  0.00    +0.000 A 
ATOM     18  C   UNL     1       0.437  12.321  20.465  0.00  0.00    +0.000 A 
BRANCH  18  19
ATOM     19  O   UNL     1       1.682  12.350  21.049  0.00  0.00    +0.000 OA
ATOM     20  C   UNL     1       2.504  13.465  20.693  0.00  0.00    +0.000 C 
ENDBRANCH  18  19
ENDBRANCH   2  13
BRANCH   1  21
ATOM     21  C   UNL     1       0.338   8.469  21.459  0.00  0.00    +0.000 C 
ATOM     22  O   UNL     1      -0.669   7.771  21.553  0.00  0.00    +0.000 OA
BRANCH  21  24
ATOM     23  C   UNL     1       0.065   9.657  23.476  0.00  0.00    +0.000 C 
ATOM     24  O   UNL     1       0.948   9.066  22.524  0.00  0.00    +0.000 OA
ENDBRANCH  21  24
ENDBRANCH   1  21
TORSDOF 4
ENDMDL
MODEL 7
REMARK VINA RESULT:      -6.8      1.800      2.899
REMARK  Name = 
REMARK  6 active torsions:
REMARK  status: ('A' for Active; 'I' for Inactive)
REMARK    1  A    between atoms: C_1  and  O_2
REMARK    2  A    between atoms: O_2  and  C_3
REMARK    3  A    between atoms: C_3  and  C_5
REMARK    4  A    between atoms: C_6  and  C_7
REMARK    5  A    between atoms: C_12  and  O_13
REMARK    6  A    between atoms: O_13  and  C_14
REMARK                            x       y       z     vdW  Elec       q    Type
REMARK                         _______ _______ _______ _____ _____    ______ ____
ROOT
ATOM      1  C   UNL     1       4.271   3.689  17.354  0.00  0.00    +0.000 A 
ATOM      2  C   UNL     1       4.512   4.239  18.617  0.00  0.00    +0.000 A 
ATOM      3  S   UNL     1       5.963   5.158  18.592  0.00  0.00    +0.000 S 
ATOM      4  C   UNL     1       6.231   4.922  16.905  0.00  0.00    +0.000 A 
ATOM      5  C   UNL     1       7.269   5.464  16.108  0.00  0.00    +0.000 A 
ATOM      6  C   UNL     1       7.272   5.125  14.760  0.00  0.00    +0.000 A 
ATOM      7  C   UNL     1       6.330   4.302  14.221  0.00  0.00    +0.000 A 
ATOM      8  C   UNL     1       5.316   3.765  14.974  0.00  0.00    +0.000 A 
ATOM      9  C   UNL     1       5.252   4.081  16.361  0.00  0.00    +0.000 A 
ATOM     10  O   UNL     1       6.504   4.092  12.887  0.00  0.00    +0.000 OA
ATOM     11  C   UNL     1       7.686   4.878  12.650  0.00  0.00    +0.000 C 
ATOM     12  O   UNL     1       8.168   5.553  13.832  0.00  0.00    +0.000 OA
ENDROOT
BRANCH   2  13
ATOM     13  C   UNL     1       3.716   4.058  19.874  0.00  0.00    +0.000 A 
ATOM     14  C   UNL     1       3.815   2.805  20.518  0.00  0.00    +0.000 A 
ATOM     15  C   UNL     1       2.913   2.396  21.499  0.00  0.00    +0.000 A 
ATOM     16  C   UNL     1       1.930   3.269  21.928  0.00  0.00    +0.000 A 
ATOM     17  C   UNL     1       1.892   4.563  21.415  0.00  0.00    +0.000 A 
ATOM     18  C   UNL     1       2.785   4.983  20.408  0.00  0.00    +0.000 A 
BRANCH  18  19
ATOM     19  O   UNL     1       2.721   6.258  19.895  0.00  0.00    +0.000 OA
ATOM     20  C   UNL     1       1.732   7.110  20.481  0.00  0.00    +0.000 C 
ENDBRANCH  18  19
ENDBRANCH   2  13
BRANCH   1  21
ATOM     21  C   UNL     1       3.137   2.831  17.020  0.00  0.00    +0.000 C 
ATOM     22  O   UNL     1       3.111   1.615  17.197  0.00  0.00    +0.000 OA
BRANCH  21  24
ATOM     23  C   UNL     1       1.194   4.107  17.406  0.00  0.00    +0.000 C 
ATOM     24  O   UNL     1       2.108   3.539  16.469  0.00  0.00    +0.000 OA
ENDBRANCH  21  24
ENDBRANCH   1  21
TORSDOF 4
ENDMDL
MODEL 8
REMARK VINA RESULT:      -6.8      2.505      7.360
REMARK  Name = 
REMARK  6 active torsions:
REMARK  status: ('A' for Active; 'I' for Inactive)
REMARK    1  A    between atoms: C_1  and  O_2
REMARK    2  A    between atoms: O_2  and  C_3
REMARK    3  A    between atoms: C_3  and  C_5
REMARK    4  A    between atoms: C_6  and  C_7
REMARK    5  A    between atoms: C_12  and  O_13
REMARK    6  A    between atoms: O_13  and  C_14
REMARK                            x       y       z     vdW  Elec       q    Type
REMARK                         _______ _______ _______ _____ _____    ______ ____
ROOT
ATOM      1  C   UNL     1       3.072   6.400  19.120  0.00  0.00    +0.000 A 
ATOM      2  C   UNL     1       3.622   6.750  17.882  0.00  0.00    +0.000 A 
ATOM      3  S   UNL     1       2.987   8.258  17.359  0.00  0.00    +0.000 S 
ATOM      4  C   UNL     1       2.064   8.509  18.795  0.00  0.00    +0.000 A 
ATOM      5  C   UNL     1       1.277   9.637  19.132  0.00  0.00    +0.000 A 
ATOM      6  C   UNL     1       0.622   9.604  20.358  0.00  0.00    +0.000 A 
ATOM      7  C   UNL     1       0.719   8.538  21.200  0.00  0.00    +0.000 A 
ATOM      8  C   UNL     1       1.476   7.435  20.893  0.00  0.00    +0.000 A 
ATOM      9  C   UNL     1       2.179   7.410  19.655  0.00  0.00    +0.000 A 
ATOM     10  O   UNL     1       0.006   8.698  22.349  0.00  0.00    +0.000 OA
ATOM     11  C   UNL     1      -0.567   9.999  22.123  0.00  0.00    +0.000 C 
ATOM     12  O   UNL     1      -0.164  10.589  20.868  0.00  0.00    +0.000 OA
ENDROOT
BRANCH   2  13
ATOM     13  C   UNL     1       4.578   5.962  17.038  0.00  0.00    +0.000 A 
ATOM     14  C   UNL     1       4.152   4.684  16.614  0.00  0.00    +0.000 A 
ATOM     15  C   UNL     1       5.035   3.735  16.099  0.00  0.00    +0.000 A 
ATOM     16  C   UNL     1       6.363   4.072  15.910  0.00  0.00    +0.000 A 
ATOM     17  C   UNL     1       6.785   5.370  16.184  0.00  0.00    +0.000 A 
ATOM     18  C   UNL     1       5.909   6.332  16.725  0.00  0.00    +0.000 A 
BRANCH  18  19
ATOM     19  O   UNL     1       6.347   7.605  17.011  0.00  0.00    +0.000 OA
ATOM     20  C   UNL     1       7.651   7.691  17.595  0.00  0.00    +0.000 C 
ENDBRANCH  18  19
ENDBRANCH   2  13
BRANCH   1  21
ATOM     21  C   UNL     1       3.369   5.170  19.848  0.00  0.00    +0.000 C 
ATOM     22  O   UNL     1       4.493   4.837  20.218  0.00  0.00    +0.000 OA
BRANCH  21  24
ATOM     23  C   UNL     1       2.155   3.816  21.347  0.00  0.00    +0.000 C 
ATOM     24  O   UNL     1       2.248   4.420  20.057  0.00  0.00    +0.000 OA
ENDBRANCH  21  24
ENDBRANCH   1  21
TORSDOF 4
ENDMDL
MODEL 9
REMARK VINA RESULT:      -6.8      4.461      7.785
REMARK  Name = 
REMARK  6 active torsions:
REMARK  status: ('A' for Active; 'I' for Inactive)
REMARK    1  A    between atoms: C_1  and  O_2
REMARK    2  A    between atoms: O_2  and  C_3
REMARK    3  A    between atoms: C_3  and  C_5
REMARK    4  A    between atoms: C_6  and  C_7
REMARK    5  A    between atoms: C_12  and  O_13
REMARK    6  A    between atoms: O_13  and  C_14
REMARK                            x       y       z     vdW  Elec       q    Type
REMARK                         _______ _______ _______ _____ _____    ______ ____
ROOT
ATOM      1  C   UNL     1       1.358   8.809  20.337  0.00  0.00    +0.000 A 
ATOM      2  C   UNL     1       1.267   9.653  19.224  0.00  0.00    +0.000 A 
ATOM      3  S   UNL     1       1.842   8.844  17.823  0.00  0.00    +0.000 S 
ATOM      4  C   UNL     1       2.121   7.353  18.644  0.00  0.00    +0.000 A 
ATOM      5  C   UNL     1       2.567   6.129  18.089  0.00  0.00    +0.000 A 
ATOM      6  C   UNL     1       2.716   5.058  18.963  0.00  0.00    +0.000 A 
ATOM      7  C   UNL     1       2.456   5.172  20.295  0.00  0.00    +0.000 A 
ATOM      8  C   UNL     1       2.024   6.349  20.854  0.00  0.00    +0.000 A 
ATOM      9  C   UNL     1       1.843   7.482  20.010  0.00  0.00    +0.000 A 
ATOM     10  O   UNL     1       2.662   4.014  20.981  0.00  0.00    +0.000 OA
ATOM     11  C   UNL     1       3.097   3.151  19.915  0.00  0.00    +0.000 C 
ATOM     12  O   UNL     1       3.115   3.803  18.626  0.00  0.00    +0.000 OA
ENDROOT
BRANCH   2  13
ATOM     13  C   UNL     1       0.810  11.079  19.180  0.00  0.00    +0.000 A 
ATOM     14  C   UNL     1       1.809  12.073  19.266  0.00  0.00    +0.000 A 
ATOM     15  C   UNL     1       1.514  13.407  19.545  0.00  0.00    +0.000 A 
ATOM     16  C   UNL     1       0.193  13.803  19.659  0.00  0.00    +0.000 A 
ATOM     17  C   UNL     1      -0.821  12.876  19.438  0.00  0.00    +0.000 A 
ATOM     18  C   UNL     1      -0.537  11.520  19.176  0.00  0.00    +0.000 A 
BRANCH  18  19
ATOM     19  O   UNL     1      -1.550  10.610  18.982  0.00  0.00    +0.000 OA
ATOM     20  C   UNL     1      -1.954  10.418  17.623  0.00  0.00    +0.000 C 
ENDBRANCH  18  19
ENDBRANCH   2  13
BRANCH   1  21
ATOM     21  C   UNL     1       0.979   9.178  21.698  0.00  0.00    +0.000 C 
ATOM     22  O   UNL     1       1.778   9.424  22.598  0.00  0.00    +0.000 OA
BRANCH  21  24
ATOM     23  C   UNL     1      -0.848  10.055  22.901  0.00  0.00    +0.000 C 
ATOM     24  O   UNL     1      -0.376   9.201  21.859  0.00  0.00    +0.000 OA
ENDBRANCH  21  24
ENDBRANCH   1  21
TORSDOF 4
ENDMDL
