MODEL 1
REMARK VINA RESULT:      -8.1      0.000      0.000
REMARK  Name = 
REMARK  10 active torsions:
REMARK  status: ('A' for Active; 'I' for Inactive)
REMARK    1  A    between atoms: C_1  and  C_2
REMARK    2  A    between atoms: C_3  and  C_4
REMARK    3  A    between atoms: C_5  and  C_6
REMARK    4  A    between atoms: C_6  and  N_7
REMARK    5  A    between atoms: N_7  and  C_8
REMARK    6  A    between atoms: C_14  and  C_15
REMARK    7  A    between atoms: C_16  and  C_17
REMARK    8  A    between atoms: C_18  and  C_19
REMARK    9  A    between atoms: C_19  and  N_20
REMARK   10  A    between atoms: N_20  and  C_21
REMARK                            x       y       z     vdW  Elec       q    Type
REMARK                         _______ _______ _______ _____ _____    ______ ____
ROOT
ATOM      1  C   UNL     1       4.466   3.053  19.554  0.00  0.00    +0.000 C 
ATOM      2  C   UNL     1       3.953   4.440  19.224  0.00  0.00    +0.000 A 
ATOM      3  C   UNL     1       2.929   5.063  19.989  0.00  0.00    +0.000 A 
ATOM      4  C   UNL     1       2.328   4.397  21.213  0.00  0.00    +0.000 C 
ATOM      5  C   UNL     1       2.403   6.331  19.585  0.00  0.00    +0.000 A 
ATOM      6  C   UNL     1       2.938   6.986  18.443  0.00  0.00    +0.000 A 
ATOM      7  C   UNL     1       2.349   8.286  17.937  0.00  0.00    +0.000 C 
ATOM      8  C   UNL     1       4.063   6.431  17.772  0.00  0.00    +0.000 A 
ATOM      9  C   UNL     1       4.741   7.190  16.648  0.00  0.00    +0.000 C 
ATOM     10  C   UNL     1       4.536   5.134  18.124  0.00  0.00    +0.000 A 
ENDROOT
BRANCH   5  11
ATOM     11  C   UNL     1       1.278   6.974  20.405  0.00  0.00    +0.000 C 
BRANCH  11  12
ATOM     12  N   UNL     1       1.818   7.959  21.340  0.00  0.00    +0.000 N 
ATOM     13  H   UNL     1       2.211   7.519  22.170  0.00  0.00    +0.000 HD
BRANCH  12  14
ATOM     14  C   UNL     1       0.990   9.045  21.673  0.00  0.00    +0.000 A 
ATOM     15  C   UNL     1       0.850  10.106  20.768  0.00  0.00    +0.000 A 
ATOM     16  C   UNL     1       0.016  11.195  21.044  0.00  0.00    +0.000 A 
ATOM     17  C   UNL     1      -0.722  11.226  22.223  0.00  0.00    +0.000 A 
ATOM     18  C   UNL     1      -0.647  10.155  23.106  0.00  0.00    +0.000 A 
ATOM     19  C   UNL     1       0.187   9.069  22.822  0.00  0.00    +0.000 A 
ENDBRANCH  12  14
ENDBRANCH  11  12
ENDBRANCH   5  11
BRANCH  10  20
ATOM     20  C   UNL     1       5.661   4.499  17.298  0.00  0.00    +0.000 C 
BRANCH  20  21
ATOM     21  N   UNL     1       5.140   3.896  16.073  0.00  0.00    +0.000 N 
ATOM     22  H   UNL     1       4.875   2.925  16.211  0.00  0.00    +0.000 HD
BRANCH  21  23
ATOM     23  C   UNL     1       5.876   4.071  14.890  0.00  0.00    +0.000 A 
ATOM     24  C   UNL     1       5.403   3.489  13.705  0.00  0.00    +0.000 A 
ATOM     25  C   UNL     1       6.074   3.661  12.488  0.00  0.00    +0.000 A 
ATOM     26  C   UNL     1       7.216   4.453  12.428  0.00  0.00    +0.000 A 
ATOM     27  C   UNL     1       7.669   5.088  13.580  0.00  0.00    +0.000 A 
ATOM     28  C   UNL     1       6.992   4.911  14.794  0.00  0.00    +0.000 A 
ENDBRANCH  21  23
ENDBRANCH  20  21
ENDBRANCH  10  20
TORSDOF 6
ENDMDL
MODEL 2
REMARK VINA RESULT:      -8.1      0.251      9.062
REMARK  Name = 
REMARK  10 active torsions:
REMARK  status: ('A' for Active; 'I' for Inactive)
REMARK    1  A    between atoms: C_1  and  C_2
REMARK    2  A    between atoms: C_3  and  C_4
REMARK    3  A    between atoms: C_5  and  C_6
REMARK    4  A    between atoms: C_6  and  N_7
REMARK    5  A    between atoms: N_7  and  C_8
REMARK    6  A    between atoms: C_14  and  C_15
REMARK    7  A    between atoms: C_16  and  C_17
REMARK    8  A    between atoms: C_18  and  C_19
REMARK    9  A    between atoms: C_19  and  N_20
REMARK   10  A    between atoms: N_20  and  C_21
REMARK                            x       y       z     vdW  Elec       q    Type
REMARK                         _______ _______ _______ _____ _____    ______ ____
ROOT
ATOM      1  C   UNL     1       2.480   8.281  17.922  0.00  0.00    +0.000 C 
ATOM      2  C   UNL     1       3.082   6.966  18.374  0.00  0.00    +0.000 A 
ATOM      3  C   UNL     1       4.203   6.389  17.716  0.00  0.00    +0.000 A 
ATOM      4  C   UNL     1       4.897   7.084  16.559  0.00  0.00    +0.000 C 
ATOM      5  C   UNL     1       4.679   5.098  18.110  0.00  0.00    +0.000 A 
ATOM      6  C   UNL     1       4.055   4.414  19.189  0.00  0.00    +0.000 A 
ATOM      7  C   UNL     1       4.476   3.012  19.576  0.00  0.00    +0.000 C 
ATOM      8  C   UNL     1       3.034   5.060  19.940  0.00  0.00    +0.000 A 
ATOM      9  C   UNL     1       2.465   4.408  21.184  0.00  0.00    +0.000 C 
ATOM     10  C   UNL     1       2.507   6.309  19.501  0.00  0.00    +0.000 A 
ENDROOT
BRANCH   5  11
ATOM     11  C   UNL     1       5.871   4.479  17.371  0.00  0.00    +0.000 C 
BRANCH  11  12
ATOM     12  N   UNL     1       5.415   3.671  16.240  0.00  0.00    +0.000 N 
ATOM     13  H   UNL     1       5.461   2.675  16.443  0.00  0.00    +0.000 HD
BRANCH  12  14
ATOM     14  C   UNL     1       5.962   3.970  14.980  0.00  0.00    +0.000 A 
ATOM     15  C   UNL     1       7.089   4.800  14.898  0.00  0.00    +0.000 A 
ATOM     16  C   UNL     1       7.683   5.103  13.669  0.00  0.00    +0.000 A 
ATOM     17  C   UNL     1       7.178   4.551  12.495  0.00  0.00    +0.000 A 
ATOM     18  C   UNL     1       6.100   3.675  12.560  0.00  0.00    +0.000 A 
ATOM     19  C   UNL     1       5.512   3.375  13.793  0.00  0.00    +0.000 A 
ENDBRANCH  12  14
ENDBRANCH  11  12
ENDBRANCH   5  11
BRANCH  10  20
ATOM     20  C   UNL     1       1.315   6.921  20.247  0.00  0.00    +0.000 C 
BRANCH  20  21
ATOM     21  N   UNL     1       1.761   7.892  21.245  0.00  0.00    +0.000 N 
ATOM     22  H   UNL     1       2.107   7.438  22.086  0.00  0.00    +0.000 HD
BRANCH  21  23
ATOM     23  C   UNL     1       0.905   8.962  21.547  0.00  0.00    +0.000 A 
ATOM     24  C   UNL     1       0.421   9.760  20.499  0.00  0.00    +0.000 A 
ATOM     25  C   UNL     1      -0.465  10.818  20.735  0.00  0.00    +0.000 A 
ATOM     26  C   UNL     1      -0.915  11.075  22.027  0.00  0.00    +0.000 A 
ATOM     27  C   UNL     1      -0.494  10.260  23.072  0.00  0.00    +0.000 A 
ATOM     28  C   UNL     1       0.393   9.202  22.828  0.00  0.00    +0.000 A 
ENDBRANCH  21  23
ENDBRANCH  20  21
ENDBRANCH  10  20
TORSDOF 6
ENDMDL
MODEL 3
REMARK VINA RESULT:      -8.0      0.204      9.080
REMARK  Name = 
REMARK  10 active torsions:
REMARK  status: ('A' for Active; 'I' for Inactive)
REMARK    1  A    between atoms: C_1  and  C_2
REMARK    2  A    between atoms: C_3  and  C_4
REMARK    3  A    between atoms: C_5  and  C_6
REMARK    4  A    between atoms: C_6  and  N_7
REMARK    5  A    between atoms: N_7  and  C_8
REMARK    6  A    between atoms: C_14  and  C_15
REMARK    7  A    between atoms: C_16  and  C_17
REMARK    8  A    between atoms: C_18  and  C_19
REMARK    9  A    between atoms: C_19  and  N_20
REMARK   10  A    between atoms: N_20  and  C_21
REMARK                            x       y       z     vdW  Elec       q    Type
REMARK                         _______ _______ _______ _____ _____    ______ ____
ROOT
ATOM      1  C   UNL     1       2.522   8.275  18.018  0.00  0.00    +0.000 C 
ATOM      2  C   UNL     1       3.101   6.946  18.459  0.00  0.00    +0.000 A 
ATOM      3  C   UNL     1       4.226   6.366  17.810  0.00  0.00    +0.000 A 
ATOM      4  C   UNL     1       4.945   7.070  16.674  0.00  0.00    +0.000 C 
ATOM      5  C   UNL     1       4.680   5.064  18.192  0.00  0.00    +0.000 A 
ATOM      6  C   UNL     1       4.031   4.372  19.250  0.00  0.00    +0.000 A 
ATOM      7  C   UNL     1       4.430   2.958  19.622  0.00  0.00    +0.000 C 
ATOM      8  C   UNL     1       3.007   5.018  19.995  0.00  0.00    +0.000 A 
ATOM      9  C   UNL     1       2.410   4.354  21.220  0.00  0.00    +0.000 C 
ATOM     10  C   UNL     1       2.501   6.280  19.567  0.00  0.00    +0.000 A 
ENDROOT
BRANCH   5  11
ATOM     11  C   UNL     1       5.876   4.441  17.462  0.00  0.00    +0.000 C 
BRANCH  11  12
ATOM     12  N   UNL     1       5.429   3.661  16.309  0.00  0.00    +0.000 N 
ATOM     13  H   UNL     1       5.423   2.663  16.506  0.00  0.00    +0.000 HD
BRANCH  12  14
ATOM     14  C   UNL     1       6.037   3.942  15.073  0.00  0.00    +0.000 A 
ATOM     15  C   UNL     1       5.496   3.397  13.900  0.00  0.00    +0.000 A 
ATOM     16  C   UNL     1       6.050   3.670  12.646  0.00  0.00    +0.000 A 
ATOM     17  C   UNL     1       7.144   4.524  12.538  0.00  0.00    +0.000 A 
ATOM     18  C   UNL     1       7.658   5.125  13.681  0.00  0.00    +0.000 A 
ATOM     19  C   UNL     1       7.097   4.849  14.932  0.00  0.00    +0.000 A 
ENDBRANCH  12  14
ENDBRANCH  11  12
ENDBRANCH   5  11
BRANCH  10  20
ATOM     20  C   UNL     1       1.305   6.894  20.303  0.00  0.00    +0.000 C 
BRANCH  20  21
ATOM     21  N   UNL     1       1.738   7.931  21.238  0.00  0.00    +0.000 N 
ATOM     22  H   UNL     1       2.122   7.534  22.092  0.00  0.00    +0.000 HD
BRANCH  21  23
ATOM     23  C   UNL     1       0.851   8.985  21.508  0.00  0.00    +0.000 A 
ATOM     24  C   UNL     1       0.296   9.093  22.792  0.00  0.00    +0.000 A 
ATOM     25  C   UNL     1      -0.565  10.143  23.130  0.00  0.00    +0.000 A 
ATOM     26  C   UNL     1      -0.859  11.132  22.196  0.00  0.00    +0.000 A 
ATOM     27  C   UNL     1      -0.273  11.076  20.935  0.00  0.00    +0.000 A 
ATOM     28  C   UNL     1       0.588  10.022  20.604  0.00  0.00    +0.000 A 
ENDBRANCH  21  23
ENDBRANCH  20  21
ENDBRANCH  10  20
TORSDOF 6
ENDMDL
MODEL 4
REMARK VINA RESULT:      -8.0      0.167      8.784
REMARK  Name = 
REMARK  10 active torsions:
REMARK  status: ('A' for Active; 'I' for Inactive)
REMARK    1  A    between atoms: C_1  and  C_2
REMARK    2  A    between atoms: C_3  and  C_4
REMARK    3  A    between atoms: C_5  and  C_6
REMARK    4  A    between atoms: C_6  and  N_7
REMARK    5  A    between atoms: N_7  and  C_8
REMARK    6  A    between atoms: C_14  and  C_15
REMARK    7  A    between atoms: C_16  and  C_17
REMARK    8  A    between atoms: C_18  and  C_19
REMARK    9  A    between atoms: C_19  and  N_20
REMARK   10  A    between atoms: N_20  and  C_21
REMARK                            x       y       z     vdW  Elec       q    Type
REMARK                         _______ _______ _______ _____ _____    ______ ____
ROOT
ATOM      1  C   UNL     1       2.290   4.412  21.189  0.00  0.00    +0.000 C 
ATOM      2  C   UNL     1       2.933   5.051  19.975  0.00  0.00    +0.000 A 
ATOM      3  C   UNL     1       3.990   4.417  19.265  0.00  0.00    +0.000 A 
ATOM      4  C   UNL     1       4.498   3.039  19.649  0.00  0.00    +0.000 C 
ATOM      5  C   UNL     1       4.638   5.097  18.185  0.00  0.00    +0.000 A 
ATOM      6  C   UNL     1       4.192   6.390  17.797  0.00  0.00    +0.000 A 
ATOM      7  C   UNL     1       4.909   7.174  16.717  0.00  0.00    +0.000 C 
ATOM      8  C   UNL     1       3.039   6.954  18.409  0.00  0.00    +0.000 A 
ATOM      9  C   UNL     1       2.461   8.261  17.904  0.00  0.00    +0.000 C 
ATOM     10  C   UNL     1       2.443   6.315  19.534  0.00  0.00    +0.000 A 
ENDROOT
BRANCH   5  11
ATOM     11  C   UNL     1       5.795   4.411  17.451  0.00  0.00    +0.000 C 
BRANCH  11  12
ATOM     12  N   UNL     1       5.304   3.669  16.291  0.00  0.00    +0.000 N 
ATOM     13  H   UNL     1       5.292   2.666  16.459  0.00  0.00    +0.000 HD
BRANCH  12  14
ATOM     14  C   UNL     1       5.877   3.978  15.045  0.00  0.00    +0.000 A 
ATOM     15  C   UNL     1       7.004   4.810  14.993  0.00  0.00    +0.000 A 
ATOM     16  C   UNL     1       7.624   5.123  13.779  0.00  0.00    +0.000 A 
ATOM     17  C   UNL     1       7.145   4.581  12.591  0.00  0.00    +0.000 A 
ATOM     18  C   UNL     1       6.067   3.703  12.626  0.00  0.00    +0.000 A 
ATOM     19  C   UNL     1       5.453   3.393  13.843  0.00  0.00    +0.000 A 
ENDBRANCH  12  14
ENDBRANCH  11  12
ENDBRANCH   5  11
BRANCH  10  20
ATOM     20  C   UNL     1       1.286   7.009  20.263  0.00  0.00    +0.000 C 
BRANCH  20  21
ATOM     21  N   UNL     1       1.784   7.982  21.234  0.00  0.00    +0.000 N 
ATOM     22  H   UNL     1       2.180   7.529  22.054  0.00  0.00    +0.000 HD
BRANCH  21  23
ATOM     23  C   UNL     1       0.942   9.048  21.586  0.00  0.00    +0.000 A 
ATOM     24  C   UNL     1       0.661  10.035  20.629  0.00  0.00    +0.000 A 
ATOM     25  C   UNL     1      -0.202  11.101  20.910  0.00  0.00    +0.000 A 
ATOM     26  C   UNL     1      -0.832  11.180  22.148  0.00  0.00    +0.000 A 
ATOM     27  C   UNL     1      -0.614  10.181  23.091  0.00  0.00    +0.000 A 
ATOM     28  C   UNL     1       0.251   9.116  22.803  0.00  0.00    +0.000 A 
ENDBRANCH  21  23
ENDBRANCH  20  21
ENDBRANCH  10  20
TORSDOF 6
ENDMDL
MODEL 5
REMARK VINA RESULT:      -8.0      0.242      2.416
REMARK  Name = 
REMARK  10 active torsions:
REMARK  status: ('A' for Active; 'I' for Inactive)
REMARK    1  A    between atoms: C_1  and  C_2
REMARK    2  A    between atoms: C_3  and  C_4
REMARK    3  A    between atoms: C_5  and  C_6
REMARK    4  A    between atoms: C_6  and  N_7
REMARK    5  A    between atoms: N_7  and  C_8
REMARK    6  A    between atoms: C_14  and  C_15
REMARK    7  A    between atoms: C_16  and  C_17
REMARK    8  A    between atoms: C_18  and  C_19
REMARK    9  A    between atoms: C_19  and  N_20
REMARK   10  A    between atoms: N_20  and  C_21
REMARK                            x       y       z     vdW  Elec       q    Type
REMARK                         _______ _______ _______ _____ _____    ______ ____
ROOT
ATOM      1  C   UNL     1       4.929   7.097  16.576  0.00  0.00    +0.000 C 
ATOM      2  C   UNL     1       4.203   6.398  17.706  0.00  0.00    +0.000 A 
ATOM      3  C   UNL     1       3.076   6.982  18.349  0.00  0.00    +0.000 A 
ATOM      4  C   UNL     1       2.503   8.315  17.903  0.00  0.00    +0.000 C 
ATOM      5  C   UNL     1       2.480   6.335  19.477  0.00  0.00    +0.000 A 
ATOM      6  C   UNL     1       2.989   5.086  19.926  0.00  0.00    +0.000 A 
ATOM      7  C   UNL     1       2.439   4.416  21.168  0.00  0.00    +0.000 C 
ATOM      8  C   UNL     1       4.016   4.434  19.188  0.00  0.00    +0.000 A 
ATOM      9  C   UNL     1       4.464   3.036  19.563  0.00  0.00    +0.000 C 
ATOM     10  C   UNL     1       4.662   5.112  18.114  0.00  0.00    +0.000 A 
ENDROOT
BRANCH   5  11
ATOM     11  C   UNL     1       1.285   6.994  20.176  0.00  0.00    +0.000 C 
BRANCH  11  12
ATOM     12  N   UNL     1       1.737   7.903  21.227  0.00  0.00    +0.000 N 
ATOM     13  H   UNL     1       2.047   7.401  22.056  0.00  0.00    +0.000 HD
BRANCH  12  14
ATOM     14  C   UNL     1       0.886   8.972  21.557  0.00  0.00    +0.000 A 
ATOM     15  C   UNL     1       0.423   9.821  20.543  0.00  0.00    +0.000 A 
ATOM     16  C   UNL     1      -0.447  10.881  20.819  0.00  0.00    +0.000 A 
ATOM     17  C   UNL     1      -0.897  11.093  22.119  0.00  0.00    +0.000 A 
ATOM     18  C   UNL     1      -0.500  10.224  23.130  0.00  0.00    +0.000 A 
ATOM     19  C   UNL     1       0.368   9.166  22.845  0.00  0.00    +0.000 A 
ENDBRANCH  12  14
ENDBRANCH  11  12
ENDBRANCH   5  11
BRANCH  10  20
ATOM     20  C   UNL     1       5.857   4.445  17.421  0.00  0.00    +0.000 C 
BRANCH  20  21
ATOM     21  N   UNL     1       5.423   3.649  16.274  0.00  0.00    +0.000 N 
ATOM     22  H   UNL     1       5.473   2.652  16.465  0.00  0.00    +0.000 HD
BRANCH  21  23
ATOM     23  C   UNL     1       5.959   3.964  15.016  0.00  0.00    +0.000 A 
ATOM     24  C   UNL     1       7.078   4.808  14.947  0.00  0.00    +0.000 A 
ATOM     25  C   UNL     1       7.678   5.127  13.724  0.00  0.00    +0.000 A 
ATOM     26  C   UNL     1       7.191   4.576  12.543  0.00  0.00    +0.000 A 
ATOM     27  C   UNL     1       6.119   3.690  12.594  0.00  0.00    +0.000 A 
ATOM     28  C   UNL     1       5.523   3.375  13.822  0.00  0.00    +0.000 A 
ENDBRANCH  21  23
ENDBRANCH  20  21
ENDBRANCH  10  20
TORSDOF 6
ENDMDL
MODEL 6
REMARK VINA RESULT:      -8.0      0.185      1.338
REMARK  Name = 
REMARK  10 active torsions:
REMARK  status: ('A' for Active; 'I' for Inactive)
REMARK    1  A    between atoms: C_1  and  C_2
REMARK    2  A    between atoms: C_3  and  C_4
REMARK    3  A    between atoms: C_5  and  C_6
REMARK    4  A    between atoms: C_6  and  N_7
REMARK    5  A    between atoms: N_7  and  C_8
REMARK    6  A    between atoms: C_14  and  C_15
REMARK    7  A    between atoms: C_16  and  C_17
REMARK    8  A    between atoms: C_18  and  C_19
REMARK    9  A    between atoms: C_19  and  N_20
REMARK   10  A    between atoms: N_20  and  C_21
REMARK                            x       y       z     vdW  Elec       q    Type
REMARK                         _______ _______ _______ _____ _____    ______ ____
ROOT
ATOM      1  C   UNL     1       4.352   3.001  19.344  0.00  0.00    +0.000 C 
ATOM      2  C   UNL     1       3.858   4.411  19.094  0.00  0.00    +0.000 A 
ATOM      3  C   UNL     1       2.870   5.018  19.919  0.00  0.00    +0.000 A 
ATOM      4  C   UNL     1       2.293   4.307  21.130  0.00  0.00    +0.000 C 
ATOM      5  C   UNL     1       2.358   6.313  19.590  0.00  0.00    +0.000 A 
ATOM      6  C   UNL     1       2.872   7.009  18.463  0.00  0.00    +0.000 A 
ATOM      7  C   UNL     1       2.294   8.343  18.035  0.00  0.00    +0.000 C 
ATOM      8  C   UNL     1       3.964   6.465  17.732  0.00  0.00    +0.000 A 
ATOM      9  C   UNL     1       4.622   7.263  16.624  0.00  0.00    +0.000 C 
ATOM     10  C   UNL     1       4.421   5.144  18.009  0.00  0.00    +0.000 A 
ENDROOT
BRANCH   5  11
ATOM     11  C   UNL     1       1.273   6.938  20.473  0.00  0.00    +0.000 C 
BRANCH  11  12
ATOM     12  N   UNL     1       1.802   8.083  21.211  0.00  0.00    +0.000 N 
ATOM     13  H   UNL     1       2.322   7.795  22.038  0.00  0.00    +0.000 HD
BRANCH  12  14
ATOM     14  C   UNL     1       0.906   9.127  21.501  0.00  0.00    +0.000 A 
ATOM     15  C   UNL     1       0.333   9.208  22.777  0.00  0.00    +0.000 A 
ATOM     16  C   UNL     1      -0.542  10.244  23.119  0.00  0.00    +0.000 A 
ATOM     17  C   UNL     1      -0.837  11.242  22.195  0.00  0.00    +0.000 A 
ATOM     18  C   UNL     1      -0.230  11.216  20.944  0.00  0.00    +0.000 A 
ATOM     19  C   UNL     1       0.646  10.178  20.610  0.00  0.00    +0.000 A 
ENDBRANCH  12  14
ENDBRANCH  11  12
ENDBRANCH   5  11
BRANCH  10  20
ATOM     20  C   UNL     1       5.507   4.527  17.120  0.00  0.00    +0.000 C 
BRANCH  20  21
ATOM     21  N   UNL     1       4.944   4.037  15.864  0.00  0.00    +0.000 N 
ATOM     22  H   UNL     1       4.592   3.088  15.951  0.00  0.00    +0.000 HD
BRANCH  21  23
ATOM     23  C   UNL     1       5.703   4.205  14.695  0.00  0.00    +0.000 A 
ATOM     24  C   UNL     1       6.871   4.979  14.750  0.00  0.00    +0.000 A 
ATOM     25  C   UNL     1       7.688   5.151  13.626  0.00  0.00    +0.000 A 
ATOM     26  C   UNL     1       7.369   4.517  12.429  0.00  0.00    +0.000 A 
ATOM     27  C   UNL     1       6.246   3.697  12.368  0.00  0.00    +0.000 A 
ATOM     28  C   UNL     1       5.434   3.530  13.497  0.00  0.00    +0.000 A 
ENDBRANCH  21  23
ENDBRANCH  20  21
ENDBRANCH  10  20
TORSDOF 6
ENDMDL
MODEL 7
REMARK VINA RESULT:      -7.9      0.131      2.406
REMARK  Name = 
REMARK  10 active torsions:
REMARK  status: ('A' for Active; 'I' for Inactive)
REMARK    1  A    between atoms: C_1  and  C_2
REMARK    2  A    between atoms: C_3  and  C_4
REMARK    3  A    between atoms: C_5  and  C_6
REMARK    4  A    between atoms: C_6  and  N_7
REMARK    5  A    between atoms: N_7  and  C_8
REMARK    6  A    between atoms: C_14  and  C_15
REMARK    7  A    between atoms: C_16  and  C_17
REMARK    8  A    between atoms: C_18  and  C_19
REMARK    9  A    between atoms: C_19  and  N_20
REMARK   10  A    between atoms: N_20  and  C_21
REMARK                            x       y       z     vdW  Elec       q    Type
REMARK                         _______ _______ _______ _____ _____    ______ ____
ROOT
ATOM      1  C   UNL     1       4.736   7.128  16.489  0.00  0.00    +0.000 C 
ATOM      2  C   UNL     1       4.068   6.416  17.648  0.00  0.00    +0.000 A 
ATOM      3  C   UNL     1       2.972   6.989  18.349  0.00  0.00    +0.000 A 
ATOM      4  C   UNL     1       2.373   8.323  17.944  0.00  0.00    +0.000 C 
ATOM      5  C   UNL     1       2.434   6.331  19.500  0.00  0.00    +0.000 A 
ATOM      6  C   UNL     1       2.970   5.081  19.913  0.00  0.00    +0.000 A 
ATOM      7  C   UNL     1       2.483   4.398  21.175  0.00  0.00    +0.000 C 
ATOM      8  C   UNL     1       3.962   4.439  19.120  0.00  0.00    +0.000 A 
ATOM      9  C   UNL     1       4.434   3.040  19.462  0.00  0.00    +0.000 C 
ATOM     10  C   UNL     1       4.552   5.128  18.022  0.00  0.00    +0.000 A 
ENDROOT
BRANCH   5  11
ATOM     11  C   UNL     1       1.272   6.978  20.262  0.00  0.00    +0.000 C 
BRANCH  11  12
ATOM     12  N   UNL     1       1.766   7.980  21.205  0.00  0.00    +0.000 N 
ATOM     13  H   UNL     1       2.160   7.554  22.041  0.00  0.00    +0.000 HD
BRANCH  12  14
ATOM     14  C   UNL     1       0.899   9.040  21.523  0.00  0.00    +0.000 A 
ATOM     15  C   UNL     1       0.342   9.111  22.808  0.00  0.00    +0.000 A 
ATOM     16  C   UNL     1      -0.504  10.161  23.178  0.00  0.00    +0.000 A 
ATOM     17  C   UNL     1      -0.784  11.183  22.276  0.00  0.00    +0.000 A 
ATOM     18  C   UNL     1      -0.192  11.166  21.018  0.00  0.00    +0.000 A 
ATOM     19  C   UNL     1       0.654  10.114  20.655  0.00  0.00    +0.000 A 
ENDBRANCH  12  14
ENDBRANCH  11  12
ENDBRANCH   5  11
BRANCH  10  20
ATOM     20  C   UNL     1       5.714   4.473  17.266  0.00  0.00    +0.000 C 
BRANCH  20  21
ATOM     21  N   UNL     1       5.247   3.823  16.043  0.00  0.00    +0.000 N 
ATOM     22  H   UNL     1       5.057   2.835  16.188  0.00  0.00    +0.000 HD
BRANCH  21  23
ATOM     23  C   UNL     1       5.973   4.045  14.863  0.00  0.00    +0.000 A 
ATOM     24  C   UNL     1       5.527   3.455  13.670  0.00  0.00    +0.000 A 
ATOM     25  C   UNL     1       6.189   3.672  12.456  0.00  0.00    +0.000 A 
ATOM     26  C   UNL     1       7.294   4.515  12.405  0.00  0.00    +0.000 A 
ATOM     27  C   UNL     1       7.718   5.157  13.564  0.00  0.00    +0.000 A 
ATOM     28  C   UNL     1       7.051   4.936  14.776  0.00  0.00    +0.000 A 
ENDBRANCH  21  23
ENDBRANCH  20  21
ENDBRANCH  10  20
TORSDOF 6
ENDMDL
MODEL 8
REMARK VINA RESULT:      -7.7      0.269      8.858
REMARK  Name = 
REMARK  10 active torsions:
REMARK  status: ('A' for Active; 'I' for Inactive)
REMARK    1  A    between atoms: C_1  and  C_2
REMARK    2  A    between atoms: C_3  and  C_4
REMARK    3  A    between atoms: C_5  and  C_6
REMARK    4  A    between atoms: C_6  and  N_7
REMARK    5  A    between atoms: N_7  and  C_8
REMARK    6  A    between atoms: C_14  and  C_15
REMARK    7  A    between atoms: C_16  and  C_17
REMARK    8  A    between atoms: C_18  and  C_19
REMARK    9  A    between atoms: C_19  and  N_20
REMARK   10  A    between atoms: N_20  and  C_21
REMARK                            x       y       z     vdW  Elec       q    Type
REMARK                         _______ _______ _______ _____ _____    ______ ____
ROOT
ATOM      1  C   UNL     1       2.202   4.127  21.009  0.00  0.00    +0.000 C 
ATOM      2  C   UNL     1       2.809   4.819  19.806  0.00  0.00    +0.000 A 
ATOM      3  C   UNL     1       3.803   4.194  19.004  0.00  0.00    +0.000 A 
ATOM      4  C   UNL     1       4.274   2.777  19.274  0.00  0.00    +0.000 C 
ATOM      5  C   UNL     1       4.423   4.918  17.936  0.00  0.00    +0.000 A 
ATOM      6  C   UNL     1       4.011   6.249  17.653  0.00  0.00    +0.000 A 
ATOM      7  C   UNL     1       4.704   7.074  16.589  0.00  0.00    +0.000 C 
ATOM      8  C   UNL     1       2.913   6.814  18.359  0.00  0.00    +0.000 A 
ATOM      9  C   UNL     1       2.363   8.171  17.967  0.00  0.00    +0.000 C 
ATOM     10  C   UNL     1       2.348   6.126  19.471  0.00  0.00    +0.000 A 
ENDROOT
BRANCH   5  11
ATOM     11  C   UNL     1       5.514   4.239  17.101  0.00  0.00    +0.000 C 
BRANCH  11  12
ATOM     12  N   UNL     1       4.996   3.851  15.791  0.00  0.00    +0.000 N 
ATOM     13  H   UNL     1       4.613   2.907  15.798  0.00  0.00    +0.000 HD
BRANCH  12  14
ATOM     14  C   UNL     1       5.836   4.060  14.683  0.00  0.00    +0.000 A 
ATOM     15  C   UNL     1       5.549   3.418  13.471  0.00  0.00    +0.000 A 
ATOM     16  C   UNL     1       6.340   3.617  12.335  0.00  0.00    +0.000 A 
ATOM     17  C   UNL     1       7.421   4.492  12.383  0.00  0.00    +0.000 A 
ATOM     18  C   UNL     1       7.686   5.188  13.558  0.00  0.00    +0.000 A 
ATOM     19  C   UNL     1       6.889   4.985  14.688  0.00  0.00    +0.000 A 
ENDBRANCH  12  14
ENDBRANCH  11  12
ENDBRANCH   5  11
BRANCH  10  20
ATOM     20  C   UNL     1       1.257   6.814  20.301  0.00  0.00    +0.000 C 
BRANCH  20  21
ATOM     21  N   UNL     1       1.816   7.895  21.112  0.00  0.00    +0.000 N 
ATOM     22  H   UNL     1       2.354   7.540  21.897  0.00  0.00    +0.000 HD
BRANCH  21  23
ATOM     23  C   UNL     1       0.957   8.936  21.498  0.00  0.00    +0.000 A 
ATOM     24  C   UNL     1       0.457   8.951  22.809  0.00  0.00    +0.000 A 
ATOM     25  C   UNL     1      -0.372   9.984  23.262  0.00  0.00    +0.000 A 
ATOM     26  C   UNL     1      -0.689  11.045  22.420  0.00  0.00    +0.000 A 
ATOM     27  C   UNL     1      -0.156  11.080  21.135  0.00  0.00    +0.000 A 
ATOM     28  C   UNL     1       0.674  10.043  20.688  0.00  0.00    +0.000 A 
ENDBRANCH  21  23
ENDBRANCH  20  21
ENDBRANCH  10  20
TORSDOF 6
ENDMDL
MODEL 9
REMARK VINA RESULT:      -7.6      1.857      2.694
REMARK  Name = 
REMARK  10 active torsions:
REMARK  status: ('A' for Active; 'I' for Inactive)
REMARK    1  A    between atoms: C_1  and  C_2
REMARK    2  A    between atoms: C_3  and  C_4
REMARK    3  A    between atoms: C_5  and  C_6
REMARK    4  A    between atoms: C_6  and  N_7
REMARK    5  A    between atoms: N_7  and  C_8
REMARK    6  A    between atoms: C_14  and  C_15
REMARK    7  A    between atoms: C_16  and  C_17
REMARK    8  A    between atoms: C_18  and  C_19
REMARK    9  A    between atoms: C_19  and  N_20
REMARK   10  A    between atoms: N_20  and  C_21
REMARK                            x       y       z     vdW  Elec       q    Type
REMARK                         _______ _______ _______ _____ _____    ______ ____
ROOT
ATOM      1  C   UNL     1       3.863   2.580  19.405  0.00  0.00    +0.000 C 
ATOM      2  C   UNL     1       3.444   4.019  19.183  0.00  0.00    +0.000 A 
ATOM      3  C   UNL     1       2.604   4.706  20.103  0.00  0.00    +0.000 A 
ATOM      4  C   UNL     1       2.124   4.056  21.387  0.00  0.00    +0.000 C 
ATOM      5  C   UNL     1       2.150   6.031  19.808  0.00  0.00    +0.000 A 
ATOM      6  C   UNL     1       2.576   6.673  18.613  0.00  0.00    +0.000 A 
ATOM      7  C   UNL     1       2.047   8.039  18.227  0.00  0.00    +0.000 C 
ATOM      8  C   UNL     1       3.535   6.042  17.774  0.00  0.00    +0.000 A 
ATOM      9  C   UNL     1       4.114   6.775  16.580  0.00  0.00    +0.000 C 
ATOM     10  C   UNL     1       3.926   4.695  18.025  0.00  0.00    +0.000 A 
ENDROOT
BRANCH   5  11
ATOM     11  C   UNL     1       1.221   6.745  20.796  0.00  0.00    +0.000 C 
BRANCH  11  12
ATOM     12  N   UNL     1       1.842   7.970  21.296  0.00  0.00    +0.000 N 
ATOM     13  H   UNL     1       2.512   7.780  22.039  0.00  0.00    +0.000 HD
BRANCH  12  14
ATOM     14  C   UNL     1       0.983   9.031  21.632  0.00  0.00    +0.000 A 
ATOM     15  C   UNL     1       0.630   9.967  20.651  0.00  0.00    +0.000 A 
ATOM     16  C   UNL     1      -0.243  11.024  20.932  0.00  0.00    +0.000 A 
ATOM     17  C   UNL     1      -0.808  11.144  22.198  0.00  0.00    +0.000 A 
ATOM     18  C   UNL     1      -0.521  10.190  23.168  0.00  0.00    +0.000 A 
ATOM     19  C   UNL     1       0.351   9.136  22.879  0.00  0.00    +0.000 A 
ENDBRANCH  12  14
ENDBRANCH  11  12
ENDBRANCH   5  11
BRANCH  10  20
ATOM     20  C   UNL     1       4.856   3.989  17.030  0.00  0.00    +0.000 C 
BRANCH  20  21
ATOM     21  N   UNL     1       6.225   3.932  17.538  0.00  0.00    +0.000 N 
ATOM     22  H   UNL     1       6.321   3.257  18.292  0.00  0.00    +0.000 HD
BRANCH  21  23
ATOM     23  C   UNL     1       6.863   5.145  17.841  0.00  0.00    +0.000 A 
ATOM     24  C   UNL     1       7.460   5.301  19.102  0.00  0.00    +0.000 A 
ATOM     25  C   UNL     1       8.143   6.473  19.447  0.00  0.00    +0.000 A 
ATOM     26  C   UNL     1       8.275   7.502  18.520  0.00  0.00    +0.000 A 
ATOM     27  C   UNL     1       7.742   7.344  17.244  0.00  0.00    +0.000 A 
ATOM     28  C   UNL     1       7.059   6.168  16.905  0.00  0.00    +0.000 A 
ENDBRANCH  21  23
ENDBRANCH  20  21
ENDBRANCH  10  20
TORSDOF 6
ENDMDL
