MODEL 1
REMARK VINA RESULT:      -7.6      0.000      0.000
REMARK  Name = 
REMARK  15 active torsions:
REMARK  status: ('A' for Active; 'I' for Inactive)
REMARK    1  A    between atoms: C_2  and  O_3
REMARK    2  A    between atoms: C_2  and  C_4
REMARK    3  A    between atoms: C_4  and  C_5
REMARK    4  A    between atoms: C_5  and  N_6
REMARK    5  A    between atoms: C_7  and  C_9
REMARK    6  A    between atoms: C_9  and  C_10
REMARK    7  A    between atoms: C_9  and  O_17
REMARK    8  A    between atoms: C_10  and  C_11
REMARK    9  A    between atoms: O_17  and  P_18
REMARK   10  A    between atoms: P_18  and  O_20
REMARK   11  A    between atoms: P_18  and  C_21
REMARK   12  A    between atoms: C_21  and  N_22
REMARK   13  A    between atoms: C_23  and  O_25
REMARK   14  A    between atoms: O_25  and  C_26
REMARK   15  A    between atoms: C_26  and  C_27
REMARK                            x       y       z     vdW  Elec       q    Type
REMARK                         _______ _______ _______ _____ _____    ______ ____
ROOT
ATOM      1  C   UNL     1       2.997   5.996  18.235  0.00  0.00    +0.000 C 
ENDROOT
BRANCH   1   3
ATOM      2  N   UNL     1       1.951   7.603  19.857  0.00  0.00    +0.000 N 
ATOM      3  C   UNL     1       2.521   7.424  18.622  0.00  0.00    +0.000 C 
ATOM      4  O   UNL     1       2.703   8.380  17.854  0.00  0.00    +0.000 OA
ATOM      5  H   UNL     1       1.708   6.814  20.448  0.00  0.00    +0.000 HD
BRANCH   2   6
ATOM      6  C   UNL     1       1.382   8.864  20.309  0.00  0.00    +0.000 C 
BRANCH   6   7
ATOM      7  C   UNL     1       0.445   8.722  21.507  0.00  0.00    +0.000 C 
BRANCH   7   9
ATOM      8  O   UNL     1       0.457  11.111  21.928  0.00  0.00    +0.000 OA
ATOM      9  C   UNL     1       0.402   9.967  22.359  0.00  0.00    +0.000 C 
BRANCH   9  10
ATOM     10  O   UNL     1       0.311   9.696  23.679  0.00  0.00    +0.000 OA
ATOM     11  H   UNL     1       1.168   9.656  24.147  0.00  0.00    +0.000 HD
ENDBRANCH   9  10
ENDBRANCH   7   9
ENDBRANCH   6   7
ENDBRANCH   2   6
ENDBRANCH   1   3
BRANCH   1  12
ATOM     12  C   UNL     1       1.846   4.982  18.423  0.00  0.00    +0.000 C 
BRANCH  12  13
ATOM     13  C   UNL     1       2.036   4.013  19.557  0.00  0.00    +0.000 A 
ATOM     14  C   UNL     1       0.960   3.653  20.381  0.00  0.00    +0.000 A 
ATOM     15  C   UNL     1       1.168   2.817  21.478  0.00  0.00    +0.000 A 
ATOM     16  C   UNL     1       2.444   2.329  21.747  0.00  0.00    +0.000 A 
ATOM     17  C   UNL     1       3.507   2.640  20.900  0.00  0.00    +0.000 A 
ATOM     18  C   UNL     1       3.303   3.476  19.806  0.00  0.00    +0.000 A 
ENDBRANCH  12  13
ENDBRANCH   1  12
BRANCH   1  19
ATOM     19  O   UNL     1       3.480   5.974  16.874  0.00  0.00    +0.000 OA
BRANCH  19  20
ATOM     20  P   UNL     1       5.197   5.844  16.707  0.00  0.00    +0.000 P 
ATOM     21  O   UNL     1       4.978   4.704  15.696  0.00  0.00    +0.000 OA
BRANCH  20  22
ATOM     22  O   UNL     1       5.156   7.249  15.858  0.00  0.00    +0.000 OA
ATOM     23  H   UNL     1       4.239   7.409  15.564  0.00  0.00    +0.000 HD
ENDBRANCH  20  22
BRANCH  20  24
ATOM     24  C   UNL     1       7.013   5.706  16.529  0.00  0.00    +0.000 C 
BRANCH  24  25
ATOM     25  N   UNL     1       7.772   6.802  17.116  0.00  0.00    +0.000 N 
ATOM     26  C   UNL     1       8.049   6.867  18.438  0.00  0.00    +0.000 C 
ATOM     27  O   UNL     1       7.762   5.987  19.243  0.00  0.00    +0.000 OA
ATOM     28  H   UNL     1       7.945   7.601  16.514  0.00  0.00    +0.000 HD
BRANCH  26  29
ATOM     29  O   UNL     1       8.678   8.029  18.741  0.00  0.00    +0.000 OA
BRANCH  29  30
ATOM     30  C   UNL     1       8.189   9.200  18.066  0.00  0.00    +0.000 C 
BRANCH  30  31
ATOM     31  C   UNL     1       8.913  10.430  18.561  0.00  0.00    +0.000 A 
ATOM     32  C   UNL     1       9.578  10.427  19.796  0.00  0.00    +0.000 A 
ATOM     33  C   UNL     1      10.267  11.561  20.235  0.00  0.00    +0.000 A 
ATOM     34  C   UNL     1      10.304  12.706  19.442  0.00  0.00    +0.000 A 
ATOM     35  C   UNL     1       9.660  12.717  18.206  0.00  0.00    +0.000 A 
ATOM     36  C   UNL     1       8.972  11.585  17.766  0.00  0.00    +0.000 A 
ENDBRANCH  30  31
ENDBRANCH  29  30
ENDBRANCH  26  29
ENDBRANCH  24  25
ENDBRANCH  20  24
ENDBRANCH  19  20
ENDBRANCH   1  19
TORSDOF 15
ENDMDL
MODEL 2
REMARK VINA RESULT:      -7.5      1.984      2.320
REMARK  Name = 
REMARK  15 active torsions:
REMARK  status: ('A' for Active; 'I' for Inactive)
REMARK    1  A    between atoms: C_2  and  O_3
REMARK    2  A    between atoms: C_2  and  C_4
REMARK    3  A    between atoms: C_4  and  C_5
REMARK    4  A    between atoms: C_5  and  N_6
REMARK    5  A    between atoms: C_7  and  C_9
REMARK    6  A    between atoms: C_9  and  C_10
REMARK    7  A    between atoms: C_9  and  O_17
REMARK    8  A    between atoms: C_10  and  C_11
REMARK    9  A    between atoms: O_17  and  P_18
REMARK   10  A    between atoms: P_18  and  O_20
REMARK   11  A    between atoms: P_18  and  C_21
REMARK   12  A    between atoms: C_21  and  N_22
REMARK   13  A    between atoms: C_23  and  O_25
REMARK   14  A    between atoms: O_25  and  C_26
REMARK   15  A    between atoms: C_26  and  C_27
REMARK                            x       y       z     vdW  Elec       q    Type
REMARK                         _______ _______ _______ _____ _____    ______ ____
ROOT
ATOM      1  C   UNL     1       2.515   6.994  19.335  0.00  0.00    +0.000 C 
ENDROOT
BRANCH   1   3
ATOM      2  N   UNL     1       1.182   9.093  19.687  0.00  0.00    +0.000 N 
ATOM      3  C   UNL     1       1.973   8.362  18.837  0.00  0.00    +0.000 C 
ATOM      4  O   UNL     1       2.295   8.801  17.723  0.00  0.00    +0.000 OA
ATOM      5  H   UNL     1       0.834   8.699  20.556  0.00  0.00    +0.000 HD
BRANCH   2   6
ATOM      6  C   UNL     1       0.537  10.343  19.316  0.00  0.00    +0.000 C 
BRANCH   6   7
ATOM      7  C   UNL     1       1.238  11.584  19.867  0.00  0.00    +0.000 C 
BRANCH   7   9
ATOM      8  O   UNL     1       2.297  13.530  18.879  0.00  0.00    +0.000 OA
ATOM      9  C   UNL     1       1.979  12.351  18.800  0.00  0.00    +0.000 C 
BRANCH   9  10
ATOM     10  O   UNL     1       2.255  11.600  17.710  0.00  0.00    +0.000 OA
ATOM     11  H   UNL     1       2.335  12.105  16.877  0.00  0.00    +0.000 HD
ENDBRANCH   9  10
ENDBRANCH   7   9
ENDBRANCH   6   7
ENDBRANCH   2   6
ENDBRANCH   1   3
BRANCH   1  12
ATOM     12  C   UNL     1       1.564   6.400  20.399  0.00  0.00    +0.000 C 
BRANCH  12  13
ATOM     13  C   UNL     1       1.591   4.901  20.505  0.00  0.00    +0.000 A 
ATOM     14  C   UNL     1       2.342   4.265  21.504  0.00  0.00    +0.000 A 
ATOM     15  C   UNL     1       2.423   2.874  21.540  0.00  0.00    +0.000 A 
ATOM     16  C   UNL     1       1.747   2.113  20.590  0.00  0.00    +0.000 A 
ATOM     17  C   UNL     1       0.955   2.738  19.627  0.00  0.00    +0.000 A 
ATOM     18  C   UNL     1       0.874   4.127  19.587  0.00  0.00    +0.000 A 
ENDBRANCH  12  13
ENDBRANCH   1  12
BRANCH   1  19
ATOM     19  O   UNL     1       2.677   6.080  18.228  0.00  0.00    +0.000 OA
BRANCH  19  20
ATOM     20  P   UNL     1       4.316   5.731  17.799  0.00  0.00    +0.000 P 
ATOM     21  O   UNL     1       4.665   5.694  19.298  0.00  0.00    +0.000 OA
BRANCH  20  22
ATOM     22  O   UNL     1       3.819   4.221  17.386  0.00  0.00    +0.000 OA
ATOM     23  H   UNL     1       3.164   3.918  18.043  0.00  0.00    +0.000 HD
ENDBRANCH  20  22
BRANCH  20  24
ATOM     24  C   UNL     1       6.050   5.363  17.346  0.00  0.00    +0.000 C 
BRANCH  24  25
ATOM     25  N   UNL     1       6.993   6.445  17.597  0.00  0.00    +0.000 N 
ATOM     26  C   UNL     1       7.859   6.426  18.635  0.00  0.00    +0.000 C 
ATOM     27  O   UNL     1       7.986   5.479  19.405  0.00  0.00    +0.000 OA
ATOM     28  H   UNL     1       6.860   7.291  17.053  0.00  0.00    +0.000 HD
BRANCH  26  29
ATOM     29  O   UNL     1       8.553   7.588  18.704  0.00  0.00    +0.000 OA
BRANCH  29  30
ATOM     30  C   UNL     1       8.056   8.663  17.889  0.00  0.00    +0.000 C 
BRANCH  30  31
ATOM     31  C   UNL     1       8.621   9.982  18.362  0.00  0.00    +0.000 A 
ATOM     32  C   UNL     1       9.384  10.060  19.536  0.00  0.00    +0.000 A 
ATOM     33  C   UNL     1       9.925  11.280  19.953  0.00  0.00    +0.000 A 
ATOM     34  C   UNL     1       9.713  12.432  19.198  0.00  0.00    +0.000 A 
ATOM     35  C   UNL     1       8.968  12.365  18.022  0.00  0.00    +0.000 A 
ATOM     36  C   UNL     1       8.429  11.147  17.604  0.00  0.00    +0.000 A 
ENDBRANCH  30  31
ENDBRANCH  29  30
ENDBRANCH  26  29
ENDBRANCH  24  25
ENDBRANCH  20  24
ENDBRANCH  19  20
ENDBRANCH   1  19
TORSDOF 15
ENDMDL
MODEL 3
REMARK VINA RESULT:      -7.3      3.764      6.996
REMARK  Name = 
REMARK  15 active torsions:
REMARK  status: ('A' for Active; 'I' for Inactive)
REMARK    1  A    between atoms: C_2  and  O_3
REMARK    2  A    between atoms: C_2  and  C_4
REMARK    3  A    between atoms: C_4  and  C_5
REMARK    4  A    between atoms: C_5  and  N_6
REMARK    5  A    between atoms: C_7  and  C_9
REMARK    6  A    between atoms: C_9  and  C_10
REMARK    7  A    between atoms: C_9  and  O_17
REMARK    8  A    between atoms: C_10  and  C_11
REMARK    9  A    between atoms: O_17  and  P_18
REMARK   10  A    between atoms: P_18  and  O_20
REMARK   11  A    between atoms: P_18  and  C_21
REMARK   12  A    between atoms: C_21  and  N_22
REMARK   13  A    between atoms: C_23  and  O_25
REMARK   14  A    between atoms: O_25  and  C_26
REMARK   15  A    between atoms: C_26  and  C_27
REMARK                            x       y       z     vdW  Elec       q    Type
REMARK                         _______ _______ _______ _____ _____    ______ ____
ROOT
ATOM      1  C   UNL     1       2.957   6.869  18.203  0.00  0.00    +0.000 C 
ENDROOT
BRANCH   1   3
ATOM      2  N   UNL     1       5.170   5.796  18.714  0.00  0.00    +0.000 N 
ATOM      3  C   UNL     1       4.321   6.279  17.749  0.00  0.00    +0.000 C 
ATOM      4  O   UNL     1       4.607   6.200  16.545  0.00  0.00    +0.000 OA
ATOM      5  H   UNL     1       4.990   5.947  19.701  0.00  0.00    +0.000 HD
BRANCH   2   6
ATOM      6  C   UNL     1       6.510   5.302  18.436  0.00  0.00    +0.000 C 
BRANCH   6   7
ATOM      7  C   UNL     1       7.616   6.303  18.769  0.00  0.00    +0.000 C 
BRANCH   7   9
ATOM      8  O   UNL     1       8.055   8.536  17.927  0.00  0.00    +0.000 OA
ATOM      9  C   UNL     1       7.773   7.365  17.708  0.00  0.00    +0.000 C 
BRANCH   9  10
ATOM     10  O   UNL     1       7.553   6.896  16.460  0.00  0.00    +0.000 OA
ATOM     11  H   UNL     1       8.241   7.134  15.808  0.00  0.00    +0.000 HD
ENDBRANCH   9  10
ENDBRANCH   7   9
ENDBRANCH   6   7
ENDBRANCH   2   6
ENDBRANCH   1   3
BRANCH   1  12
ATOM     12  C   UNL     1       2.595   6.349  19.612  0.00  0.00    +0.000 C 
BRANCH  12  13
ATOM     13  C   UNL     1       2.047   4.949  19.648  0.00  0.00    +0.000 A 
ATOM     14  C   UNL     1       1.652   4.303  18.467  0.00  0.00    +0.000 A 
ATOM     15  C   UNL     1       1.070   3.037  18.523  0.00  0.00    +0.000 A 
ATOM     16  C   UNL     1       0.894   2.407  19.753  0.00  0.00    +0.000 A 
ATOM     17  C   UNL     1       1.335   3.021  20.924  0.00  0.00    +0.000 A 
ATOM     18  C   UNL     1       1.913   4.286  20.872  0.00  0.00    +0.000 A 
ENDBRANCH  12  13
ENDBRANCH   1  12
BRANCH   1  19
ATOM     19  O   UNL     1       2.999   8.313  18.186  0.00  0.00    +0.000 OA
BRANCH  19  20
ATOM     20  P   UNL     1       1.456   9.089  18.087  0.00  0.00    +0.000 P 
ATOM     21  O   UNL     1       1.513   9.321  19.608  0.00  0.00    +0.000 OA
BRANCH  20  22
ATOM     22  O   UNL     1       2.215  10.363  17.381  0.00  0.00    +0.000 OA
ATOM     23  H   UNL     1       1.546  11.030  17.138  0.00  0.00    +0.000 HD
ENDBRANCH  20  22
BRANCH  20  24
ATOM     24  C   UNL     1      -0.176   9.911  17.983  0.00  0.00    +0.000 C 
BRANCH  24  25
ATOM     25  N   UNL     1      -0.132  11.367  18.018  0.00  0.00    +0.000 N 
ATOM     26  C   UNL     1      -0.778  12.090  18.962  0.00  0.00    +0.000 C 
ATOM     27  O   UNL     1      -1.387  11.597  19.906  0.00  0.00    +0.000 OA
ATOM     28  H   UNL     1       0.272  11.824  17.207  0.00  0.00    +0.000 HD
BRANCH  26  29
ATOM     29  O   UNL     1      -0.660  13.418  18.714  0.00  0.00    +0.000 OA
BRANCH  29  30
ATOM     30  C   UNL     1       0.156  14.157  19.637  0.00  0.00    +0.000 C 
BRANCH  30  31
ATOM     31  C   UNL     1       1.292  14.833  18.906  0.00  0.00    +0.000 A 
ATOM     32  C   UNL     1       1.261  16.210  18.642  0.00  0.00    +0.000 A 
ATOM     33  C   UNL     1       2.327  16.832  17.987  0.00  0.00    +0.000 A 
ATOM     34  C   UNL     1       3.437  16.087  17.594  0.00  0.00    +0.000 A 
ATOM     35  C   UNL     1       3.486  14.720  17.864  0.00  0.00    +0.000 A 
ATOM     36  C   UNL     1       2.422  14.098  18.519  0.00  0.00    +0.000 A 
ENDBRANCH  30  31
ENDBRANCH  29  30
ENDBRANCH  26  29
ENDBRANCH  24  25
ENDBRANCH  20  24
ENDBRANCH  19  20
ENDBRANCH   1  19
TORSDOF 15
ENDMDL
MODEL 4
REMARK VINA RESULT:      -7.3      1.675      2.268
REMARK  Name = 
REMARK  15 active torsions:
REMARK  status: ('A' for Active; 'I' for Inactive)
REMARK    1  A    between atoms: C_2  and  O_3
REMARK    2  A    between atoms: C_2  and  C_4
REMARK    3  A    between atoms: C_4  and  C_5
REMARK    4  A    between atoms: C_5  and  N_6
REMARK    5  A    between atoms: C_7  and  C_9
REMARK    6  A    between atoms: C_9  and  C_10
REMARK    7  A    between atoms: C_9  and  O_17
REMARK    8  A    between atoms: C_10  and  C_11
REMARK    9  A    between atoms: O_17  and  P_18
REMARK   10  A    between atoms: P_18  and  O_20
REMARK   11  A    between atoms: P_18  and  C_21
REMARK   12  A    between atoms: C_21  and  N_22
REMARK   13  A    between atoms: C_23  and  O_25
REMARK   14  A    between atoms: O_25  and  C_26
REMARK   15  A    between atoms: C_26  and  C_27
REMARK                            x       y       z     vdW  Elec       q    Type
REMARK                         _______ _______ _______ _____ _____    ______ ____
ROOT
ATOM      1  C   UNL     1       2.991   6.863  18.421  0.00  0.00    +0.000 C 
ENDROOT
BRANCH   1   3
ATOM      2  N   UNL     1       1.672   8.765  19.395  0.00  0.00    +0.000 N 
ATOM      3  C   UNL     1       2.301   8.249  18.290  0.00  0.00    +0.000 C 
ATOM      4  O   UNL     1       2.365   8.890  17.230  0.00  0.00    +0.000 OA
ATOM      5  H   UNL     1       1.529   8.207  20.231  0.00  0.00    +0.000 HD
BRANCH   2   6
ATOM      6  C   UNL     1       0.912  10.005  19.386  0.00  0.00    +0.000 C 
BRANCH   6   7
ATOM      7  C   UNL     1      -0.469   9.876  18.745  0.00  0.00    +0.000 C 
BRANCH   7   9
ATOM      8  O   UNL     1      -1.893  11.384  17.486  0.00  0.00    +0.000 OA
ATOM      9  C   UNL     1      -1.056  11.213  18.363  0.00  0.00    +0.000 C 
BRANCH   9  10
ATOM     10  O   UNL     1      -0.549  12.234  19.088  0.00  0.00    +0.000 OA
ATOM     11  H   UNL     1       0.391  12.130  19.336  0.00  0.00    +0.000 HD
ENDBRANCH   9  10
ENDBRANCH   7   9
ENDBRANCH   6   7
ENDBRANCH   2   6
ENDBRANCH   1   3
BRANCH   1  12
ATOM     12  C   UNL     1       2.038   5.855  19.103  0.00  0.00    +0.000 C 
BRANCH  12  13
ATOM     13  C   UNL     1       2.440   4.413  18.965  0.00  0.00    +0.000 A 
ATOM     14  C   UNL     1       3.487   3.884  19.733  0.00  0.00    +0.000 A 
ATOM     15  C   UNL     1       3.903   2.567  19.537  0.00  0.00    +0.000 A 
ATOM     16  C   UNL     1       3.268   1.773  18.586  0.00  0.00    +0.000 A 
ATOM     17  C   UNL     1       2.190   2.276  17.858  0.00  0.00    +0.000 A 
ATOM     18  C   UNL     1       1.775   3.591  18.050  0.00  0.00    +0.000 A 
ENDBRANCH  12  13
ENDBRANCH   1  12
BRANCH   1  19
ATOM     19  O   UNL     1       3.404   6.378  17.124  0.00  0.00    +0.000 OA
BRANCH  19  20
ATOM     20  P   UNL     1       5.114   6.336  16.867  0.00  0.00    +0.000 P 
ATOM     21  O   UNL     1       5.010   4.816  16.648  0.00  0.00    +0.000 OA
BRANCH  20  22
ATOM     22  O   UNL     1       4.848   7.047  15.411  0.00  0.00    +0.000 OA
ATOM     23  H   UNL     1       5.251   6.495  14.715  0.00  0.00    +0.000 HD
ENDBRANCH  20  22
BRANCH  20  24
ATOM     24  C   UNL     1       6.923   6.291  16.594  0.00  0.00    +0.000 C 
BRANCH  24  25
ATOM     25  N   UNL     1       7.668   7.365  17.239  0.00  0.00    +0.000 N 
ATOM     26  C   UNL     1       8.142   7.263  18.501  0.00  0.00    +0.000 C 
ATOM     27  O   UNL     1       8.062   6.248  19.184  0.00  0.00    +0.000 OA
ATOM     28  H   UNL     1       7.675   8.258  16.756  0.00  0.00    +0.000 HD
BRANCH  26  29
ATOM     29  O   UNL     1       8.708   8.430  18.897  0.00  0.00    +0.000 OA
BRANCH  29  30
ATOM     30  C   UNL     1       8.476   9.561  18.041  0.00  0.00    +0.000 C 
BRANCH  30  31
ATOM     31  C   UNL     1       9.210  10.773  18.565  0.00  0.00    +0.000 A 
ATOM     32  C   UNL     1       9.184  11.989  17.866  0.00  0.00    +0.000 A 
ATOM     33  C   UNL     1       9.846  13.112  18.370  0.00  0.00    +0.000 A 
ATOM     34  C   UNL     1      10.535  13.034  19.578  0.00  0.00    +0.000 A 
ATOM     35  C   UNL     1      10.556  11.835  20.289  0.00  0.00    +0.000 A 
ATOM     36  C   UNL     1       9.895  10.713  19.788  0.00  0.00    +0.000 A 
ENDBRANCH  30  31
ENDBRANCH  29  30
ENDBRANCH  26  29
ENDBRANCH  24  25
ENDBRANCH  20  24
ENDBRANCH  19  20
ENDBRANCH   1  19
TORSDOF 15
ENDMDL
MODEL 5
REMARK VINA RESULT:      -7.3      2.473      4.283
REMARK  Name = 
REMARK  15 active torsions:
REMARK  status: ('A' for Active; 'I' for Inactive)
REMARK    1  A    between atoms: C_2  and  O_3
REMARK    2  A    between atoms: C_2  and  C_4
REMARK    3  A    between atoms: C_4  and  C_5
REMARK    4  A    between atoms: C_5  and  N_6
REMARK    5  A    between atoms: C_7  and  C_9
REMARK    6  A    between atoms: C_9  and  C_10
REMARK    7  A    between atoms: C_9  and  O_17
REMARK    8  A    between atoms: C_10  and  C_11
REMARK    9  A    between atoms: O_17  and  P_18
REMARK   10  A    between atoms: P_18  and  O_20
REMARK   11  A    between atoms: P_18  and  C_21
REMARK   12  A    between atoms: C_21  and  N_22
REMARK   13  A    between atoms: C_23  and  O_25
REMARK   14  A    between atoms: O_25  and  C_26
REMARK   15  A    between atoms: C_26  and  C_27
REMARK                            x       y       z     vdW  Elec       q    Type
REMARK                         _______ _______ _______ _____ _____    ______ ____
ROOT
ATOM      1  C   UNL     1       3.894   5.459  17.362  0.00  0.00    +0.000 C 
ENDROOT
BRANCH   1   3
ATOM      2  N   UNL     1       3.469   3.424  18.772  0.00  0.00    +0.000 N 
ATOM      3  C   UNL     1       2.951   4.346  17.896  0.00  0.00    +0.000 C 
ATOM      4  O   UNL     1       1.752   4.326  17.579  0.00  0.00    +0.000 OA
ATOM      5  H   UNL     1       4.466   3.373  18.957  0.00  0.00    +0.000 HD
BRANCH   2   6
ATOM      6  C   UNL     1       2.725   2.281  19.276  0.00  0.00    +0.000 C 
BRANCH   6   7
ATOM      7  C   UNL     1       2.616   2.240  20.799  0.00  0.00    +0.000 C 
BRANCH   7   9
ATOM      8  O   UNL     1       1.124   4.152  20.873  0.00  0.00    +0.000 OA
ATOM      9  C   UNL     1       1.464   3.064  21.320  0.00  0.00    +0.000 C 
BRANCH   9  10
ATOM     10  O   UNL     1       0.833   2.482  22.364  0.00  0.00    +0.000 OA
ATOM     11  H   UNL     1       0.556   1.557  22.208  0.00  0.00    +0.000 HD
ENDBRANCH   9  10
ENDBRANCH   7   9
ENDBRANCH   6   7
ENDBRANCH   2   6
ENDBRANCH   1   3
BRANCH   1  12
ATOM     12  C   UNL     1       4.144   6.517  18.460  0.00  0.00    +0.000 C 
BRANCH  12  13
ATOM     13  C   UNL     1       3.034   7.516  18.641  0.00  0.00    +0.000 A 
ATOM     14  C   UNL     1       2.270   7.535  19.816  0.00  0.00    +0.000 A 
ATOM     15  C   UNL     1       1.192   8.411  19.937  0.00  0.00    +0.000 A 
ATOM     16  C   UNL     1       0.882   9.278  18.892  0.00  0.00    +0.000 A 
ATOM     17  C   UNL     1       1.671   9.302  17.743  0.00  0.00    +0.000 A 
ATOM     18  C   UNL     1       2.746   8.426  17.618  0.00  0.00    +0.000 A 
ENDBRANCH  12  13
ENDBRANCH   1  12
BRANCH   1  19
ATOM     19  O   UNL     1       5.141   4.892  16.905  0.00  0.00    +0.000 OA
BRANCH  19  20
ATOM     20  P   UNL     1       6.544   5.409  17.776  0.00  0.00    +0.000 P 
ATOM     21  O   UNL     1       6.409   4.162  18.668  0.00  0.00    +0.000 OA
BRANCH  20  22
ATOM     22  O   UNL     1       7.437   4.967  16.471  0.00  0.00    +0.000 OA
ATOM     23  H   UNL     1       7.910   4.141  16.682  0.00  0.00    +0.000 HD
ENDBRANCH  20  22
BRANCH  20  24
ATOM     24  C   UNL     1       8.028   5.955  18.697  0.00  0.00    +0.000 C 
BRANCH  24  25
ATOM     25  N   UNL     1       8.194   7.400  18.792  0.00  0.00    +0.000 N 
ATOM     26  C   UNL     1       7.807   8.240  17.806  0.00  0.00    +0.000 C 
ATOM     27  O   UNL     1       7.220   7.882  16.790  0.00  0.00    +0.000 OA
ATOM     28  H   UNL     1       8.762   7.737  19.562  0.00  0.00    +0.000 HD
BRANCH  26  29
ATOM     29  O   UNL     1       8.161   9.517  18.096  0.00  0.00    +0.000 OA
BRANCH  29  30
ATOM     30  C   UNL     1       9.251   9.670  19.021  0.00  0.00    +0.000 C 
BRANCH  30  31
ATOM     31  C   UNL     1       9.798  11.076  18.957  0.00  0.00    +0.000 A 
ATOM     32  C   UNL     1       9.395  12.048  19.885  0.00  0.00    +0.000 A 
ATOM     33  C   UNL     1       9.925  13.341  19.835  0.00  0.00    +0.000 A 
ATOM     34  C   UNL     1      10.865  13.673  18.862  0.00  0.00    +0.000 A 
ATOM     35  C   UNL     1      11.284  12.712  17.944  0.00  0.00    +0.000 A 
ATOM     36  C   UNL     1      10.756  11.421  17.993  0.00  0.00    +0.000 A 
ENDBRANCH  30  31
ENDBRANCH  29  30
ENDBRANCH  26  29
ENDBRANCH  24  25
ENDBRANCH  20  24
ENDBRANCH  19  20
ENDBRANCH   1  19
TORSDOF 15
ENDMDL
MODEL 6
REMARK VINA RESULT:      -7.3      2.507      4.594
REMARK  Name = 
REMARK  15 active torsions:
REMARK  status: ('A' for Active; 'I' for Inactive)
REMARK    1  A    between atoms: C_2  and  O_3
REMARK    2  A    between atoms: C_2  and  C_4
REMARK    3  A    between atoms: C_4  and  C_5
REMARK    4  A    between atoms: C_5  and  N_6
REMARK    5  A    between atoms: C_7  and  C_9
REMARK    6  A    between atoms: C_9  and  C_10
REMARK    7  A    between atoms: C_9  and  O_17
REMARK    8  A    between atoms: C_10  and  C_11
REMARK    9  A    between atoms: O_17  and  P_18
REMARK   10  A    between atoms: P_18  and  O_20
REMARK   11  A    between atoms: P_18  and  C_21
REMARK   12  A    between atoms: C_21  and  N_22
REMARK   13  A    between atoms: C_23  and  O_25
REMARK   14  A    between atoms: O_25  and  C_26
REMARK   15  A    between atoms: C_26  and  C_27
REMARK                            x       y       z     vdW  Elec       q    Type
REMARK                         _______ _______ _______ _____ _____    ______ ____
ROOT
ATOM      1  C   UNL     1       3.514   5.563  18.498  0.00  0.00    +0.000 C 
ENDROOT
BRANCH   1   3
ATOM      2  N   UNL     1       1.570   4.037  18.943  0.00  0.00    +0.000 N 
ATOM      3  C   UNL     1       2.636   4.334  18.133  0.00  0.00    +0.000 C 
ATOM      4  O   UNL     1       2.866   3.676  17.107  0.00  0.00    +0.000 OA
ATOM      5  H   UNL     1       1.435   4.506  19.833  0.00  0.00    +0.000 HD
BRANCH   2   6
ATOM      6  C   UNL     1       0.724   2.866  18.769  0.00  0.00    +0.000 C 
BRANCH   6   7
ATOM      7  C   UNL     1       0.748   1.907  19.958  0.00  0.00    +0.000 C 
BRANCH   7   9
ATOM      8  O   UNL     1       1.414   2.728  22.142  0.00  0.00    +0.000 OA
ATOM      9  C   UNL     1       1.726   2.334  21.026  0.00  0.00    +0.000 C 
BRANCH   9  10
ATOM     10  O   UNL     1       3.012   2.254  20.620  0.00  0.00    +0.000 OA
ATOM     11  H   UNL     1       3.134   2.237  19.650  0.00  0.00    +0.000 HD
ENDBRANCH   9  10
ENDBRANCH   7   9
ENDBRANCH   6   7
ENDBRANCH   2   6
ENDBRANCH   1   3
BRANCH   1  12
ATOM     12  C   UNL     1       2.896   6.323  19.693  0.00  0.00    +0.000 C 
BRANCH  12  13
ATOM     13  C   UNL     1       2.209   7.612  19.335  0.00  0.00    +0.000 A 
ATOM     14  C   UNL     1       2.324   8.152  18.047  0.00  0.00    +0.000 A 
ATOM     15  C   UNL     1       1.751   9.389  17.753  0.00  0.00    +0.000 A 
ATOM     16  C   UNL     1       1.051  10.082  18.737  0.00  0.00    +0.000 A 
ATOM     17  C   UNL     1       0.887   9.524  20.005  0.00  0.00    +0.000 A 
ATOM     18  C   UNL     1       1.460   8.291  20.302  0.00  0.00    +0.000 A 
ENDBRANCH  12  13
ENDBRANCH   1  12
BRANCH   1  19
ATOM     19  O   UNL     1       4.865   5.150  18.799  0.00  0.00    +0.000 OA
BRANCH  19  20
ATOM     20  P   UNL     1       6.087   5.849  17.793  0.00  0.00    +0.000 P 
ATOM     21  O   UNL     1       7.075   4.788  18.313  0.00  0.00    +0.000 OA
BRANCH  20  22
ATOM     22  O   UNL     1       5.313   5.189  16.504  0.00  0.00    +0.000 OA
ATOM     23  H   UNL     1       4.574   4.642  16.831  0.00  0.00    +0.000 HD
ENDBRANCH  20  22
BRANCH  20  24
ATOM     24  C   UNL     1       7.381   6.587  16.730  0.00  0.00    +0.000 C 
BRANCH  24  25
ATOM     25  N   UNL     1       7.666   7.991  16.996  0.00  0.00    +0.000 N 
ATOM     26  C   UNL     1       8.259   8.406  18.139  0.00  0.00    +0.000 C 
ATOM     27  O   UNL     1       8.676   7.649  19.010  0.00  0.00    +0.000 OA
ATOM     28  H   UNL     1       7.253   8.662  16.357  0.00  0.00    +0.000 HD
BRANCH  26  29
ATOM     29  O   UNL     1       8.321   9.760  18.184  0.00  0.00    +0.000 OA
BRANCH  29  30
ATOM     30  C   UNL     1       9.337  10.313  19.037  0.00  0.00    +0.000 C 
BRANCH  30  31
ATOM     31  C   UNL     1       9.943  11.541  18.401  0.00  0.00    +0.000 A 
ATOM     32  C   UNL     1       9.154  12.660  18.097  0.00  0.00    +0.000 A 
ATOM     33  C   UNL     1       9.727  13.802  17.531  0.00  0.00    +0.000 A 
ATOM     34  C   UNL     1      11.095  13.840  17.269  0.00  0.00    +0.000 A 
ATOM     35  C   UNL     1      11.893  12.740  17.580  0.00  0.00    +0.000 A 
ATOM     36  C   UNL     1      11.322  11.599  18.145  0.00  0.00    +0.000 A 
ENDBRANCH  30  31
ENDBRANCH  29  30
ENDBRANCH  26  29
ENDBRANCH  24  25
ENDBRANCH  20  24
ENDBRANCH  19  20
ENDBRANCH   1  19
TORSDOF 15
ENDMDL
MODEL 7
REMARK VINA RESULT:      -7.2      2.901      5.358
REMARK  Name = 
REMARK  15 active torsions:
REMARK  status: ('A' for Active; 'I' for Inactive)
REMARK    1  A    between atoms: C_2  and  O_3
REMARK    2  A    between atoms: C_2  and  C_4
REMARK    3  A    between atoms: C_4  and  C_5
REMARK    4  A    between atoms: C_5  and  N_6
REMARK    5  A    between atoms: C_7  and  C_9
REMARK    6  A    between atoms: C_9  and  C_10
REMARK    7  A    between atoms: C_9  and  O_17
REMARK    8  A    between atoms: C_10  and  C_11
REMARK    9  A    between atoms: O_17  and  P_18
REMARK   10  A    between atoms: P_18  and  O_20
REMARK   11  A    between atoms: P_18  and  C_21
REMARK   12  A    between atoms: C_21  and  N_22
REMARK   13  A    between atoms: C_23  and  O_25
REMARK   14  A    between atoms: O_25  and  C_26
REMARK   15  A    between atoms: C_26  and  C_27
REMARK                            x       y       z     vdW  Elec       q    Type
REMARK                         _______ _______ _______ _____ _____    ______ ____
ROOT
ATOM      1  C   UNL     1       4.826   4.608  16.342  0.00  0.00    +0.000 C 
ENDROOT
BRANCH   1   3
ATOM      2  N   UNL     1       3.219   4.668  18.271  0.00  0.00    +0.000 N 
ATOM      3  C   UNL     1       3.906   5.385  17.324  0.00  0.00    +0.000 C 
ATOM      4  O   UNL     1       3.839   6.622  17.282  0.00  0.00    +0.000 OA
ATOM      5  H   UNL     1       3.190   3.654  18.249  0.00  0.00    +0.000 HD
BRANCH   2   6
ATOM      6  C   UNL     1       2.258   5.258  19.190  0.00  0.00    +0.000 C 
BRANCH   6   7
ATOM      7  C   UNL     1       1.438   4.229  19.967  0.00  0.00    +0.000 C 
BRANCH   7   9
ATOM      8  O   UNL     1       2.294   1.975  19.694  0.00  0.00    +0.000 OA
ATOM      9  C   UNL     1       1.509   2.851  19.356  0.00  0.00    +0.000 C 
BRANCH   9  10
ATOM     10  O   UNL     1       0.612   2.672  18.361  0.00  0.00    +0.000 OA
ATOM     11  H   UNL     1       0.143   3.485  18.084  0.00  0.00    +0.000 HD
ENDBRANCH   9  10
ENDBRANCH   7   9
ENDBRANCH   6   7
ENDBRANCH   2   6
ENDBRANCH   1   3
BRANCH   1  12
ATOM     12  C   UNL     1       5.466   5.582  15.328  0.00  0.00    +0.000 C 
BRANCH  12  13
ATOM     13  C   UNL     1       6.071   4.927  14.117  0.00  0.00    +0.000 A 
ATOM     14  C   UNL     1       7.291   5.377  13.593  0.00  0.00    +0.000 A 
ATOM     15  C   UNL     1       7.799   4.814  12.423  0.00  0.00    +0.000 A 
ATOM     16  C   UNL     1       7.101   3.795  11.781  0.00  0.00    +0.000 A 
ATOM     17  C   UNL     1       5.915   3.306  12.328  0.00  0.00    +0.000 A 
ATOM     18  C   UNL     1       5.403   3.868  13.495  0.00  0.00    +0.000 A 
ENDBRANCH  12  13
ENDBRANCH   1  12
BRANCH   1  19
ATOM     19  O   UNL     1       5.844   3.883  17.068  0.00  0.00    +0.000 OA
BRANCH  19  20
ATOM     20  P   UNL     1       6.733   4.821  18.218  0.00  0.00    +0.000 P 
ATOM     21  O   UNL     1       6.044   4.029  19.345  0.00  0.00    +0.000 OA
BRANCH  20  22
ATOM     22  O   UNL     1       8.068   3.970  17.784  0.00  0.00    +0.000 OA
ATOM     23  H   UNL     1       7.791   3.216  17.231  0.00  0.00    +0.000 HD
ENDBRANCH  20  22
BRANCH  20  24
ATOM     24  C   UNL     1       7.672   5.813  19.436  0.00  0.00    +0.000 C 
BRANCH  24  25
ATOM     25  N   UNL     1       8.346   6.981  18.886  0.00  0.00    +0.000 N 
ATOM     26  C   UNL     1       7.741   7.828  18.023  0.00  0.00    +0.000 C 
ATOM     27  O   UNL     1       6.565   7.740  17.686  0.00  0.00    +0.000 OA
ATOM     28  H   UNL     1       9.345   7.043  19.054  0.00  0.00    +0.000 HD
BRANCH  26  29
ATOM     29  O   UNL     1       8.611   8.772  17.586  0.00  0.00    +0.000 OA
BRANCH  29  30
ATOM     30  C   UNL     1       8.127  10.126  17.603  0.00  0.00    +0.000 C 
BRANCH  30  31
ATOM     31  C   UNL     1       9.103  11.021  18.329  0.00  0.00    +0.000 A 
ATOM     32  C   UNL     1       9.702  10.611  19.529  0.00  0.00    +0.000 A 
ATOM     33  C   UNL     1      10.623  11.435  20.182  0.00  0.00    +0.000 A 
ATOM     34  C   UNL     1      10.958  12.674  19.640  0.00  0.00    +0.000 A 
ATOM     35  C   UNL     1      10.380  13.087  18.441  0.00  0.00    +0.000 A 
ATOM     36  C   UNL     1       9.461  12.265  17.788  0.00  0.00    +0.000 A 
ENDBRANCH  30  31
ENDBRANCH  29  30
ENDBRANCH  26  29
ENDBRANCH  24  25
ENDBRANCH  20  24
ENDBRANCH  19  20
ENDBRANCH   1  19
TORSDOF 15
ENDMDL
MODEL 8
REMARK VINA RESULT:      -7.2      3.546      6.784
REMARK  Name = 
REMARK  15 active torsions:
REMARK  status: ('A' for Active; 'I' for Inactive)
REMARK    1  A    between atoms: C_2  and  O_3
REMARK    2  A    between atoms: C_2  and  C_4
REMARK    3  A    between atoms: C_4  and  C_5
REMARK    4  A    between atoms: C_5  and  N_6
REMARK    5  A    between atoms: C_7  and  C_9
REMARK    6  A    between atoms: C_9  and  C_10
REMARK    7  A    between atoms: C_9  and  O_17
REMARK    8  A    between atoms: C_10  and  C_11
REMARK    9  A    between atoms: O_17  and  P_18
REMARK   10  A    between atoms: P_18  and  O_20
REMARK   11  A    between atoms: P_18  and  C_21
REMARK   12  A    between atoms: C_21  and  N_22
REMARK   13  A    between atoms: C_23  and  O_25
REMARK   14  A    between atoms: O_25  and  C_26
REMARK   15  A    between atoms: C_26  and  C_27
REMARK                            x       y       z     vdW  Elec       q    Type
REMARK                         _______ _______ _______ _____ _____    ______ ____
ROOT
ATOM      1  C   UNL     1       3.476   6.818  17.574  0.00  0.00    +0.000 C 
ENDROOT
BRANCH   1   3
ATOM      2  N   UNL     1       5.326   5.138  17.325  0.00  0.00    +0.000 N 
ATOM      3  C   UNL     1       4.727   6.271  16.834  0.00  0.00    +0.000 C 
ATOM      4  O   UNL     1       5.137   6.815  15.797  0.00  0.00    +0.000 OA
ATOM      5  H   UNL     1       5.061   4.746  18.223  0.00  0.00    +0.000 HD
BRANCH   2   6
ATOM      6  C   UNL     1       6.553   4.573  16.784  0.00  0.00    +0.000 C 
BRANCH   6   7
ATOM      7  C   UNL     1       7.739   4.644  17.745  0.00  0.00    +0.000 C 
BRANCH   7   9
ATOM      8  O   UNL     1       7.970   6.931  18.519  0.00  0.00    +0.000 OA
ATOM      9  C   UNL     1       7.617   5.779  18.732  0.00  0.00    +0.000 C 
BRANCH   9  10
ATOM     10  O   UNL     1       7.083   5.393  19.912  0.00  0.00    +0.000 OA
ATOM     11  H   UNL     1       7.408   4.532  20.244  0.00  0.00    +0.000 HD
ENDBRANCH   9  10
ENDBRANCH   7   9
ENDBRANCH   6   7
ENDBRANCH   2   6
ENDBRANCH   1   3
BRANCH   1  12
ATOM     12  C   UNL     1       3.469   6.330  19.040  0.00  0.00    +0.000 C 
BRANCH  12  13
ATOM     13  C   UNL     1       2.510   5.209  19.329  0.00  0.00    +0.000 A 
ATOM     14  C   UNL     1       2.196   4.855  20.649  0.00  0.00    +0.000 A 
ATOM     15  C   UNL     1       1.369   3.762  20.903  0.00  0.00    +0.000 A 
ATOM     16  C   UNL     1       0.843   3.028  19.843  0.00  0.00    +0.000 A 
ATOM     17  C   UNL     1       1.106   3.409  18.528  0.00  0.00    +0.000 A 
ATOM     18  C   UNL     1       1.934   4.498  18.271  0.00  0.00    +0.000 A 
ENDBRANCH  12  13
ENDBRANCH   1  12
BRANCH   1  19
ATOM     19  O   UNL     1       3.443   8.261  17.515  0.00  0.00    +0.000 OA
BRANCH  19  20
ATOM     20  P   UNL     1       2.143   9.001  18.385  0.00  0.00    +0.000 P 
ATOM     21  O   UNL     1       2.445  10.319  17.648  0.00  0.00    +0.000 OA
BRANCH  20  22
ATOM     22  O   UNL     1       1.109   8.149  17.436  0.00  0.00    +0.000 OA
ATOM     23  H   UNL     1       1.545   7.320  17.164  0.00  0.00    +0.000 HD
ENDBRANCH  20  22
BRANCH  20  24
ATOM     24  C   UNL     1       0.768   9.784  19.305  0.00  0.00    +0.000 C 
BRANCH  24  25
ATOM     25  N   UNL     1       0.917  11.217  19.526  0.00  0.00    +0.000 N 
ATOM     26  C   UNL     1       0.909  11.764  20.763  0.00  0.00    +0.000 C 
ATOM     27  O   UNL     1       0.854  11.113  21.801  0.00  0.00    +0.000 OA
ATOM     28  H   UNL     1       0.865  11.807  18.702  0.00  0.00    +0.000 HD
BRANCH  26  29
ATOM     29  O   UNL     1       0.964  13.117  20.690  0.00  0.00    +0.000 OA
BRANCH  29  30
ATOM     30  C   UNL     1       0.360  13.707  19.527  0.00  0.00    +0.000 C 
BRANCH  30  31
ATOM     31  C   UNL     1       1.313  14.687  18.883  0.00  0.00    +0.000 A 
ATOM     32  C   UNL     1       2.526  14.254  18.329  0.00  0.00    +0.000 A 
ATOM     33  C   UNL     1       3.390  15.163  17.712  0.00  0.00    +0.000 A 
ATOM     34  C   UNL     1       3.048  16.512  17.639  0.00  0.00    +0.000 A 
ATOM     35  C   UNL     1       1.839  16.952  18.173  0.00  0.00    +0.000 A 
ATOM     36  C   UNL     1       0.975  16.045  18.788  0.00  0.00    +0.000 A 
ENDBRANCH  30  31
ENDBRANCH  29  30
ENDBRANCH  26  29
ENDBRANCH  24  25
ENDBRANCH  20  24
ENDBRANCH  19  20
ENDBRANCH   1  19
TORSDOF 15
ENDMDL
MODEL 9
REMARK VINA RESULT:      -7.1      1.906      2.753
REMARK  Name = 
REMARK  15 active torsions:
REMARK  status: ('A' for Active; 'I' for Inactive)
REMARK    1  A    between atoms: C_2  and  O_3
REMARK    2  A    between atoms: C_2  and  C_4
REMARK    3  A    between atoms: C_4  and  C_5
REMARK    4  A    between atoms: C_5  and  N_6
REMARK    5  A    between atoms: C_7  and  C_9
REMARK    6  A    between atoms: C_9  and  C_10
REMARK    7  A    between atoms: C_9  and  O_17
REMARK    8  A    between atoms: C_10  and  C_11
REMARK    9  A    between atoms: O_17  and  P_18
REMARK   10  A    between atoms: P_18  and  O_20
REMARK   11  A    between atoms: P_18  and  C_21
REMARK   12  A    between atoms: C_21  and  N_22
REMARK   13  A    between atoms: C_23  and  O_25
REMARK   14  A    between atoms: O_25  and  C_26
REMARK   15  A    between atoms: C_26  and  C_27
REMARK                            x       y       z     vdW  Elec       q    Type
REMARK                         _______ _______ _______ _____ _____    ______ ____
ROOT
ATOM      1  C   UNL     1       2.408   6.749  19.891  0.00  0.00    +0.000 C 
ENDROOT
BRANCH   1   3
ATOM      2  N   UNL     1       1.333   8.892  19.142  0.00  0.00    +0.000 N 
ATOM      3  C   UNL     1       1.582   8.032  20.183  0.00  0.00    +0.000 C 
ATOM      4  O   UNL     1       1.118   8.242  21.314  0.00  0.00    +0.000 OA
ATOM      5  H   UNL     1       1.790   8.781  18.243  0.00  0.00    +0.000 HD
BRANCH   2   6
ATOM      6  C   UNL     1       0.653  10.169  19.295  0.00  0.00    +0.000 C 
BRANCH   6   7
ATOM      7  C   UNL     1       1.596  11.339  19.573  0.00  0.00    +0.000 C 
BRANCH   7   9
ATOM      8  O   UNL     1       0.766  13.256  18.339  0.00  0.00    +0.000 OA
ATOM      9  C   UNL     1       1.591  12.361  18.463  0.00  0.00    +0.000 C 
BRANCH   9  10
ATOM     10  O   UNL     1       2.602  12.184  17.583  0.00  0.00    +0.000 OA
ATOM     11  H   UNL     1       3.497  12.266  17.969  0.00  0.00    +0.000 HD
ENDBRANCH   9  10
ENDBRANCH   7   9
ENDBRANCH   6   7
ENDBRANCH   2   6
ENDBRANCH   1   3
BRANCH   1  12
ATOM     12  C   UNL     1       1.918   5.586  20.782  0.00  0.00    +0.000 C 
BRANCH  12  13
ATOM     13  C   UNL     1       1.995   4.226  20.146  0.00  0.00    +0.000 A 
ATOM     14  C   UNL     1       3.207   3.522  20.102  0.00  0.00    +0.000 A 
ATOM     15  C   UNL     1       3.283   2.299  19.437  0.00  0.00    +0.000 A 
ATOM     16  C   UNL     1       2.149   1.769  18.826  0.00  0.00    +0.000 A 
ATOM     17  C   UNL     1       0.928   2.438  18.914  0.00  0.00    +0.000 A 
ATOM     18  C   UNL     1       0.850   3.661  19.574  0.00  0.00    +0.000 A 
ENDBRANCH  12  13
ENDBRANCH   1  12
BRANCH   1  19
ATOM     19  O   UNL     1       2.318   6.395  18.493  0.00  0.00    +0.000 OA
BRANCH  19  20
ATOM     20  P   UNL     1       3.802   6.510  17.611  0.00  0.00    +0.000 P 
ATOM     21  O   UNL     1       3.558   8.023  17.464  0.00  0.00    +0.000 OA
BRANCH  20  22
ATOM     22  O   UNL     1       4.590   6.290  19.034  0.00  0.00    +0.000 OA
ATOM     23  H   UNL     1       4.476   7.090  19.581  0.00  0.00    +0.000 HD
ENDBRANCH  20  22
BRANCH  20  24
ATOM     24  C   UNL     1       5.371   6.633  16.677  0.00  0.00    +0.000 C 
BRANCH  24  25
ATOM     25  N   UNL     1       6.391   7.467  17.300  0.00  0.00    +0.000 N 
ATOM     26  C   UNL     1       7.573   6.970  17.727  0.00  0.00    +0.000 C 
ATOM     27  O   UNL     1       7.927   5.806  17.565  0.00  0.00    +0.000 OA
ATOM     28  H   UNL     1       6.110   8.411  17.547  0.00  0.00    +0.000 HD
BRANCH  26  29
ATOM     29  O   UNL     1       8.299   7.928  18.355  0.00  0.00    +0.000 OA
BRANCH  29  30
ATOM     30  C   UNL     1       8.126   9.268  17.864  0.00  0.00    +0.000 C 
BRANCH  30  31
ATOM     31  C   UNL     1       9.106  10.201  18.534  0.00  0.00    +0.000 A 
ATOM     32  C   UNL     1       9.995  10.977  17.776  0.00  0.00    +0.000 A 
ATOM     33  C   UNL     1      10.882  11.858  18.403  0.00  0.00    +0.000 A 
ATOM     34  C   UNL     1      10.885  11.975  19.791  0.00  0.00    +0.000 A 
ATOM     35  C   UNL     1       9.996  11.220  20.555  0.00  0.00    +0.000 A 
ATOM     36  C   UNL     1       9.110  10.341  19.930  0.00  0.00    +0.000 A 
ENDBRANCH  30  31
ENDBRANCH  29  30
ENDBRANCH  26  29
ENDBRANCH  24  25
ENDBRANCH  20  24
ENDBRANCH  19  20
ENDBRANCH   1  19
TORSDOF 15
ENDMDL
