MODEL 1
REMARK VINA RESULT:      -7.8      0.000      0.000
REMARK  Name = 
REMARK  4 active torsions:
REMARK  status: ('A' for Active; 'I' for Inactive)
REMARK    1  A    between atoms: C_1  and  C_2
REMARK    2  A    between atoms: C_2  and  C_3
REMARK    3  A    between atoms: C_9  and  C_10
REMARK    4  A    between atoms: N_17  and  C_18
REMARK                            x       y       z     vdW  Elec       q    Type
REMARK                         _______ _______ _______ _____ _____    ______ ____
ROOT
ATOM      1  C   UNL     1      -0.791   8.485  21.589  0.00  0.00    +0.000 C 
ATOM      2  C   UNL     1       0.691   8.748  21.217  0.00  0.00    +0.000 C 
ATOM      3  C   UNL     1       1.408   9.209  22.505  0.00  0.00    +0.000 C 
ATOM      4  C   UNL     1       0.709   9.907  20.177  0.00  0.00    +0.000 C 
ATOM      5  C   UNL     1       1.653   9.808  18.995  0.00  0.00    +0.000 C 
ATOM      6  O   UNL     1       1.851  10.788  18.270  0.00  0.00    +0.000 OA
ATOM      7  C   UNL     1       2.249   8.521  18.710  0.00  0.00    +0.000 A 
ATOM      8  C   UNL     1       3.058   8.140  17.627  0.00  0.00    +0.000 A 
ATOM      9  C   UNL     1       3.430   6.810  17.779  0.00  0.00    +0.000 A 
ATOM     10  N   UNL     1       2.885   6.367  19.006  0.00  0.00    +0.000 N 
ATOM     11  C   UNL     1       2.097   7.418  19.515  0.00  0.00    +0.000 A 
ATOM     12  C   UNL     1       1.295   7.383  20.772  0.00  0.00    +0.000 C 
ENDROOT
BRANCH   9  13
ATOM     13  C   UNL     1       4.256   6.032  16.824  0.00  0.00    +0.000 A 
ATOM     14  C   UNL     1       4.046   4.648  16.698  0.00  0.00    +0.000 A 
ATOM     15  C   UNL     1       4.695   3.904  15.707  0.00  0.00    +0.000 A 
ATOM     16  C   UNL     1       5.552   4.544  14.819  0.00  0.00    +0.000 A 
ATOM     17 BR   UNL     1       6.319   3.578  13.387  0.00  0.00    +0.000 Br
ATOM     18  C   UNL     1       5.832   5.898  14.970  0.00  0.00    +0.000 A 
ATOM     19  C   UNL     1       5.224   6.625  16.001  0.00  0.00    +0.000 A 
ENDBRANCH   9  13
BRANCH  10  20
ATOM     20  C   UNL     1       3.055   5.080  19.611  0.00  0.00    +0.000 A 
ATOM     21  C   UNL     1       1.951   4.277  19.929  0.00  0.00    +0.000 A 
ATOM     22  C   UNL     1       2.117   2.979  20.428  0.00  0.00    +0.000 A 
ATOM     23  C   UNL     1       3.393   2.445  20.572  0.00  0.00    +0.000 A 
ATOM     24  C   UNL     1       4.502   3.236  20.285  0.00  0.00    +0.000 A 
ATOM     25  C   UNL     1       4.331   4.556  19.856  0.00  0.00    +0.000 A 
ATOM     26  F   UNL     1       5.438   5.299  19.705  0.00  0.00    +0.000 F 
ENDBRANCH  10  20
TORSDOF 2
ENDMDL
MODEL 2
REMARK VINA RESULT:      -7.7      4.949      7.531
REMARK  Name = 
REMARK  4 active torsions:
REMARK  status: ('A' for Active; 'I' for Inactive)
REMARK    1  A    between atoms: C_1  and  C_2
REMARK    2  A    between atoms: C_2  and  C_3
REMARK    3  A    between atoms: C_9  and  C_10
REMARK    4  A    between atoms: N_17  and  C_18
REMARK                            x       y       z     vdW  Elec       q    Type
REMARK                         _______ _______ _______ _____ _____    ______ ____
ROOT
ATOM      1  C   UNL     1      -4.313  15.329  20.804  0.00  0.00    +0.000 C 
ATOM      2  C   UNL     1      -3.951  13.939  21.388  0.00  0.00    +0.000 C 
ATOM      3  C   UNL     1      -5.262  13.308  21.907  0.00  0.00    +0.000 C 
ATOM      4  C   UNL     1      -2.988  14.179  22.588  0.00  0.00    +0.000 C 
ATOM      5  C   UNL     1      -1.797  13.256  22.759  0.00  0.00    +0.000 C 
ATOM      6  O   UNL     1      -1.135  13.277  23.802  0.00  0.00    +0.000 OA
ATOM      7  C   UNL     1      -1.427  12.415  21.642  0.00  0.00    +0.000 A 
ATOM      8  C   UNL     1      -0.317  11.565  21.503  0.00  0.00    +0.000 A 
ATOM      9  C   UNL     1      -0.382  10.925  20.271  0.00  0.00    +0.000 A 
ATOM     10  N   UNL     1      -1.580  11.346  19.651  0.00  0.00    +0.000 N 
ATOM     11  C   UNL     1      -2.159  12.322  20.483  0.00  0.00    +0.000 A 
ATOM     12  C   UNL     1      -3.416  13.077  20.207  0.00  0.00    +0.000 C 
ENDROOT
BRANCH   9  13
ATOM     13  C   UNL     1       0.626   9.974  19.740  0.00  0.00    +0.000 A 
ATOM     14  C   UNL     1       1.042   8.894  20.538  0.00  0.00    +0.000 A 
ATOM     15  C   UNL     1       1.874   7.893  20.024  0.00  0.00    +0.000 A 
ATOM     16  C   UNL     1       2.285   7.956  18.696  0.00  0.00    +0.000 A 
ATOM     17 BR   UNL     1       3.285   6.537  17.951  0.00  0.00    +0.000 Br
ATOM     18  C   UNL     1       1.946   9.053  17.911  0.00  0.00    +0.000 A 
ATOM     19  C   UNL     1       1.162  10.081  18.449  0.00  0.00    +0.000 A 
ENDBRANCH   9  13
BRANCH  10  20
ATOM     20  C   UNL     1      -2.100  10.904  18.391  0.00  0.00    +0.000 A 
ATOM     21  C   UNL     1      -2.843   9.719  18.289  0.00  0.00    +0.000 A 
ATOM     22  C   UNL     1      -3.437   9.336  17.080  0.00  0.00    +0.000 A 
ATOM     23  C   UNL     1      -3.337  10.160  15.964  0.00  0.00    +0.000 A 
ATOM     24  C   UNL     1      -2.583  11.327  16.038  0.00  0.00    +0.000 A 
ATOM     25  C   UNL     1      -1.932  11.667  17.228  0.00  0.00    +0.000 A 
ATOM     26  F   UNL     1      -1.132  12.743  17.203  0.00  0.00    +0.000 F 
ENDBRANCH  10  20
TORSDOF 2
ENDMDL
MODEL 3
REMARK VINA RESULT:      -7.5      2.982      4.640
REMARK  Name = 
REMARK  4 active torsions:
REMARK  status: ('A' for Active; 'I' for Inactive)
REMARK    1  A    between atoms: C_1  and  C_2
REMARK    2  A    between atoms: C_2  and  C_3
REMARK    3  A    between atoms: C_9  and  C_10
REMARK    4  A    between atoms: N_17  and  C_18
REMARK                            x       y       z     vdW  Elec       q    Type
REMARK                         _______ _______ _______ _____ _____    ______ ____
ROOT
ATOM      1  C   UNL     1       2.566   3.964  22.050  0.00  0.00    +0.000 C 
ATOM      2  C   UNL     1       2.206   4.526  20.650  0.00  0.00    +0.000 C 
ATOM      3  C   UNL     1       1.385   5.814  20.873  0.00  0.00    +0.000 C 
ATOM      4  C   UNL     1       1.312   3.465  19.942  0.00  0.00    +0.000 C 
ATOM      5  C   UNL     1       1.549   3.180  18.472  0.00  0.00    +0.000 C 
ATOM      6  O   UNL     1       0.736   2.509  17.827  0.00  0.00    +0.000 OA
ATOM      7  C   UNL     1       2.781   3.653  17.880  0.00  0.00    +0.000 A 
ATOM      8  C   UNL     1       3.286   3.430  16.588  0.00  0.00    +0.000 A 
ATOM      9  C   UNL     1       4.491   4.106  16.445  0.00  0.00    +0.000 A 
ATOM     10  N   UNL     1       4.718   4.805  17.653  0.00  0.00    +0.000 N 
ATOM     11  C   UNL     1       3.690   4.441  18.543  0.00  0.00    +0.000 A 
ATOM     12  C   UNL     1       3.548   4.903  19.955  0.00  0.00    +0.000 C 
ENDROOT
BRANCH   9  13
ATOM     13  C   UNL     1       5.350   4.090  15.236  0.00  0.00    +0.000 A 
ATOM     14  C   UNL     1       4.833   3.582  14.031  0.00  0.00    +0.000 A 
ATOM     15  C   UNL     1       5.553   3.684  12.835  0.00  0.00    +0.000 A 
ATOM     16  C   UNL     1       6.793   4.314  12.831  0.00  0.00    +0.000 A 
ATOM     17 BR   UNL     1       7.705   4.588  11.199  0.00  0.00    +0.000 Br
ATOM     18  C   UNL     1       7.355   4.759  14.023  0.00  0.00    +0.000 A 
ATOM     19  C   UNL     1       6.655   4.600  15.226  0.00  0.00    +0.000 A 
ENDBRANCH   9  13
BRANCH  10  20
ATOM     20  C   UNL     1       5.808   5.687  17.948  0.00  0.00    +0.000 A 
ATOM     21  C   UNL     1       6.832   5.305  18.826  0.00  0.00    +0.000 A 
ATOM     22  C   UNL     1       7.948   6.123  19.039  0.00  0.00    +0.000 A 
ATOM     23  C   UNL     1       8.081   7.317  18.339  0.00  0.00    +0.000 A 
ATOM     24  C   UNL     1       7.063   7.725  17.482  0.00  0.00    +0.000 A 
ATOM     25  C   UNL     1       5.917   6.938  17.328  0.00  0.00    +0.000 A 
ATOM     26  F   UNL     1       4.926   7.440  16.577  0.00  0.00    +0.000 F 
ENDBRANCH  10  20
TORSDOF 2
ENDMDL
MODEL 4
REMARK VINA RESULT:      -7.4      5.327      8.286
REMARK  Name = 
REMARK  4 active torsions:
REMARK  status: ('A' for Active; 'I' for Inactive)
REMARK    1  A    between atoms: C_1  and  C_2
REMARK    2  A    between atoms: C_2  and  C_3
REMARK    3  A    between atoms: C_9  and  C_10
REMARK    4  A    between atoms: N_17  and  C_18
REMARK                            x       y       z     vdW  Elec       q    Type
REMARK                         _______ _______ _______ _____ _____    ______ ____
ROOT
ATOM      1  C   UNL     1      -0.250  17.773  17.338  0.00  0.00    +0.000 C 
ATOM      2  C   UNL     1       0.404  17.011  18.519  0.00  0.00    +0.000 C 
ATOM      3  C   UNL     1       0.150  17.844  19.795  0.00  0.00    +0.000 C 
ATOM      4  C   UNL     1       1.935  16.953  18.240  0.00  0.00    +0.000 C 
ATOM      5  C   UNL     1       2.679  15.664  18.533  0.00  0.00    +0.000 C 
ATOM      6  O   UNL     1       3.914  15.641  18.527  0.00  0.00    +0.000 OA
ATOM      7  C   UNL     1       1.898  14.465  18.742  0.00  0.00    +0.000 A 
ATOM      8  C   UNL     1       2.336  13.142  18.917  0.00  0.00    +0.000 A 
ATOM      9  C   UNL     1       1.236  12.318  19.119  0.00  0.00    +0.000 A 
ATOM     10  N   UNL     1       0.093  13.149  19.119  0.00  0.00    +0.000 N 
ATOM     11  C   UNL     1       0.525  14.452  18.805  0.00  0.00    +0.000 A 
ATOM     12  C   UNL     1      -0.347  15.653  18.653  0.00  0.00    +0.000 C 
ENDROOT
BRANCH   9  13
ATOM     13  C   UNL     1       1.284  10.848  19.308  0.00  0.00    +0.000 A 
ATOM     14  C   UNL     1       1.707  10.029  18.245  0.00  0.00    +0.000 A 
ATOM     15  C   UNL     1       1.910   8.657  18.425  0.00  0.00    +0.000 A 
ATOM     16  C   UNL     1       1.708   8.091  19.680  0.00  0.00    +0.000 A 
ATOM     17 BR   UNL     1       2.121   6.271  19.970  0.00  0.00    +0.000 Br
ATOM     18  C   UNL     1       1.220   8.867  20.726  0.00  0.00    +0.000 A 
ATOM     19  C   UNL     1       0.962  10.229  20.523  0.00  0.00    +0.000 A 
ENDBRANCH   9  13
BRANCH  10  20
ATOM     20  C   UNL     1      -1.264  12.751  19.351  0.00  0.00    +0.000 A 
ATOM     21  C   UNL     1      -1.934  13.112  20.527  0.00  0.00    +0.000 A 
ATOM     22  C   UNL     1      -3.289  12.810  20.713  0.00  0.00    +0.000 A 
ATOM     23  C   UNL     1      -4.008  12.183  19.702  0.00  0.00    +0.000 A 
ATOM     24  C   UNL     1      -3.354  11.794  18.536  0.00  0.00    +0.000 A 
ATOM     25  C   UNL     1      -1.984  12.034  18.387  0.00  0.00    +0.000 A 
ATOM     26  F   UNL     1      -1.392  11.536  17.292  0.00  0.00    +0.000 F 
ENDBRANCH  10  20
TORSDOF 2
ENDMDL
MODEL 5
REMARK VINA RESULT:      -7.2      5.148      8.155
REMARK  Name = 
REMARK  4 active torsions:
REMARK  status: ('A' for Active; 'I' for Inactive)
REMARK    1  A    between atoms: C_1  and  C_2
REMARK    2  A    between atoms: C_2  and  C_3
REMARK    3  A    between atoms: C_9  and  C_10
REMARK    4  A    between atoms: N_17  and  C_18
REMARK                            x       y       z     vdW  Elec       q    Type
REMARK                         _______ _______ _______ _____ _____    ______ ____
ROOT
ATOM      1  C   UNL     1      -1.388  16.188  24.382  0.00  0.00    +0.000 C 
ATOM      2  C   UNL     1      -1.930  15.260  23.265  0.00  0.00    +0.000 C 
ATOM      3  C   UNL     1      -2.868  16.111  22.381  0.00  0.00    +0.000 C 
ATOM      4  C   UNL     1      -2.759  14.138  23.959  0.00  0.00    +0.000 C 
ATOM      5  C   UNL     1      -2.623  12.715  23.452  0.00  0.00    +0.000 C 
ATOM      6  O   UNL     1      -3.410  11.840  23.828  0.00  0.00    +0.000 OA
ATOM      7  C   UNL     1      -1.509  12.410  22.582  0.00  0.00    +0.000 A 
ATOM      8  C   UNL     1      -1.097  11.168  22.071  0.00  0.00    +0.000 A 
ATOM      9  C   UNL     1       0.007  11.353  21.249  0.00  0.00    +0.000 A 
ATOM     10  N   UNL     1       0.260  12.743  21.207  0.00  0.00    +0.000 N 
ATOM     11  C   UNL     1      -0.638  13.358  22.099  0.00  0.00    +0.000 A 
ATOM     12  C   UNL     1      -0.706  14.815  22.412  0.00  0.00    +0.000 C 
ENDROOT
BRANCH   9  13
ATOM     13  C   UNL     1       0.752  10.277  20.552  0.00  0.00    +0.000 A 
ATOM     14  C   UNL     1       1.131   9.126  21.265  0.00  0.00    +0.000 A 
ATOM     15  C   UNL     1       1.700   8.026  20.614  0.00  0.00    +0.000 A 
ATOM     16  C   UNL     1       1.880   8.061  19.236  0.00  0.00    +0.000 A 
ATOM     17 BR   UNL     1       2.509   6.527  18.329  0.00  0.00    +0.000 Br
ATOM     18  C   UNL     1       1.580   9.215  18.520  0.00  0.00    +0.000 A 
ATOM     19  C   UNL     1       1.066  10.335  19.187  0.00  0.00    +0.000 A 
ENDBRANCH   9  13
BRANCH  10  20
ATOM     20  C   UNL     1       1.267  13.413  20.438  0.00  0.00    +0.000 A 
ATOM     21  C   UNL     1       2.548  13.637  20.960  0.00  0.00    +0.000 A 
ATOM     22  C   UNL     1       3.563  14.202  20.177  0.00  0.00    +0.000 A 
ATOM     23  C   UNL     1       3.324  14.508  18.842  0.00  0.00    +0.000 A 
ATOM     24  C   UNL     1       2.051  14.316  18.313  0.00  0.00    +0.000 A 
ATOM     25  C   UNL     1       1.023  13.820  19.120  0.00  0.00    +0.000 A 
ATOM     26  F   UNL     1      -0.205  13.764  18.582  0.00  0.00    +0.000 F 
ENDBRANCH  10  20
TORSDOF 2
ENDMDL
MODEL 6
REMARK VINA RESULT:      -7.1      0.417      1.026
REMARK  Name = 
REMARK  4 active torsions:
REMARK  status: ('A' for Active; 'I' for Inactive)
REMARK    1  A    between atoms: C_1  and  C_2
REMARK    2  A    between atoms: C_2  and  C_3
REMARK    3  A    between atoms: C_9  and  C_10
REMARK    4  A    between atoms: N_17  and  C_18
REMARK                            x       y       z     vdW  Elec       q    Type
REMARK                         _______ _______ _______ _____ _____    ______ ____
ROOT
ATOM      1  C   UNL     1      -0.830   8.599  22.051  0.00  0.00    +0.000 C 
ATOM      2  C   UNL     1       0.628   8.861  21.593  0.00  0.00    +0.000 C 
ATOM      3  C   UNL     1       1.429   9.281  22.845  0.00  0.00    +0.000 C 
ATOM      4  C   UNL     1       0.589  10.049  20.587  0.00  0.00    +0.000 C 
ATOM      5  C   UNL     1       1.456   9.977  19.345  0.00  0.00    +0.000 C 
ATOM      6  O   UNL     1       1.615  10.976  18.635  0.00  0.00    +0.000 OA
ATOM      7  C   UNL     1       2.020   8.695  18.987  0.00  0.00    +0.000 A 
ATOM      8  C   UNL     1       2.756   8.338  17.844  0.00  0.00    +0.000 A 
ATOM      9  C   UNL     1       3.125   7.002  17.935  0.00  0.00    +0.000 A 
ATOM     10  N   UNL     1       2.655   6.529  19.181  0.00  0.00    +0.000 N 
ATOM     11  C   UNL     1       1.911   7.570  19.768  0.00  0.00    +0.000 A 
ATOM     12  C   UNL     1       1.190   7.505  21.073  0.00  0.00    +0.000 C 
ENDROOT
BRANCH   9  13
ATOM     13  C   UNL     1       3.882   6.246  16.908  0.00  0.00    +0.000 A 
ATOM     14  C   UNL     1       4.686   6.944  15.990  0.00  0.00    +0.000 A 
ATOM     15  C   UNL     1       5.530   6.266  15.104  0.00  0.00    +0.000 A 
ATOM     16  C   UNL     1       5.591   4.877  15.141  0.00  0.00    +0.000 A 
ATOM     17 BR   UNL     1       6.834   3.959  14.054  0.00  0.00    +0.000 Br
ATOM     18  C   UNL     1       4.752   4.162  15.990  0.00  0.00    +0.000 A 
ATOM     19  C   UNL     1       3.866   4.846  16.833  0.00  0.00    +0.000 A 
ENDBRANCH   9  13
BRANCH  10  20
ATOM     20  C   UNL     1       2.852   5.224  19.739  0.00  0.00    +0.000 A 
ATOM     21  C   UNL     1       1.764   4.401  20.060  0.00  0.00    +0.000 A 
ATOM     22  C   UNL     1       1.954   3.089  20.512  0.00  0.00    +0.000 A 
ATOM     23  C   UNL     1       3.238   2.562  20.602  0.00  0.00    +0.000 A 
ATOM     24  C   UNL     1       4.332   3.371  20.311  0.00  0.00    +0.000 A 
ATOM     25  C   UNL     1       4.139   4.703  19.931  0.00  0.00    +0.000 A 
ATOM     26  F   UNL     1       5.235   5.460  19.774  0.00  0.00    +0.000 F 
ENDBRANCH  10  20
TORSDOF 2
ENDMDL
MODEL 7
REMARK VINA RESULT:      -7.1      5.523      8.655
REMARK  Name = 
REMARK  4 active torsions:
REMARK  status: ('A' for Active; 'I' for Inactive)
REMARK    1  A    between atoms: C_1  and  C_2
REMARK    2  A    between atoms: C_2  and  C_3
REMARK    3  A    between atoms: C_9  and  C_10
REMARK    4  A    between atoms: N_17  and  C_18
REMARK                            x       y       z     vdW  Elec       q    Type
REMARK                         _______ _______ _______ _____ _____    ______ ____
ROOT
ATOM      1  C   UNL     1      -1.747  16.118  25.112  0.00  0.00    +0.000 C 
ATOM      2  C   UNL     1      -2.369  15.310  23.945  0.00  0.00    +0.000 C 
ATOM      3  C   UNL     1      -3.302  16.269  23.173  0.00  0.00    +0.000 C 
ATOM      4  C   UNL     1      -3.219  14.167  24.576  0.00  0.00    +0.000 C 
ATOM      5  C   UNL     1      -3.163  12.788  23.947  0.00  0.00    +0.000 C 
ATOM      6  O   UNL     1      -3.972  11.916  24.281  0.00  0.00    +0.000 OA
ATOM      7  C   UNL     1      -2.096  12.515  23.010  0.00  0.00    +0.000 A 
ATOM      8  C   UNL     1      -1.758  11.304  22.381  0.00  0.00    +0.000 A 
ATOM      9  C   UNL     1      -0.678  11.515  21.533  0.00  0.00    +0.000 A 
ATOM     10  N   UNL     1      -0.367  12.893  21.596  0.00  0.00    +0.000 N 
ATOM     11  C   UNL     1      -1.205  13.464  22.573  0.00  0.00    +0.000 A 
ATOM     12  C   UNL     1      -1.198  14.891  23.008  0.00  0.00    +0.000 C 
ENDROOT
BRANCH   9  13
ATOM     13  C   UNL     1      -0.006  10.474  20.718  0.00  0.00    +0.000 A 
ATOM     14  C   UNL     1       0.003  10.594  19.317  0.00  0.00    +0.000 A 
ATOM     15  C   UNL     1       0.750   9.718  18.521  0.00  0.00    +0.000 A 
ATOM     16  C   UNL     1       1.510   8.721  19.122  0.00  0.00    +0.000 A 
ATOM     17 BR   UNL     1       2.635   7.629  18.069  0.00  0.00    +0.000 Br
ATOM     18  C   UNL     1       1.458   8.537  20.500  0.00  0.00    +0.000 A 
ATOM     19  C   UNL     1       0.662   9.380  21.286  0.00  0.00    +0.000 A 
ENDBRANCH   9  13
BRANCH  10  20
ATOM     20  C   UNL     1       0.638  13.586  20.846  0.00  0.00    +0.000 A 
ATOM     21  C   UNL     1       1.992  13.503  21.199  0.00  0.00    +0.000 A 
ATOM     22  C   UNL     1       2.985  14.097  20.410  0.00  0.00    +0.000 A 
ATOM     23  C   UNL     1       2.643  14.743  19.228  0.00  0.00    +0.000 A 
ATOM     24  C   UNL     1       1.302  14.857  18.873  0.00  0.00    +0.000 A 
ATOM     25  C   UNL     1       0.309  14.326  19.702  0.00  0.00    +0.000 A 
ATOM     26  F   UNL     1      -0.966  14.566  19.363  0.00  0.00    +0.000 F 
ENDBRANCH  10  20
TORSDOF 2
ENDMDL
MODEL 8
REMARK VINA RESULT:      -7.1      0.968      1.343
REMARK  Name = 
REMARK  4 active torsions:
REMARK  status: ('A' for Active; 'I' for Inactive)
REMARK    1  A    between atoms: C_1  and  C_2
REMARK    2  A    between atoms: C_2  and  C_3
REMARK    3  A    between atoms: C_9  and  C_10
REMARK    4  A    between atoms: N_17  and  C_18
REMARK                            x       y       z     vdW  Elec       q    Type
REMARK                         _______ _______ _______ _____ _____    ______ ____
ROOT
ATOM      1  C   UNL     1      -0.669   8.257  21.434  0.00  0.00    +0.000 C 
ATOM      2  C   UNL     1       0.816   8.522  21.075  0.00  0.00    +0.000 C 
ATOM      3  C   UNL     1       1.531   8.942  22.378  0.00  0.00    +0.000 C 
ATOM      4  C   UNL     1       0.843   9.711  20.070  0.00  0.00    +0.000 C 
ATOM      5  C   UNL     1       1.791   9.641  18.888  0.00  0.00    +0.000 C 
ATOM      6  O   UNL     1       1.996  10.642  18.192  0.00  0.00    +0.000 OA
ATOM      7  C   UNL     1       2.380   8.361  18.568  0.00  0.00    +0.000 A 
ATOM      8  C   UNL     1       3.191   8.006  17.476  0.00  0.00    +0.000 A 
ATOM      9  C   UNL     1       3.556   6.671  17.591  0.00  0.00    +0.000 A 
ATOM     10  N   UNL     1       3.004   6.195  18.802  0.00  0.00    +0.000 N 
ATOM     11  C   UNL     1       2.221   7.235  19.339  0.00  0.00    +0.000 A 
ATOM     12  C   UNL     1       1.414   7.167  20.592  0.00  0.00    +0.000 C 
ENDROOT
BRANCH   9  13
ATOM     13  C   UNL     1       4.381   5.917  16.616  0.00  0.00    +0.000 A 
ATOM     14  C   UNL     1       4.281   4.515  16.565  0.00  0.00    +0.000 A 
ATOM     15  C   UNL     1       4.925   3.779  15.565  0.00  0.00    +0.000 A 
ATOM     16  C   UNL     1       5.665   4.442  14.592  0.00  0.00    +0.000 A 
ATOM     17 BR   UNL     1       6.416   3.473  13.155  0.00  0.00    +0.000 Br
ATOM     18  C   UNL     1       5.839   5.821  14.665  0.00  0.00    +0.000 A 
ATOM     19  C   UNL     1       5.239   6.545  15.703  0.00  0.00    +0.000 A 
ENDBRANCH   9  13
BRANCH  10  20
ATOM     20  C   UNL     1       3.166   4.890  19.370  0.00  0.00    +0.000 A 
ATOM     21  C   UNL     1       4.403   4.468  19.876  0.00  0.00    +0.000 A 
ATOM     22  C   UNL     1       4.540   3.232  20.521  0.00  0.00    +0.000 A 
ATOM     23  C   UNL     1       3.429   2.419  20.713  0.00  0.00    +0.000 A 
ATOM     24  C   UNL     1       2.197   2.809  20.195  0.00  0.00    +0.000 A 
ATOM     25  C   UNL     1       2.082   4.010  19.488  0.00  0.00    +0.000 A 
ATOM     26  F   UNL     1       0.896   4.274  18.920  0.00  0.00    +0.000 F 
ENDBRANCH  10  20
TORSDOF 2
ENDMDL
MODEL 9
REMARK VINA RESULT:      -7.1      7.003      9.776
REMARK  Name = 
REMARK  4 active torsions:
REMARK  status: ('A' for Active; 'I' for Inactive)
REMARK    1  A    between atoms: C_1  and  C_2
REMARK    2  A    between atoms: C_2  and  C_3
REMARK    3  A    between atoms: C_9  and  C_10
REMARK    4  A    between atoms: N_17  and  C_18
REMARK                            x       y       z     vdW  Elec       q    Type
REMARK                         _______ _______ _______ _____ _____    ______ ____
ROOT
ATOM      1  C   UNL     1       3.944  14.846  20.816  0.00  0.00    +0.000 C 
ATOM      2  C   UNL     1       2.767  14.594  19.838  0.00  0.00    +0.000 C 
ATOM      3  C   UNL     1       3.369  14.004  18.544  0.00  0.00    +0.000 C 
ATOM      4  C   UNL     1       2.127  15.978  19.521  0.00  0.00    +0.000 C 
ATOM      5  C   UNL     1       0.615  16.081  19.458  0.00  0.00    +0.000 C 
ATOM      6  O   UNL     1       0.076  17.098  19.007  0.00  0.00    +0.000 OA
ATOM      7  C   UNL     1      -0.161  14.991  20.007  0.00  0.00    +0.000 A 
ATOM      8  C   UNL     1      -1.553  14.889  20.172  0.00  0.00    +0.000 A 
ATOM      9  C   UNL     1      -1.861  13.647  20.711  0.00  0.00    +0.000 A 
ATOM     10  N   UNL     1      -0.643  12.940  20.839  0.00  0.00    +0.000 N 
ATOM     11  C   UNL     1       0.391  13.823  20.474  0.00  0.00    +0.000 A 
ATOM     12  C   UNL     1       1.852  13.521  20.497  0.00  0.00    +0.000 C 
ENDROOT
BRANCH   9  13
ATOM     13  C   UNL     1      -3.222  13.174  21.063  0.00  0.00    +0.000 A 
ATOM     14  C   UNL     1      -3.677  13.306  22.387  0.00  0.00    +0.000 A 
ATOM     15  C   UNL     1      -5.001  13.013  22.730  0.00  0.00    +0.000 A 
ATOM     16  C   UNL     1      -5.890  12.599  21.744  0.00  0.00    +0.000 A 
ATOM     17 BR   UNL     1      -7.714  12.343  22.167  0.00  0.00    +0.000 Br
ATOM     18  C   UNL     1      -5.445  12.391  20.443  0.00  0.00    +0.000 A 
ATOM     19  C   UNL     1      -4.103  12.630  20.119  0.00  0.00    +0.000 A 
ENDBRANCH   9  13
BRANCH  10  20
ATOM     20  C   UNL     1      -0.472  11.593  21.296  0.00  0.00    +0.000 A 
ATOM     21  C   UNL     1      -0.640  11.259  22.647  0.00  0.00    +0.000 A 
ATOM     22  C   UNL     1      -0.571   9.929  23.080  0.00  0.00    +0.000 A 
ATOM     23  C   UNL     1      -0.380   8.905  22.158  0.00  0.00    +0.000 A 
ATOM     24  C   UNL     1      -0.185   9.219  20.816  0.00  0.00    +0.000 A 
ATOM     25  C   UNL     1      -0.183  10.554  20.401  0.00  0.00    +0.000 A 
ATOM     26  F   UNL     1       0.122  10.796  19.118  0.00  0.00    +0.000 F 
ENDBRANCH  10  20
TORSDOF 2
ENDMDL
