MODEL 1
REMARK VINA RESULT:      -8.2      0.000      0.000
REMARK  Name = 
REMARK  7 active torsions:
REMARK  status: ('A' for Active; 'I' for Inactive)
REMARK    1  A    between atoms: C_1  and  C_2
REMARK    2  A    between atoms: C_2  and  O_3
REMARK    3  A    between atoms: O_3  and  C_4
REMARK    4  A    between atoms: C_7  and  O_8
REMARK    5  A    between atoms: O_8  and  C_9
REMARK    6  A    between atoms: C_15  and  C_16
REMARK    7  A    between atoms: N_18  and  C_19
REMARK                            x       y       z     vdW  Elec       q    Type
REMARK                         _______ _______ _______ _____ _____    ______ ____
ROOT
ATOM      1  C   UNL     1       2.291   4.802  19.746  0.00  0.00    +0.000 A 
ATOM      2  C   UNL     1       1.091   4.425  20.390  0.00  0.00    +0.000 A 
ATOM      3  C   UNL     1       0.431   3.247  20.047  0.00  0.00    +0.000 A 
ATOM      4  C   UNL     1       1.001   2.404  19.111  0.00  0.00    +0.000 A 
ATOM      5  F   UNL     1       0.374   1.269  18.776  0.00  0.00    +0.000 F 
ATOM      6  C   UNL     1       2.217   2.717  18.522  0.00  0.00    +0.000 A 
ATOM      7  C   UNL     1       2.889   3.920  18.826  0.00  0.00    +0.000 A 
ENDROOT
BRANCH   7   8
ATOM      8  C   UNL     1       4.190   4.113  18.101  0.00  0.00    +0.000 C 
ATOM      9  O   UNL     1       5.219   3.844  18.720  0.00  0.00    +0.000 OA
ATOM     10  N   UNL     1       4.178   4.584  16.797  0.00  0.00    +0.000 N 
ATOM     11  H   UNL     1       3.267   4.780  16.395  0.00  0.00    +0.000 HD
BRANCH  10  12
ATOM     12  C   UNL     1       5.285   4.840  15.995  0.00  0.00    +0.000 A 
ATOM     13  C   UNL     1       6.277   5.759  16.532  0.00  0.00    +0.000 A 
ATOM     14  C   UNL     1       7.392   6.044  15.844  0.00  0.00    +0.000 A 
ATOM     15  N   UNL     1       7.609   5.483  14.617  0.00  0.00    +0.000 N 
ATOM     16  C   UNL     1       6.730   4.619  14.010  0.00  0.00    +0.000 A 
ATOM     17  O   UNL     1       6.943   4.135  12.900  0.00  0.00    +0.000 OA
ATOM     18  C   UNL     1       5.501   4.299  14.780  0.00  0.00    +0.000 A 
ATOM     19  H   UNL     1       8.449   5.690  14.089  0.00  0.00    +0.000 HD
ENDBRANCH  10  12
ENDBRANCH   7   8
BRANCH   1  20
ATOM     20  O   UNL     1       2.901   6.005  20.049  0.00  0.00    +0.000 OA
BRANCH  20  24
ATOM     21  C   UNL     1       1.209   9.634  18.825  0.00  0.00    +0.000 A 
ATOM     22  C   UNL     1       1.059   9.166  20.132  0.00  0.00    +0.000 A 
ATOM     23  C   UNL     1       1.624   7.944  20.517  0.00  0.00    +0.000 A 
ATOM     24  C   UNL     1       2.330   7.177  19.588  0.00  0.00    +0.000 A 
ATOM     25  C   UNL     1       2.464   7.640  18.275  0.00  0.00    +0.000 A 
ATOM     26  C   UNL     1       1.871   8.844  17.886  0.00  0.00    +0.000 A 
BRANCH  21  27
ATOM     27  O   UNL     1       0.687  10.873  18.568  0.00  0.00    +0.000 OA
BRANCH  27  29
ATOM     28  C   UNL     1      -1.524  10.399  17.776  0.00  0.00    +0.000 C 
ATOM     29  C   UNL     1      -0.701  11.026  18.885  0.00  0.00    +0.000 C 
ENDBRANCH  27  29
ENDBRANCH  21  27
ENDBRANCH  20  24
ENDBRANCH   1  20
TORSDOF 6
ENDMDL
MODEL 2
REMARK VINA RESULT:      -8.2      2.647      7.339
REMARK  Name = 
REMARK  7 active torsions:
REMARK  status: ('A' for Active; 'I' for Inactive)
REMARK    1  A    between atoms: C_1  and  C_2
REMARK    2  A    between atoms: C_2  and  O_3
REMARK    3  A    between atoms: O_3  and  C_4
REMARK    4  A    between atoms: C_7  and  O_8
REMARK    5  A    between atoms: O_8  and  C_9
REMARK    6  A    between atoms: C_15  and  C_16
REMARK    7  A    between atoms: N_18  and  C_19
REMARK                            x       y       z     vdW  Elec       q    Type
REMARK                         _______ _______ _______ _____ _____    ______ ____
ROOT
ATOM      1  C   UNL     1       3.777   4.881  19.799  0.00  0.00    +0.000 A 
ATOM      2  C   UNL     1       4.005   3.497  19.967  0.00  0.00    +0.000 A 
ATOM      3  C   UNL     1       3.045   2.678  20.558  0.00  0.00    +0.000 A 
ATOM      4  C   UNL     1       1.827   3.221  20.920  0.00  0.00    +0.000 A 
ATOM      5  F   UNL     1       0.899   2.441  21.487  0.00  0.00    +0.000 F 
ATOM      6  C   UNL     1       1.553   4.562  20.693  0.00  0.00    +0.000 A 
ATOM      7  C   UNL     1       2.519   5.421  20.128  0.00  0.00    +0.000 A 
ENDROOT
BRANCH   7   8
ATOM      8  C   UNL     1       2.070   6.843  19.952  0.00  0.00    +0.000 C 
ATOM      9  O   UNL     1       2.329   7.382  18.878  0.00  0.00    +0.000 OA
ATOM     10  N   UNL     1       1.405   7.478  20.990  0.00  0.00    +0.000 N 
ATOM     11  H   UNL     1       1.257   6.933  21.834  0.00  0.00    +0.000 HD
BRANCH  10  12
ATOM     12  C   UNL     1       0.944   8.790  21.004  0.00  0.00    +0.000 A 
ATOM     13  C   UNL     1       0.293   9.236  22.227  0.00  0.00    +0.000 A 
ATOM     14  C   UNL     1      -0.158  10.493  22.345  0.00  0.00    +0.000 A 
ATOM     15  N   UNL     1      -0.025  11.375  21.308  0.00  0.00    +0.000 N 
ATOM     16  C   UNL     1       0.555  11.053  20.106  0.00  0.00    +0.000 A 
ATOM     17  O   UNL     1       0.654  11.861  19.185  0.00  0.00    +0.000 OA
ATOM     18  C   UNL     1       1.062   9.662  19.984  0.00  0.00    +0.000 A 
ATOM     19  H   UNL     1      -0.360  12.328  21.388  0.00  0.00    +0.000 HD
ENDBRANCH  10  12
ENDBRANCH   7   8
BRANCH   1  20
ATOM     20  O   UNL     1       4.763   5.695  19.270  0.00  0.00    +0.000 OA
BRANCH  20  24
ATOM     21  C   UNL     1       6.520   4.690  15.605  0.00  0.00    +0.000 A 
ATOM     22  C   UNL     1       5.182   5.081  15.687  0.00  0.00    +0.000 A 
ATOM     23  C   UNL     1       4.611   5.403  16.925  0.00  0.00    +0.000 A 
ATOM     24  C   UNL     1       5.377   5.317  18.090  0.00  0.00    +0.000 A 
ATOM     25  C   UNL     1       6.712   4.908  18.007  0.00  0.00    +0.000 A 
ATOM     26  C   UNL     1       7.268   4.557  16.774  0.00  0.00    +0.000 A 
BRANCH  21  27
ATOM     27  O   UNL     1       7.004   4.472  14.343  0.00  0.00    +0.000 OA
BRANCH  27  29
ATOM     28  C   UNL     1       6.772   3.668  12.097  0.00  0.00    +0.000 C 
ATOM     29  C   UNL     1       6.103   3.806  13.452  0.00  0.00    +0.000 C 
ENDBRANCH  27  29
ENDBRANCH  21  27
ENDBRANCH  20  24
ENDBRANCH   1  20
TORSDOF 6
ENDMDL
MODEL 3
REMARK VINA RESULT:      -8.1      0.301      1.001
REMARK  Name = 
REMARK  7 active torsions:
REMARK  status: ('A' for Active; 'I' for Inactive)
REMARK    1  A    between atoms: C_1  and  C_2
REMARK    2  A    between atoms: C_2  and  O_3
REMARK    3  A    between atoms: O_3  and  C_4
REMARK    4  A    between atoms: C_7  and  O_8
REMARK    5  A    between atoms: O_8  and  C_9
REMARK    6  A    between atoms: C_15  and  C_16
REMARK    7  A    between atoms: N_18  and  C_19
REMARK                            x       y       z     vdW  Elec       q    Type
REMARK                         _______ _______ _______ _____ _____    ______ ____
ROOT
ATOM      1  C   UNL     1       2.339   4.811  19.707  0.00  0.00    +0.000 A 
ATOM      2  C   UNL     1       1.139   4.446  20.358  0.00  0.00    +0.000 A 
ATOM      3  C   UNL     1       0.454   3.285  20.003  0.00  0.00    +0.000 A 
ATOM      4  C   UNL     1       0.999   2.447  19.048  0.00  0.00    +0.000 A 
ATOM      5  F   UNL     1       0.348   1.330  18.702  0.00  0.00    +0.000 F 
ATOM      6  C   UNL     1       2.215   2.747  18.452  0.00  0.00    +0.000 A 
ATOM      7  C   UNL     1       2.912   3.933  18.768  0.00  0.00    +0.000 A 
ENDROOT
BRANCH   7   8
ATOM      8  C   UNL     1       4.209   4.113  18.033  0.00  0.00    +0.000 C 
ATOM      9  O   UNL     1       5.242   3.879  18.659  0.00  0.00    +0.000 OA
ATOM     10  N   UNL     1       4.189   4.536  16.713  0.00  0.00    +0.000 N 
ATOM     11  H   UNL     1       3.275   4.707  16.306  0.00  0.00    +0.000 HD
BRANCH  10  12
ATOM     12  C   UNL     1       5.291   4.774  15.899  0.00  0.00    +0.000 A 
ATOM     13  C   UNL     1       6.313   5.661  16.435  0.00  0.00    +0.000 A 
ATOM     14  C   UNL     1       7.426   5.927  15.735  0.00  0.00    +0.000 A 
ATOM     15  N   UNL     1       7.612   5.376  14.498  0.00  0.00    +0.000 N 
ATOM     16  C   UNL     1       6.704   4.543  13.892  0.00  0.00    +0.000 A 
ATOM     17  O   UNL     1       6.890   4.069  12.773  0.00  0.00    +0.000 OA
ATOM     18  C   UNL     1       5.477   4.244  14.675  0.00  0.00    +0.000 A 
ATOM     19  H   UNL     1       8.450   5.569  13.961  0.00  0.00    +0.000 HD
ENDBRANCH  10  12
ENDBRANCH   7   8
BRANCH   1  20
ATOM     20  O   UNL     1       2.974   5.998  20.023  0.00  0.00    +0.000 OA
BRANCH  20  24
ATOM     21  C   UNL     1       1.027   9.540  18.934  0.00  0.00    +0.000 A 
ATOM     22  C   UNL     1       1.776   8.809  18.010  0.00  0.00    +0.000 A 
ATOM     23  C   UNL     1       2.428   7.632  18.399  0.00  0.00    +0.000 A 
ATOM     24  C   UNL     1       2.345   7.192  19.721  0.00  0.00    +0.000 A 
ATOM     25  C   UNL     1       1.609   7.936  20.649  0.00  0.00    +0.000 A 
ATOM     26  C   UNL     1       0.986   9.126  20.265  0.00  0.00    +0.000 A 
BRANCH  21  27
ATOM     27  O   UNL     1       0.365  10.632  18.438  0.00  0.00    +0.000 OA
BRANCH  27  29
ATOM     28  C   UNL     1      -1.915  11.278  18.793  0.00  0.00    +0.000 C 
ATOM     29  C   UNL     1      -0.976  10.385  18.004  0.00  0.00    +0.000 C 
ENDBRANCH  27  29
ENDBRANCH  21  27
ENDBRANCH  20  24
ENDBRANCH   1  20
TORSDOF 6
ENDMDL
MODEL 4
REMARK VINA RESULT:      -7.9      1.018      1.480
REMARK  Name = 
REMARK  7 active torsions:
REMARK  status: ('A' for Active; 'I' for Inactive)
REMARK    1  A    between atoms: C_1  and  C_2
REMARK    2  A    between atoms: C_2  and  O_3
REMARK    3  A    between atoms: O_3  and  C_4
REMARK    4  A    between atoms: C_7  and  O_8
REMARK    5  A    between atoms: O_8  and  C_9
REMARK    6  A    between atoms: C_15  and  C_16
REMARK    7  A    between atoms: N_18  and  C_19
REMARK                            x       y       z     vdW  Elec       q    Type
REMARK                         _______ _______ _______ _____ _____    ______ ____
ROOT
ATOM      1  C   UNL     1       2.204   5.347  19.660  0.00  0.00    +0.000 A 
ATOM      2  C   UNL     1       1.265   4.736  20.522  0.00  0.00    +0.000 A 
ATOM      3  C   UNL     1       0.645   3.538  20.173  0.00  0.00    +0.000 A 
ATOM      4  C   UNL     1       1.009   2.908  18.998  0.00  0.00    +0.000 A 
ATOM      5  F   UNL     1       0.419   1.756  18.656  0.00  0.00    +0.000 F 
ATOM      6  C   UNL     1       1.984   3.452  18.174  0.00  0.00    +0.000 A 
ATOM      7  C   UNL     1       2.603   4.681  18.487  0.00  0.00    +0.000 A 
ENDROOT
BRANCH   7   8
ATOM      8  C   UNL     1       3.633   5.135  17.493  0.00  0.00    +0.000 C 
ATOM      9  O   UNL     1       3.665   6.337  17.231  0.00  0.00    +0.000 OA
ATOM     10  N   UNL     1       4.480   4.201  16.917  0.00  0.00    +0.000 N 
ATOM     11  H   UNL     1       4.352   3.236  17.205  0.00  0.00    +0.000 HD
BRANCH  10  12
ATOM     12  C   UNL     1       5.467   4.445  15.968  0.00  0.00    +0.000 A 
ATOM     13  C   UNL     1       6.602   5.245  16.406  0.00  0.00    +0.000 A 
ATOM     14  C   UNL     1       7.618   5.509  15.572  0.00  0.00    +0.000 A 
ATOM     15  N   UNL     1       7.597   5.039  14.288  0.00  0.00    +0.000 N 
ATOM     16  C   UNL     1       6.568   4.293  13.768  0.00  0.00    +0.000 A 
ATOM     17  O   UNL     1       6.568   3.891  12.606  0.00  0.00    +0.000 OA
ATOM     18  C   UNL     1       5.449   3.995  14.699  0.00  0.00    +0.000 A 
ATOM     19  H   UNL     1       8.360   5.231  13.649  0.00  0.00    +0.000 HD
ENDBRANCH  10  12
ENDBRANCH   7   8
BRANCH   1  20
ATOM     20  O   UNL     1       2.763   6.569  19.988  0.00  0.00    +0.000 OA
BRANCH  20  24
ATOM     21  C   UNL     1       0.236   9.907  20.000  0.00  0.00    +0.000 A 
ATOM     22  C   UNL     1       0.984   9.565  18.871  0.00  0.00    +0.000 A 
ATOM     23  C   UNL     1       1.832   8.450  18.893  0.00  0.00    +0.000 A 
ATOM     24  C   UNL     1       1.945   7.682  20.053  0.00  0.00    +0.000 A 
ATOM     25  C   UNL     1       1.208   8.037  21.188  0.00  0.00    +0.000 A 
ATOM     26  C   UNL     1       0.388   9.168  21.172  0.00  0.00    +0.000 A 
BRANCH  21  27
ATOM     27  O   UNL     1      -0.620  10.966  19.853  0.00  0.00    +0.000 OA
BRANCH  27  29
ATOM     28  C   UNL     1      -0.728  12.822  18.341  0.00  0.00    +0.000 C 
ATOM     29  C   UNL     1      -0.917  11.325  18.500  0.00  0.00    +0.000 C 
ENDBRANCH  27  29
ENDBRANCH  21  27
ENDBRANCH  20  24
ENDBRANCH   1  20
TORSDOF 6
ENDMDL
MODEL 5
REMARK VINA RESULT:      -7.9      2.689      7.501
REMARK  Name = 
REMARK  7 active torsions:
REMARK  status: ('A' for Active; 'I' for Inactive)
REMARK    1  A    between atoms: C_1  and  C_2
REMARK    2  A    between atoms: C_2  and  O_3
REMARK    3  A    between atoms: O_3  and  C_4
REMARK    4  A    between atoms: C_7  and  O_8
REMARK    5  A    between atoms: O_8  and  C_9
REMARK    6  A    between atoms: C_15  and  C_16
REMARK    7  A    between atoms: N_18  and  C_19
REMARK                            x       y       z     vdW  Elec       q    Type
REMARK                         _______ _______ _______ _____ _____    ______ ____
ROOT
ATOM      1  C   UNL     1       4.026   4.771  19.547  0.00  0.00    +0.000 A 
ATOM      2  C   UNL     1       4.284   3.388  19.665  0.00  0.00    +0.000 A 
ATOM      3  C   UNL     1       3.399   2.546  20.337  0.00  0.00    +0.000 A 
ATOM      4  C   UNL     1       2.219   3.069  20.832  0.00  0.00    +0.000 A 
ATOM      5  F   UNL     1       1.362   2.268  21.478  0.00  0.00    +0.000 F 
ATOM      6  C   UNL     1       1.910   4.411  20.661  0.00  0.00    +0.000 A 
ATOM      7  C   UNL     1       2.804   5.290  20.015  0.00  0.00    +0.000 A 
ENDROOT
BRANCH   7   8
ATOM      8  C   UNL     1       2.325   6.710  19.913  0.00  0.00    +0.000 C 
ATOM      9  O   UNL     1       2.626   7.329  18.894  0.00  0.00    +0.000 OA
ATOM     10  N   UNL     1       1.588   7.254  20.954  0.00  0.00    +0.000 N 
ATOM     11  H   UNL     1       1.411   6.648  21.748  0.00  0.00    +0.000 HD
BRANCH  10  12
ATOM     12  C   UNL     1       1.090   8.550  21.032  0.00  0.00    +0.000 A 
ATOM     13  C   UNL     1       1.104   9.325  19.800  0.00  0.00    +0.000 A 
ATOM     14  C   UNL     1       0.617  10.574  19.770  0.00  0.00    +0.000 A 
ATOM     15  N   UNL     1       0.110  11.145  20.904  0.00  0.00    +0.000 N 
ATOM     16  C   UNL     1       0.066  10.511  22.121  0.00  0.00    +0.000 A 
ATOM     17  O   UNL     1      -0.386  11.050  23.129  0.00  0.00    +0.000 OA
ATOM     18  C   UNL     1       0.598   9.124  22.147  0.00  0.00    +0.000 A 
ATOM     19  H   UNL     1      -0.263  12.088  20.891  0.00  0.00    +0.000 HD
ENDBRANCH  10  12
ENDBRANCH   7   8
BRANCH   1  20
ATOM     20  O   UNL     1       4.944   5.605  18.935  0.00  0.00    +0.000 OA
BRANCH  20  24
ATOM     21  C   UNL     1       6.470   4.634  15.159  0.00  0.00    +0.000 A 
ATOM     22  C   UNL     1       5.221   5.241  15.305  0.00  0.00    +0.000 A 
ATOM     23  C   UNL     1       4.725   5.547  16.578  0.00  0.00    +0.000 A 
ATOM     24  C   UNL     1       5.474   5.232  17.713  0.00  0.00    +0.000 A 
ATOM     25  C   UNL     1       6.717   4.607  17.566  0.00  0.00    +0.000 A 
ATOM     26  C   UNL     1       7.194   4.274  16.296  0.00  0.00    +0.000 A 
BRANCH  21  27
ATOM     27  O   UNL     1       6.900   4.446  13.873  0.00  0.00    +0.000 OA
BRANCH  27  29
ATOM     28  C   UNL     1       6.473   2.948  12.052  0.00  0.00    +0.000 C 
ATOM     29  C   UNL     1       5.890   4.022  12.951  0.00  0.00    +0.000 C 
ENDBRANCH  27  29
ENDBRANCH  21  27
ENDBRANCH  20  24
ENDBRANCH   1  20
TORSDOF 6
ENDMDL
MODEL 6
REMARK VINA RESULT:      -7.8      1.015      1.154
REMARK  Name = 
REMARK  7 active torsions:
REMARK  status: ('A' for Active; 'I' for Inactive)
REMARK    1  A    between atoms: C_1  and  C_2
REMARK    2  A    between atoms: C_2  and  O_3
REMARK    3  A    between atoms: O_3  and  C_4
REMARK    4  A    between atoms: C_7  and  O_8
REMARK    5  A    between atoms: O_8  and  C_9
REMARK    6  A    between atoms: C_15  and  C_16
REMARK    7  A    between atoms: N_18  and  C_19
REMARK                            x       y       z     vdW  Elec       q    Type
REMARK                         _______ _______ _______ _____ _____    ______ ____
ROOT
ATOM      1  C   UNL     1       2.208   5.295  19.663  0.00  0.00    +0.000 A 
ATOM      2  C   UNL     1       1.272   4.676  20.521  0.00  0.00    +0.000 A 
ATOM      3  C   UNL     1       0.650   3.480  20.164  0.00  0.00    +0.000 A 
ATOM      4  C   UNL     1       1.011   2.862  18.982  0.00  0.00    +0.000 A 
ATOM      5  F   UNL     1       0.420   1.713  18.631  0.00  0.00    +0.000 F 
ATOM      6  C   UNL     1       1.984   3.412  18.160  0.00  0.00    +0.000 A 
ATOM      7  C   UNL     1       2.604   4.639  18.482  0.00  0.00    +0.000 A 
ENDROOT
BRANCH   7   8
ATOM      8  C   UNL     1       3.631   5.102  17.489  0.00  0.00    +0.000 C 
ATOM      9  O   UNL     1       3.657   6.304  17.233  0.00  0.00    +0.000 OA
ATOM     10  N   UNL     1       4.482   4.174  16.909  0.00  0.00    +0.000 N 
ATOM     11  H   UNL     1       4.358   3.207  17.193  0.00  0.00    +0.000 HD
BRANCH  10  12
ATOM     12  C   UNL     1       5.467   4.427  15.961  0.00  0.00    +0.000 A 
ATOM     13  C   UNL     1       6.597   5.233  16.401  0.00  0.00    +0.000 A 
ATOM     14  C   UNL     1       7.611   5.505  15.567  0.00  0.00    +0.000 A 
ATOM     15  N   UNL     1       7.593   5.039  14.281  0.00  0.00    +0.000 N 
ATOM     16  C   UNL     1       6.569   4.287  13.760  0.00  0.00    +0.000 A 
ATOM     17  O   UNL     1       6.571   3.887  12.597  0.00  0.00    +0.000 OA
ATOM     18  C   UNL     1       5.452   3.980  14.691  0.00  0.00    +0.000 A 
ATOM     19  H   UNL     1       8.355   5.237  13.643  0.00  0.00    +0.000 HD
ENDBRANCH  10  12
ENDBRANCH   7   8
BRANCH   1  20
ATOM     20  O   UNL     1       2.768   6.513  20.000  0.00  0.00    +0.000 OA
BRANCH  20  24
ATOM     21  C   UNL     1       0.469  10.010  19.882  0.00  0.00    +0.000 A 
ATOM     22  C   UNL     1       0.550   9.231  21.038  0.00  0.00    +0.000 A 
ATOM     23  C   UNL     1       1.316   8.059  21.053  0.00  0.00    +0.000 A 
ATOM     24  C   UNL     1       1.993   7.654  19.901  0.00  0.00    +0.000 A 
ATOM     25  C   UNL     1       1.896   8.426  18.738  0.00  0.00    +0.000 A 
ATOM     26  C   UNL     1       1.104   9.578  18.719  0.00  0.00    +0.000 A 
BRANCH  21  27
ATOM     27  O   UNL     1      -0.241  11.175  19.993  0.00  0.00    +0.000 OA
BRANCH  27  29
ATOM     28  C   UNL     1      -2.281  12.403  19.717  0.00  0.00    +0.000 C 
ATOM     29  C   UNL     1      -1.460  11.219  19.243  0.00  0.00    +0.000 C 
ENDBRANCH  27  29
ENDBRANCH  21  27
ENDBRANCH  20  24
ENDBRANCH   1  20
TORSDOF 6
ENDMDL
MODEL 7
REMARK VINA RESULT:      -7.8      2.331      6.780
REMARK  Name = 
REMARK  7 active torsions:
REMARK  status: ('A' for Active; 'I' for Inactive)
REMARK    1  A    between atoms: C_1  and  C_2
REMARK    2  A    between atoms: C_2  and  O_3
REMARK    3  A    between atoms: O_3  and  C_4
REMARK    4  A    between atoms: C_7  and  O_8
REMARK    5  A    between atoms: O_8  and  C_9
REMARK    6  A    between atoms: C_15  and  C_16
REMARK    7  A    between atoms: N_18  and  C_19
REMARK                            x       y       z     vdW  Elec       q    Type
REMARK                         _______ _______ _______ _____ _____    ______ ____
ROOT
ATOM      1  C   UNL     1       3.617   5.138  19.682  0.00  0.00    +0.000 A 
ATOM      2  C   UNL     1       3.803   3.738  19.733  0.00  0.00    +0.000 A 
ATOM      3  C   UNL     1       2.825   2.903  20.270  0.00  0.00    +0.000 A 
ATOM      4  C   UNL     1       1.630   3.451  20.695  0.00  0.00    +0.000 A 
ATOM      5  F   UNL     1       0.685   2.656  21.211  0.00  0.00    +0.000 F 
ATOM      6  C   UNL     1       1.395   4.814  20.583  0.00  0.00    +0.000 A 
ATOM      7  C   UNL     1       2.381   5.687  20.075  0.00  0.00    +0.000 A 
ENDROOT
BRANCH   7   8
ATOM      8  C   UNL     1       1.975   7.132  20.023  0.00  0.00    +0.000 C 
ATOM      9  O   UNL     1       1.647   7.657  21.085  0.00  0.00    +0.000 OA
ATOM     10  N   UNL     1       1.978   7.795  18.805  0.00  0.00    +0.000 N 
ATOM     11  H   UNL     1       2.260   7.252  17.995  0.00  0.00    +0.000 HD
BRANCH  10  12
ATOM     12  C   UNL     1       1.611   9.117  18.577  0.00  0.00    +0.000 A 
ATOM     13  C   UNL     1       0.184   9.404  18.585  0.00  0.00    +0.000 A 
ATOM     14  C   UNL     1      -0.265  10.654  18.404  0.00  0.00    +0.000 A 
ATOM     15  N   UNL     1       0.614  11.680  18.196  0.00  0.00    +0.000 N 
ATOM     16  C   UNL     1       1.977  11.517  18.151  0.00  0.00    +0.000 A 
ATOM     17  O   UNL     1       2.746  12.455  17.952  0.00  0.00    +0.000 OA
ATOM     18  C   UNL     1       2.470  10.132  18.362  0.00  0.00    +0.000 A 
ATOM     19  H   UNL     1       0.285  12.630  18.060  0.00  0.00    +0.000 HD
ENDBRANCH  10  12
ENDBRANCH   7   8
BRANCH   1  20
ATOM     20  O   UNL     1       4.621   5.961  19.206  0.00  0.00    +0.000 OA
BRANCH  20  24
ATOM     21  C   UNL     1       6.435   4.934  15.576  0.00  0.00    +0.000 A 
ATOM     22  C   UNL     1       7.077   4.716  16.796  0.00  0.00    +0.000 A 
ATOM     23  C   UNL     1       6.456   5.077  17.999  0.00  0.00    +0.000 A 
ATOM     24  C   UNL     1       5.194   5.674  17.981  0.00  0.00    +0.000 A 
ATOM     25  C   UNL     1       4.561   5.908  16.755  0.00  0.00    +0.000 A 
ATOM     26  C   UNL     1       5.197   5.576  15.557  0.00  0.00    +0.000 A 
BRANCH  21  27
ATOM     27  O   UNL     1       7.091   4.476  14.464  0.00  0.00    +0.000 OA
BRANCH  27  29
ATOM     28  C   UNL     1       7.030   3.847  12.153  0.00  0.00    +0.000 C 
ATOM     29  C   UNL     1       6.251   3.911  13.453  0.00  0.00    +0.000 C 
ENDBRANCH  27  29
ENDBRANCH  21  27
ENDBRANCH  20  24
ENDBRANCH   1  20
TORSDOF 6
ENDMDL
MODEL 8
REMARK VINA RESULT:      -7.7      1.071      1.687
REMARK  Name = 
REMARK  7 active torsions:
REMARK  status: ('A' for Active; 'I' for Inactive)
REMARK    1  A    between atoms: C_1  and  C_2
REMARK    2  A    between atoms: C_2  and  O_3
REMARK    3  A    between atoms: O_3  and  C_4
REMARK    4  A    between atoms: C_7  and  O_8
REMARK    5  A    between atoms: O_8  and  C_9
REMARK    6  A    between atoms: C_15  and  C_16
REMARK    7  A    between atoms: N_18  and  C_19
REMARK                            x       y       z     vdW  Elec       q    Type
REMARK                         _______ _______ _______ _____ _____    ______ ____
ROOT
ATOM      1  C   UNL     1       2.047   4.592  20.024  0.00  0.00    +0.000 A 
ATOM      2  C   UNL     1       0.795   4.135  20.494  0.00  0.00    +0.000 A 
ATOM      3  C   UNL     1       0.184   3.014  19.936  0.00  0.00    +0.000 A 
ATOM      4  C   UNL     1       0.850   2.302  18.956  0.00  0.00    +0.000 A 
ATOM      5  F   UNL     1       0.271   1.223  18.415  0.00  0.00    +0.000 F 
ATOM      6  C   UNL     1       2.113   2.689  18.533  0.00  0.00    +0.000 A 
ATOM      7  C   UNL     1       2.740   3.840  19.057  0.00  0.00    +0.000 A 
ENDROOT
BRANCH   7   8
ATOM      8  C   UNL     1       4.102   4.125  18.493  0.00  0.00    +0.000 C 
ATOM      9  O   UNL     1       5.070   3.776  19.167  0.00  0.00    +0.000 OA
ATOM     10  N   UNL     1       4.209   4.765  17.268  0.00  0.00    +0.000 N 
ATOM     11  H   UNL     1       3.339   5.013  16.809  0.00  0.00    +0.000 HD
BRANCH  10  12
ATOM     12  C   UNL     1       5.385   5.123  16.617  0.00  0.00    +0.000 A 
ATOM     13  C   UNL     1       5.725   4.357  15.426  0.00  0.00    +0.000 A 
ATOM     14  C   UNL     1       6.823   4.648  14.715  0.00  0.00    +0.000 A 
ATOM     15  N   UNL     1       7.650   5.664  15.105  0.00  0.00    +0.000 N 
ATOM     16  C   UNL     1       7.433   6.435  16.220  0.00  0.00    +0.000 A 
ATOM     17  O   UNL     1       8.198   7.337  16.556  0.00  0.00    +0.000 OA
ATOM     18  C   UNL     1       6.210   6.115  17.000  0.00  0.00    +0.000 A 
ATOM     19  H   UNL     1       8.482   5.894  14.573  0.00  0.00    +0.000 HD
ENDBRANCH  10  12
ENDBRANCH   7   8
BRANCH   1  20
ATOM     20  O   UNL     1       2.611   5.743  20.542  0.00  0.00    +0.000 OA
BRANCH  20  24
ATOM     21  C   UNL     1       1.190   9.379  19.030  0.00  0.00    +0.000 A 
ATOM     22  C   UNL     1       1.996   8.538  18.261  0.00  0.00    +0.000 A 
ATOM     23  C   UNL     1       2.470   7.331  18.791  0.00  0.00    +0.000 A 
ATOM     24  C   UNL     1       2.149   6.969  20.101  0.00  0.00    +0.000 A 
ATOM     25  C   UNL     1       1.356   7.823  20.875  0.00  0.00    +0.000 A 
ATOM     26  C   UNL     1       0.912   9.041  20.354  0.00  0.00    +0.000 A 
BRANCH  21  27
ATOM     27  O   UNL     1       0.714  10.496  18.397  0.00  0.00    +0.000 OA
BRANCH  27  29
ATOM     28  C   UNL     1      -1.631  10.328  17.935  0.00  0.00    +0.000 C 
ATOM     29  C   UNL     1      -0.574  10.941  18.834  0.00  0.00    +0.000 C 
ENDBRANCH  27  29
ENDBRANCH  21  27
ENDBRANCH  20  24
ENDBRANCH   1  20
TORSDOF 6
ENDMDL
MODEL 9
REMARK VINA RESULT:      -7.6      2.636      7.397
REMARK  Name = 
REMARK  7 active torsions:
REMARK  status: ('A' for Active; 'I' for Inactive)
REMARK    1  A    between atoms: C_1  and  C_2
REMARK    2  A    between atoms: C_2  and  O_3
REMARK    3  A    between atoms: O_3  and  C_4
REMARK    4  A    between atoms: C_7  and  O_8
REMARK    5  A    between atoms: O_8  and  C_9
REMARK    6  A    between atoms: C_15  and  C_16
REMARK    7  A    between atoms: N_18  and  C_19
REMARK                            x       y       z     vdW  Elec       q    Type
REMARK                         _______ _______ _______ _____ _____    ______ ____
ROOT
ATOM      1  C   UNL     1       3.781   5.286  19.622  0.00  0.00    +0.000 A 
ATOM      2  C   UNL     1       3.913   3.904  19.881  0.00  0.00    +0.000 A 
ATOM      3  C   UNL     1       2.861   3.171  20.426  0.00  0.00    +0.000 A 
ATOM      4  C   UNL     1       1.650   3.798  20.650  0.00  0.00    +0.000 A 
ATOM      5  F   UNL     1       0.632   3.102  21.173  0.00  0.00    +0.000 F 
ATOM      6  C   UNL     1       1.474   5.137  20.332  0.00  0.00    +0.000 A 
ATOM      7  C   UNL     1       2.534   5.910  19.810  0.00  0.00    +0.000 A 
ENDROOT
BRANCH   7   8
ATOM      8  C   UNL     1       2.184   7.342  19.523  0.00  0.00    +0.000 C 
ATOM      9  O   UNL     1       2.722   7.863  18.548  0.00  0.00    +0.000 OA
ATOM     10  N   UNL     1       1.296   8.005  20.356  0.00  0.00    +0.000 N 
ATOM     11  H   UNL     1       0.923   7.472  21.136  0.00  0.00    +0.000 HD
BRANCH  10  12
ATOM     12  C   UNL     1       0.884   9.329  20.248  0.00  0.00    +0.000 A 
ATOM     13  C   UNL     1       0.102   9.670  19.068  0.00  0.00    +0.000 A 
ATOM     14  C   UNL     1      -0.364  10.914  18.891  0.00  0.00    +0.000 A 
ATOM     15  N   UNL     1      -0.102  11.888  19.814  0.00  0.00    +0.000 N 
ATOM     16  C   UNL     1       0.639  11.678  20.951  0.00  0.00    +0.000 A 
ATOM     17  O   UNL     1       0.870  12.574  21.761  0.00  0.00    +0.000 OA
ATOM     18  C   UNL     1       1.147  10.296  21.148  0.00  0.00    +0.000 A 
ATOM     19  H   UNL     1      -0.452  12.832  19.691  0.00  0.00    +0.000 HD
ENDBRANCH  10  12
ENDBRANCH   7   8
BRANCH   1  20
ATOM     20  O   UNL     1       4.854   6.015  19.142  0.00  0.00    +0.000 OA
BRANCH  20  24
ATOM     21  C   UNL     1       6.456   4.913  15.433  0.00  0.00    +0.000 A 
ATOM     22  C   UNL     1       7.082   4.560  16.630  0.00  0.00    +0.000 A 
ATOM     23  C   UNL     1       6.535   4.948  17.859  0.00  0.00    +0.000 A 
ATOM     24  C   UNL     1       5.364   5.707  17.893  0.00  0.00    +0.000 A 
ATOM     25  C   UNL     1       4.748   6.075  16.692  0.00  0.00    +0.000 A 
ATOM     26  C   UNL     1       5.314   5.713  15.468  0.00  0.00    +0.000 A 
BRANCH  21  27
ATOM     27  O   UNL     1       7.026   4.421  14.290  0.00  0.00    +0.000 OA
BRANCH  27  29
ATOM     28  C   UNL     1       6.727   3.660  12.037  0.00  0.00    +0.000 C 
ATOM     29  C   UNL     1       6.141   3.688  13.436  0.00  0.00    +0.000 C 
ENDBRANCH  27  29
ENDBRANCH  21  27
ENDBRANCH  20  24
ENDBRANCH   1  20
TORSDOF 6
ENDMDL
