MODEL 1
REMARK VINA RESULT:      -7.6      0.000      0.000
REMARK  Name = 
REMARK  6 active torsions:
REMARK  status: ('A' for Active; 'I' for Inactive)
REMARK    1  A    between atoms: C_1  and  O_2
REMARK    2  A    between atoms: O_2  and  C_3
REMARK    3  A    between atoms: C_6  and  S_7
REMARK    4  A    between atoms: S_7  and  C_8
REMARK    5  A    between atoms: C_18  and  C_19
REMARK    6  A    between atoms: N_21  and  C_22
REMARK                            x       y       z     vdW  Elec       q    Type
REMARK                         _______ _______ _______ _____ _____    ______ ____
ROOT
ATOM      1  C   UNL     1       4.233   5.112  18.982  0.00  0.00    +0.000 A 
ATOM      2  C   UNL     1       3.505   4.206  19.800  0.00  0.00    +0.000 A 
ATOM      3  C   UNL     1       3.936   2.890  20.115  0.00  0.00    +0.000 A 
ATOM      4  C   UNL     1       3.176   2.058  20.936  0.00  0.00    +0.000 A 
ATOM      5  C   UNL     1       1.989   2.531  21.474  0.00  0.00    +0.000 A 
ATOM      6  C   UNL     1       1.561   3.823  21.174  0.00  0.00    +0.000 A 
ATOM      7  C   UNL     1       2.285   4.667  20.346  0.00  0.00    +0.000 A 
ATOM      8  N   UNL     1       1.781   5.892  20.146  0.00  0.00    +0.000 NA
ATOM      9  C   UNL     1       2.445   6.626  19.240  0.00  0.00    +0.000 A 
ATOM     10  C   UNL     1       3.593   6.291  18.546  0.00  0.00    +0.000 A 
ATOM     11  C   UNL     1       3.734   7.348  17.594  0.00  0.00    +0.000 A 
ATOM     12  C   UNL     1       4.558   7.434  16.361  0.00  0.00    +0.000 C 
ATOM     13  N   UNL     1       2.893   8.367  17.853  0.00  0.00    +0.000 NA
ATOM     14  N   UNL     1       2.184   7.924  18.909  0.00  0.00    +0.000 N 
ATOM     15  C   UNL     1       1.379   8.829  19.687  0.00  0.00    +0.000 C 
ENDROOT
BRANCH   1  16
ATOM     16  S   UNL     1       6.023   5.045  18.865  0.00  0.00    +0.000 S 
BRANCH  16  20
ATOM     17  C   UNL     1       6.301   4.127  14.320  0.00  0.00    +0.000 A 
ATOM     18  C   UNL     1       7.301   4.859  14.964  0.00  0.00    +0.000 A 
ATOM     19  C   UNL     1       7.238   5.118  16.342  0.00  0.00    +0.000 A 
ATOM     20  C   UNL     1       6.157   4.657  17.099  0.00  0.00    +0.000 A 
ATOM     21  C   UNL     1       5.154   3.923  16.449  0.00  0.00    +0.000 A 
ATOM     22  C   UNL     1       5.221   3.668  15.071  0.00  0.00    +0.000 A 
BRANCH  17  24
ATOM     23  C   UNL     1       5.513   3.123  12.321  0.00  0.00    +0.000 C 
ATOM     24  O   UNL     1       6.480   3.946  12.975  0.00  0.00    +0.000 OA
ENDBRANCH  17  24
ENDBRANCH  16  20
ENDBRANCH   1  16
TORSDOF 3
ENDMDL
MODEL 2
REMARK VINA RESULT:      -7.5      0.433      1.070
REMARK  Name = 
REMARK  6 active torsions:
REMARK  status: ('A' for Active; 'I' for Inactive)
REMARK    1  A    between atoms: C_1  and  O_2
REMARK    2  A    between atoms: O_2  and  C_3
REMARK    3  A    between atoms: C_6  and  S_7
REMARK    4  A    between atoms: S_7  and  C_8
REMARK    5  A    between atoms: C_18  and  C_19
REMARK    6  A    between atoms: N_21  and  C_22
REMARK                            x       y       z     vdW  Elec       q    Type
REMARK                         _______ _______ _______ _____ _____    ______ ____
ROOT
ATOM      1  C   UNL     1       4.232   5.150  19.011  0.00  0.00    +0.000 A 
ATOM      2  C   UNL     1       3.562   4.225  19.857  0.00  0.00    +0.000 A 
ATOM      3  C   UNL     1       4.031   2.915  20.139  0.00  0.00    +0.000 A 
ATOM      4  C   UNL     1       3.329   2.062  20.990  0.00  0.00    +0.000 A 
ATOM      5  C   UNL     1       2.162   2.510  21.591  0.00  0.00    +0.000 A 
ATOM      6  C   UNL     1       1.697   3.797  21.324  0.00  0.00    +0.000 A 
ATOM      7  C   UNL     1       2.363   4.660  20.468  0.00  0.00    +0.000 A 
ATOM      8  N   UNL     1       1.829   5.877  20.304  0.00  0.00    +0.000 NA
ATOM      9  C   UNL     1       2.434   6.630  19.372  0.00  0.00    +0.000 A 
ATOM     10  C   UNL     1       3.550   6.321  18.618  0.00  0.00    +0.000 A 
ATOM     11  C   UNL     1       3.625   7.388  17.670  0.00  0.00    +0.000 A 
ATOM     12  C   UNL     1       4.384   7.498  16.397  0.00  0.00    +0.000 C 
ATOM     13  N   UNL     1       2.781   8.390  17.979  0.00  0.00    +0.000 NA
ATOM     14  N   UNL     1       2.133   7.926  19.065  0.00  0.00    +0.000 N 
ATOM     15  C   UNL     1       1.353   8.811  19.892  0.00  0.00    +0.000 C 
ENDROOT
BRANCH   1  16
ATOM     16  S   UNL     1       6.014   5.116  18.804  0.00  0.00    +0.000 S 
BRANCH  16  20
ATOM     17  C   UNL     1       6.220   3.981  14.304  0.00  0.00    +0.000 A 
ATOM     18  C   UNL     1       5.192   3.498  15.117  0.00  0.00    +0.000 A 
ATOM     19  C   UNL     1       5.107   3.858  16.471  0.00  0.00    +0.000 A 
ATOM     20  C   UNL     1       6.066   4.701  17.039  0.00  0.00    +0.000 A 
ATOM     21  C   UNL     1       7.098   5.183  16.220  0.00  0.00    +0.000 A 
ATOM     22  C   UNL     1       7.179   4.819  14.868  0.00  0.00    +0.000 A 
BRANCH  17  24
ATOM     23  C   UNL     1       7.137   4.161  12.125  0.00  0.00    +0.000 C 
ATOM     24  O   UNL     1       6.189   3.554  13.004  0.00  0.00    +0.000 OA
ENDBRANCH  17  24
ENDBRANCH  16  20
ENDBRANCH   1  16
TORSDOF 3
ENDMDL
MODEL 3
REMARK VINA RESULT:      -6.9      3.124      6.580
REMARK  Name = 
REMARK  6 active torsions:
REMARK  status: ('A' for Active; 'I' for Inactive)
REMARK    1  A    between atoms: C_1  and  O_2
REMARK    2  A    between atoms: O_2  and  C_3
REMARK    3  A    between atoms: C_6  and  S_7
REMARK    4  A    between atoms: S_7  and  C_8
REMARK    5  A    between atoms: C_18  and  C_19
REMARK    6  A    between atoms: N_21  and  C_22
REMARK                            x       y       z     vdW  Elec       q    Type
REMARK                         _______ _______ _______ _____ _____    ______ ____
ROOT
ATOM      1  C   UNL     1       5.201   3.996  16.478  0.00  0.00    +0.000 A 
ATOM      2  C   UNL     1       5.787   4.118  15.189  0.00  0.00    +0.000 A 
ATOM      3  C   UNL     1       5.286   3.488  14.020  0.00  0.00    +0.000 A 
ATOM      4  C   UNL     1       5.904   3.662  12.782  0.00  0.00    +0.000 A 
ATOM      5  C   UNL     1       7.016   4.484  12.687  0.00  0.00    +0.000 A 
ATOM      6  C   UNL     1       7.512   5.111  13.829  0.00  0.00    +0.000 A 
ATOM      7  C   UNL     1       6.930   4.942  15.076  0.00  0.00    +0.000 A 
ATOM      8  N   UNL     1       7.486   5.610  16.095  0.00  0.00    +0.000 NA
ATOM      9  C   UNL     1       6.971   5.318  17.299  0.00  0.00    +0.000 A 
ATOM     10  C   UNL     1       5.923   4.467  17.596  0.00  0.00    +0.000 A 
ATOM     11  C   UNL     1       5.940   4.391  19.022  0.00  0.00    +0.000 A 
ATOM     12  C   UNL     1       5.297   3.422  19.947  0.00  0.00    +0.000 C 
ATOM     13  N   UNL     1       6.761   5.313  19.560  0.00  0.00    +0.000 NA
ATOM     14  N   UNL     1       7.307   5.909  18.483  0.00  0.00    +0.000 N 
ATOM     15  C   UNL     1       8.017   7.155  18.612  0.00  0.00    +0.000 C 
ENDROOT
BRANCH   1  16
ATOM     16  S   UNL     1       3.443   3.699  16.689  0.00  0.00    +0.000 S 
BRANCH  16  20
ATOM     17  C   UNL     1       2.347   7.482  19.152  0.00  0.00    +0.000 A 
ATOM     18  C   UNL     1       1.943   6.213  19.573  0.00  0.00    +0.000 A 
ATOM     19  C   UNL     1       2.293   5.062  18.850  0.00  0.00    +0.000 A 
ATOM     20  C   UNL     1       3.045   5.168  17.676  0.00  0.00    +0.000 A 
ATOM     21  C   UNL     1       3.448   6.443  17.256  0.00  0.00    +0.000 A 
ATOM     22  C   UNL     1       3.094   7.590  17.981  0.00  0.00    +0.000 A 
BRANCH  17  24
ATOM     23  C   UNL     1       1.316   8.157  21.178  0.00  0.00    +0.000 C 
ATOM     24  O   UNL     1       1.938   8.520  19.944  0.00  0.00    +0.000 OA
ENDBRANCH  17  24
ENDBRANCH  16  20
ENDBRANCH   1  16
TORSDOF 3
ENDMDL
MODEL 4
REMARK VINA RESULT:      -6.9      5.696      8.922
REMARK  Name = 
REMARK  6 active torsions:
REMARK  status: ('A' for Active; 'I' for Inactive)
REMARK    1  A    between atoms: C_1  and  O_2
REMARK    2  A    between atoms: O_2  and  C_3
REMARK    3  A    between atoms: C_6  and  S_7
REMARK    4  A    between atoms: S_7  and  C_8
REMARK    5  A    between atoms: C_18  and  C_19
REMARK    6  A    between atoms: N_21  and  C_22
REMARK                            x       y       z     vdW  Elec       q    Type
REMARK                         _______ _______ _______ _____ _____    ______ ____
ROOT
ATOM      1  C   UNL     1      -1.594  11.884  19.537  0.00  0.00    +0.000 A 
ATOM      2  C   UNL     1      -1.927  12.347  20.839  0.00  0.00    +0.000 A 
ATOM      3  C   UNL     1      -0.989  12.525  21.889  0.00  0.00    +0.000 A 
ATOM      4  C   UNL     1      -1.384  12.997  23.141  0.00  0.00    +0.000 A 
ATOM      5  C   UNL     1      -2.716  13.319  23.357  0.00  0.00    +0.000 A 
ATOM      6  C   UNL     1      -3.643  13.152  22.330  0.00  0.00    +0.000 A 
ATOM      7  C   UNL     1      -3.283  12.668  21.082  0.00  0.00    +0.000 A 
ATOM      8  N   UNL     1      -4.259  12.567  20.170  0.00  0.00    +0.000 NA
ATOM      9  C   UNL     1      -3.891  11.977  19.022  0.00  0.00    +0.000 A 
ATOM     10  C   UNL     1      -2.638  11.519  18.662  0.00  0.00    +0.000 A 
ATOM     11  C   UNL     1      -2.872  10.819  17.438  0.00  0.00    +0.000 A 
ATOM     12  C   UNL     1      -2.025   9.841  16.707  0.00  0.00    +0.000 C 
ATOM     13  N   UNL     1      -4.111  11.046  16.963  0.00  0.00    +0.000 NA
ATOM     14  N   UNL     1      -4.671  11.819  17.913  0.00  0.00    +0.000 N 
ATOM     15  C   UNL     1      -5.894  12.533  17.655  0.00  0.00    +0.000 C 
ENDROOT
BRANCH   1  16
ATOM     16  S   UNL     1       0.027  12.173  18.822  0.00  0.00    +0.000 S 
BRANCH  16  20
ATOM     17  C   UNL     1       1.904   7.974  19.471  0.00  0.00    +0.000 A 
ATOM     18  C   UNL     1       1.216   8.616  20.503  0.00  0.00    +0.000 A 
ATOM     19  C   UNL     1       0.623   9.874  20.307  0.00  0.00    +0.000 A 
ATOM     20  C   UNL     1       0.724  10.517  19.070  0.00  0.00    +0.000 A 
ATOM     21  C   UNL     1       1.416   9.869  18.037  0.00  0.00    +0.000 A 
ATOM     22  C   UNL     1       2.008   8.614  18.238  0.00  0.00    +0.000 A 
BRANCH  17  24
ATOM     23  C   UNL     1       2.634   5.853  18.701  0.00  0.00    +0.000 C 
ATOM     24  O   UNL     1       2.436   6.754  19.792  0.00  0.00    +0.000 OA
ENDBRANCH  17  24
ENDBRANCH  16  20
ENDBRANCH   1  16
TORSDOF 3
ENDMDL
MODEL 5
REMARK VINA RESULT:      -6.8      5.656      8.973
REMARK  Name = 
REMARK  6 active torsions:
REMARK  status: ('A' for Active; 'I' for Inactive)
REMARK    1  A    between atoms: C_1  and  O_2
REMARK    2  A    between atoms: O_2  and  C_3
REMARK    3  A    between atoms: C_6  and  S_7
REMARK    4  A    between atoms: S_7  and  C_8
REMARK    5  A    between atoms: C_18  and  C_19
REMARK    6  A    between atoms: N_21  and  C_22
REMARK                            x       y       z     vdW  Elec       q    Type
REMARK                         _______ _______ _______ _____ _____    ______ ____
ROOT
ATOM      1  C   UNL     1      -1.496  11.947  19.626  0.00  0.00    +0.000 A 
ATOM      2  C   UNL     1      -1.842  12.436  20.915  0.00  0.00    +0.000 A 
ATOM      3  C   UNL     1      -0.911  12.660  21.962  0.00  0.00    +0.000 A 
ATOM      4  C   UNL     1      -1.319  13.154  23.200  0.00  0.00    +0.000 A 
ATOM      5  C   UNL     1      -2.658  13.454  23.406  0.00  0.00    +0.000 A 
ATOM      6  C   UNL     1      -3.578  13.242  22.381  0.00  0.00    +0.000 A 
ATOM      7  C   UNL     1      -3.205  12.734  21.146  0.00  0.00    +0.000 A 
ATOM      8  N   UNL     1      -4.177  12.590  20.236  0.00  0.00    +0.000 NA
ATOM      9  C   UNL     1      -3.794  11.979  19.104  0.00  0.00    +0.000 A 
ATOM     10  C   UNL     1      -2.531  11.538  18.758  0.00  0.00    +0.000 A 
ATOM     11  C   UNL     1      -2.746  10.802  17.552  0.00  0.00    +0.000 A 
ATOM     12  C   UNL     1      -1.877   9.825  16.847  0.00  0.00    +0.000 C 
ATOM     13  N   UNL     1      -3.989  10.992  17.069  0.00  0.00    +0.000 NA
ATOM     14  N   UNL     1      -4.567  11.777  17.997  0.00  0.00    +0.000 N 
ATOM     15  C   UNL     1      -5.805  12.459  17.719  0.00  0.00    +0.000 C 
ENDROOT
BRANCH   1  16
ATOM     16  S   UNL     1       0.120  12.252  18.907  0.00  0.00    +0.000 S 
BRANCH  16  20
ATOM     17  C   UNL     1       1.845   7.980  19.503  0.00  0.00    +0.000 A 
ATOM     18  C   UNL     1       2.003   8.651  18.288  0.00  0.00    +0.000 A 
ATOM     19  C   UNL     1       1.508   9.953  18.109  0.00  0.00    +0.000 A 
ATOM     20  C   UNL     1       0.830  10.600  19.146  0.00  0.00    +0.000 A 
ATOM     21  C   UNL     1       0.673   9.922  20.363  0.00  0.00    +0.000 A 
ATOM     22  C   UNL     1       1.167   8.621  20.537  0.00  0.00    +0.000 A 
BRANCH  17  24
ATOM     23  C   UNL     1       1.852   5.859  20.565  0.00  0.00    +0.000 C 
ATOM     24  O   UNL     1       2.371   6.717  19.547  0.00  0.00    +0.000 OA
ENDBRANCH  17  24
ENDBRANCH  16  20
ENDBRANCH   1  16
TORSDOF 3
ENDMDL
MODEL 6
REMARK VINA RESULT:      -6.6      8.092     10.074
REMARK  Name = 
REMARK  6 active torsions:
REMARK  status: ('A' for Active; 'I' for Inactive)
REMARK    1  A    between atoms: C_1  and  O_2
REMARK    2  A    between atoms: O_2  and  C_3
REMARK    3  A    between atoms: C_6  and  S_7
REMARK    4  A    between atoms: S_7  and  C_8
REMARK    5  A    between atoms: C_18  and  C_19
REMARK    6  A    between atoms: N_21  and  C_22
REMARK                            x       y       z     vdW  Elec       q    Type
REMARK                         _______ _______ _______ _____ _____    ______ ____
ROOT
ATOM      1  C   UNL     1       0.705  11.444  20.257  0.00  0.00    +0.000 A 
ATOM      2  C   UNL     1       1.275  12.610  19.678  0.00  0.00    +0.000 A 
ATOM      3  C   UNL     1       2.156  12.602  18.566  0.00  0.00    +0.000 A 
ATOM      4  C   UNL     1       2.670  13.788  18.040  0.00  0.00    +0.000 A 
ATOM      5  C   UNL     1       2.295  14.999  18.602  0.00  0.00    +0.000 A 
ATOM      6  C   UNL     1       1.426  15.016  19.692  0.00  0.00    +0.000 A 
ATOM      7  C   UNL     1       0.915  13.854  20.247  0.00  0.00    +0.000 A 
ATOM      8  N   UNL     1       0.076  13.998  21.281  0.00  0.00    +0.000 NA
ATOM      9  C   UNL     1      -0.292  12.848  21.865  0.00  0.00    +0.000 A 
ATOM     10  C   UNL     1       0.045  11.559  21.498  0.00  0.00    +0.000 A 
ATOM     11  C   UNL     1      -0.455  10.758  22.571  0.00  0.00    +0.000 A 
ATOM     12  C   UNL     1      -0.155   9.354  22.951  0.00  0.00    +0.000 C 
ATOM     13  N   UNL     1      -1.250  11.469  23.393  0.00  0.00    +0.000 NA
ATOM     14  N   UNL     1      -1.190  12.714  22.885  0.00  0.00    +0.000 N 
ATOM     15  C   UNL     1      -2.135  13.722  23.290  0.00  0.00    +0.000 C 
ENDROOT
BRANCH   1  16
ATOM     16  S   UNL     1       0.397   9.966  19.285  0.00  0.00    +0.000 S 
BRANCH  16  20
ATOM     17  C   UNL     1      -3.594  11.235  17.274  0.00  0.00    +0.000 A 
ATOM     18  C   UNL     1      -3.185  11.813  18.478  0.00  0.00    +0.000 A 
ATOM     19  C   UNL     1      -1.968  11.455  19.079  0.00  0.00    +0.000 A 
ATOM     20  C   UNL     1      -1.143  10.494  18.485  0.00  0.00    +0.000 A 
ATOM     21  C   UNL     1      -1.557   9.916  17.277  0.00  0.00    +0.000 A 
ATOM     22  C   UNL     1      -2.776  10.276  16.682  0.00  0.00    +0.000 A 
BRANCH  17  24
ATOM     23  C   UNL     1      -5.897  11.596  17.708  0.00  0.00    +0.000 C 
ATOM     24  O   UNL     1      -4.801  11.669  16.796  0.00  0.00    +0.000 OA
ENDBRANCH  17  24
ENDBRANCH  16  20
ENDBRANCH   1  16
TORSDOF 3
ENDMDL
MODEL 7
REMARK VINA RESULT:      -6.6      3.079      6.524
REMARK  Name = 
REMARK  6 active torsions:
REMARK  status: ('A' for Active; 'I' for Inactive)
REMARK    1  A    between atoms: C_1  and  O_2
REMARK    2  A    between atoms: O_2  and  C_3
REMARK    3  A    between atoms: C_6  and  S_7
REMARK    4  A    between atoms: S_7  and  C_8
REMARK    5  A    between atoms: C_18  and  C_19
REMARK    6  A    between atoms: N_21  and  C_22
REMARK                            x       y       z     vdW  Elec       q    Type
REMARK                         _______ _______ _______ _____ _____    ______ ____
ROOT
ATOM      1  C   UNL     1       5.149   3.927  16.441  0.00  0.00    +0.000 A 
ATOM      2  C   UNL     1       5.745   4.087  15.161  0.00  0.00    +0.000 A 
ATOM      3  C   UNL     1       5.270   3.469  13.975  0.00  0.00    +0.000 A 
ATOM      4  C   UNL     1       5.898   3.679  12.748  0.00  0.00    +0.000 A 
ATOM      5  C   UNL     1       6.994   4.526  12.681  0.00  0.00    +0.000 A 
ATOM      6  C   UNL     1       7.464   5.141  13.840  0.00  0.00    +0.000 A 
ATOM      7  C   UNL     1       6.873   4.936  15.076  0.00  0.00    +0.000 A 
ATOM      8  N   UNL     1       7.403   5.595  16.114  0.00  0.00    +0.000 NA
ATOM      9  C   UNL     1       6.882   5.269  17.307  0.00  0.00    +0.000 A 
ATOM     10  C   UNL     1       5.849   4.391  17.575  0.00  0.00    +0.000 A 
ATOM     11  C   UNL     1       5.852   4.288  19.001  0.00  0.00    +0.000 A 
ATOM     12  C   UNL     1       5.219   3.288  19.899  0.00  0.00    +0.000 C 
ATOM     13  N   UNL     1       6.647   5.216  19.565  0.00  0.00    +0.000 NA
ATOM     14  N   UNL     1       7.193   5.844  18.506  0.00  0.00    +0.000 N 
ATOM     15  C   UNL     1       7.876   7.102  18.666  0.00  0.00    +0.000 C 
ENDROOT
BRANCH   1  16
ATOM     16  S   UNL     1       3.395   3.590  16.627  0.00  0.00    +0.000 S 
BRANCH  16  20
ATOM     17  C   UNL     1       2.393   7.142  19.448  0.00  0.00    +0.000 A 
ATOM     18  C   UNL     1       3.049   7.357  18.234  0.00  0.00    +0.000 A 
ATOM     19  C   UNL     1       3.332   6.293  17.363  0.00  0.00    +0.000 A 
ATOM     20  C   UNL     1       2.972   4.986  17.705  0.00  0.00    +0.000 A 
ATOM     21  C   UNL     1       2.314   4.774  18.926  0.00  0.00    +0.000 A 
ATOM     22  C   UNL     1       2.036   5.840  19.793  0.00  0.00    +0.000 A 
BRANCH  17  24
ATOM     23  C   UNL     1       1.075   8.203  21.110  0.00  0.00    +0.000 C 
ATOM     24  O   UNL     1       2.179   8.262  20.205  0.00  0.00    +0.000 OA
ENDBRANCH  17  24
ENDBRANCH  16  20
ENDBRANCH   1  16
TORSDOF 3
ENDMDL
MODEL 8
REMARK VINA RESULT:      -6.6      6.653     10.035
REMARK  Name = 
REMARK  6 active torsions:
REMARK  status: ('A' for Active; 'I' for Inactive)
REMARK    1  A    between atoms: C_1  and  O_2
REMARK    2  A    between atoms: O_2  and  C_3
REMARK    3  A    between atoms: C_6  and  S_7
REMARK    4  A    between atoms: S_7  and  C_8
REMARK    5  A    between atoms: C_18  and  C_19
REMARK    6  A    between atoms: N_21  and  C_22
REMARK                            x       y       z     vdW  Elec       q    Type
REMARK                         _______ _______ _______ _____ _____    ______ ____
ROOT
ATOM      1  C   UNL     1      -2.806  12.306  20.078  0.00  0.00    +0.000 A 
ATOM      2  C   UNL     1      -3.508  12.554  21.289  0.00  0.00    +0.000 A 
ATOM      3  C   UNL     1      -2.887  12.700  22.557  0.00  0.00    +0.000 A 
ATOM      4  C   UNL     1      -3.637  12.955  23.704  0.00  0.00    +0.000 A 
ATOM      5  C   UNL     1      -5.013  13.091  23.602  0.00  0.00    +0.000 A 
ATOM      6  C   UNL     1      -5.630  12.955  22.360  0.00  0.00    +0.000 A 
ATOM      7  C   UNL     1      -4.914  12.683  21.205  0.00  0.00    +0.000 A 
ATOM      8  N   UNL     1      -5.616  12.591  20.068  0.00  0.00    +0.000 NA
ATOM      9  C   UNL     1      -4.900  12.202  19.001  0.00  0.00    +0.000 A 
ATOM     10  C   UNL     1      -3.545  11.942  18.932  0.00  0.00    +0.000 A 
ATOM     11  C   UNL     1      -3.372  11.385  17.627  0.00  0.00    +0.000 A 
ATOM     12  C   UNL     1      -2.242  10.615  17.046  0.00  0.00    +0.000 C 
ATOM     13  N   UNL     1      -4.479  11.529  16.874  0.00  0.00    +0.000 NA
ATOM     14  N   UNL     1      -5.358  12.102  17.719  0.00  0.00    +0.000 N 
ATOM     15  C   UNL     1      -6.572  12.699  17.226  0.00  0.00    +0.000 C 
ENDROOT
BRANCH   1  16
ATOM     16  S   UNL     1      -1.120  12.870  19.835  0.00  0.00    +0.000 S 
BRANCH  16  20
ATOM     17  C   UNL     1       0.970   8.794  20.608  0.00  0.00    +0.000 A 
ATOM     18  C   UNL     1       1.146   9.469  19.398  0.00  0.00    +0.000 A 
ATOM     19  C   UNL     1       0.540  10.714  19.166  0.00  0.00    +0.000 A 
ATOM     20  C   UNL     1      -0.270  11.298  20.145  0.00  0.00    +0.000 A 
ATOM     21  C   UNL     1      -0.445  10.617  21.358  0.00  0.00    +0.000 A 
ATOM     22  C   UNL     1       0.161   9.373  21.584  0.00  0.00    +0.000 A 
BRANCH  17  24
ATOM     23  C   UNL     1       2.335   7.171  19.547  0.00  0.00    +0.000 C 
ATOM     24  O   UNL     1       1.613   7.590  20.706  0.00  0.00    +0.000 OA
ENDBRANCH  17  24
ENDBRANCH  16  20
ENDBRANCH   1  16
TORSDOF 3
ENDMDL
MODEL 9
REMARK VINA RESULT:      -6.4      5.273      8.768
REMARK  Name = 
REMARK  6 active torsions:
REMARK  status: ('A' for Active; 'I' for Inactive)
REMARK    1  A    between atoms: C_1  and  O_2
REMARK    2  A    between atoms: O_2  and  C_3
REMARK    3  A    between atoms: C_6  and  S_7
REMARK    4  A    between atoms: S_7  and  C_8
REMARK    5  A    between atoms: C_18  and  C_19
REMARK    6  A    between atoms: N_21  and  C_22
REMARK                            x       y       z     vdW  Elec       q    Type
REMARK                         _______ _______ _______ _____ _____    ______ ____
ROOT
ATOM      1  C   UNL     1       0.439  12.249  20.183  0.00  0.00    +0.000 A 
ATOM      2  C   UNL     1       1.438  13.069  19.590  0.00  0.00    +0.000 A 
ATOM      3  C   UNL     1       2.180  12.714  18.433  0.00  0.00    +0.000 A 
ATOM      4  C   UNL     1       3.138  13.574  17.897  0.00  0.00    +0.000 A 
ATOM      5  C   UNL     1       3.355  14.807  18.492  0.00  0.00    +0.000 A 
ATOM      6  C   UNL     1       2.627  15.165  19.625  0.00  0.00    +0.000 A 
ATOM      7  C   UNL     1       1.682  14.325  20.192  0.00  0.00    +0.000 A 
ATOM      8  N   UNL     1       1.035  14.786  21.270  0.00  0.00    +0.000 NA
ATOM      9  C   UNL     1       0.224  13.893  21.858  0.00  0.00    +0.000 A 
ATOM     10  C   UNL     1      -0.052  12.599  21.459  0.00  0.00    +0.000 A 
ATOM     11  C   UNL     1      -0.808  12.062  22.546  0.00  0.00    +0.000 A 
ATOM     12  C   UNL     1      -1.137  10.655  22.893  0.00  0.00    +0.000 C 
ATOM     13  N   UNL     1      -1.177  13.020  23.417  0.00  0.00    +0.000 NA
ATOM     14  N   UNL     1      -0.599  14.131  22.921  0.00  0.00    +0.000 N 
ATOM     15  C   UNL     1      -0.989  15.436  23.387  0.00  0.00    +0.000 C 
ENDROOT
BRANCH   1  16
ATOM     16  S   UNL     1      -0.525  11.089  19.210  0.00  0.00    +0.000 S 
BRANCH  16  20
ATOM     17  C   UNL     1       2.389   7.472  19.235  0.00  0.00    +0.000 A 
ATOM     18  C   UNL     1       2.124   8.168  18.053  0.00  0.00    +0.000 A 
ATOM     19  C   UNL     1       1.265   9.278  18.042  0.00  0.00    +0.000 A 
ATOM     20  C   UNL     1       0.644   9.702  19.220  0.00  0.00    +0.000 A 
ATOM     21  C   UNL     1       0.913   9.001  20.405  0.00  0.00    +0.000 A 
ATOM     22  C   UNL     1       1.770   7.891  20.410  0.00  0.00    +0.000 A 
BRANCH  17  24
ATOM     23  C   UNL     1       3.063   5.598  17.946  0.00  0.00    +0.000 C 
ATOM     24  O   UNL     1       3.241   6.408  19.109  0.00  0.00    +0.000 OA
ENDBRANCH  17  24
ENDBRANCH  16  20
ENDBRANCH   1  16
TORSDOF 3
ENDMDL
