MODEL 1
REMARK VINA RESULT:      -7.9      0.000      0.000
REMARK  Name = 
REMARK  12 active torsions:
REMARK  status: ('A' for Active; 'I' for Inactive)
REMARK    1  A    between atoms: C_1  and  O_2
REMARK    2  A    between atoms: O_2  and  C_3
REMARK    3  A    between atoms: C_6  and  C_7
REMARK    4  A    between atoms: C_7  and  C_9
REMARK    5  A    between atoms: C_9  and  N_10
REMARK    6  A    between atoms: N_13  and  C_14
REMARK    7  A    between atoms: C_15  and  C_16
REMARK    8  A    between atoms: C_16  and  C_17
REMARK    9  A    between atoms: C_16  and  C_18
REMARK   10  A    between atoms: C_22  and  C_23
REMARK   11  A    between atoms: C_23  and  C_24
REMARK   12  A    between atoms: C_23  and  C_25
REMARK                            x       y       z     vdW  Elec       q    Type
REMARK                         _______ _______ _______ _____ _____    ______ ____
ROOT
ATOM      1  N   UNL     1       1.813   8.543  18.620  0.00  0.00    +0.000 N 
ATOM      2  C   UNL     1       1.752   8.187  19.949  0.00  0.00    +0.000 A 
ATOM      3  C   UNL     1       2.263   6.924  20.031  0.00  0.00    +0.000 A 
ATOM      4  N   UNL     1       2.521   6.482  18.733  0.00  0.00    +0.000 N 
ATOM      5  C   UNL     1       2.147   7.459  17.889  0.00  0.00    +0.000 A 
ENDROOT
BRANCH   4   6
ATOM      6  C   UNL     1       3.156   5.202  18.334  0.00  0.00    +0.000 A 
ATOM      7  C   UNL     1       4.292   5.259  17.471  0.00  0.00    +0.000 A 
ATOM      8  C   UNL     1       4.777   4.047  16.943  0.00  0.00    +0.000 A 
ATOM      9  C   UNL     1       4.217   2.831  17.298  0.00  0.00    +0.000 A 
ATOM     10  C   UNL     1       3.149   2.789  18.186  0.00  0.00    +0.000 A 
ATOM     11  C   UNL     1       2.576   3.957  18.737  0.00  0.00    +0.000 A 
BRANCH   7  12
ATOM     12  C   UNL     1       5.099   6.517  17.141  0.00  0.00    +0.000 C 
ATOM     13  C   UNL     1       6.538   6.451  17.682  0.00  0.00    +0.000 C 
ATOM     14  C   UNL     1       5.138   6.803  15.632  0.00  0.00    +0.000 C 
ENDBRANCH   7  12
BRANCH  11  15
ATOM     15  C   UNL     1       1.384   3.770  19.690  0.00  0.00    +0.000 C 
ATOM     16  C   UNL     1       0.427   2.660  19.237  0.00  0.00    +0.000 C 
ATOM     17  C   UNL     1       1.720   3.501  21.175  0.00  0.00    +0.000 C 
ENDBRANCH  11  15
ENDBRANCH   4   6
BRANCH   1  18
ATOM     18  C   UNL     1       1.684   9.913  18.090  0.00  0.00    +0.000 C 
BRANCH  18  19
ATOM     19  C   UNL     1       0.662  10.705  18.878  0.00  0.00    +0.000 C 
ATOM     20  O   UNL     1       1.025  11.476  19.766  0.00  0.00    +0.000 OA
BRANCH  19  24
ATOM     21  C   UNL     1      -3.426  10.847  17.589  0.00  0.00    +0.000 A 
ATOM     22  C   UNL     1      -2.959  11.691  18.597  0.00  0.00    +0.000 A 
ATOM     23  C   UNL     1      -1.631  11.623  19.022  0.00  0.00    +0.000 A 
ATOM     24  C   UNL     1      -0.761  10.690  18.447  0.00  0.00    +0.000 A 
ATOM     25  C   UNL     1      -1.233   9.831  17.448  0.00  0.00    +0.000 A 
ATOM     26  C   UNL     1      -2.564   9.904  17.031  0.00  0.00    +0.000 A 
BRANCH  21  28
ATOM     27  C   UNL     1      -5.462  11.970  18.014  0.00  0.00    +0.000 C 
ATOM     28  O   UNL     1      -4.740  11.006  17.255  0.00  0.00    +0.000 OA
ENDBRANCH  21  28
ENDBRANCH  19  24
ENDBRANCH  18  19
ENDBRANCH   1  18
TORSDOF 7
ENDMDL
MODEL 2
REMARK VINA RESULT:      -7.7      4.634      7.968
REMARK  Name = 
REMARK  12 active torsions:
REMARK  status: ('A' for Active; 'I' for Inactive)
REMARK    1  A    between atoms: C_1  and  O_2
REMARK    2  A    between atoms: O_2  and  C_3
REMARK    3  A    between atoms: C_6  and  C_7
REMARK    4  A    between atoms: C_7  and  C_9
REMARK    5  A    between atoms: C_9  and  N_10
REMARK    6  A    between atoms: N_13  and  C_14
REMARK    7  A    between atoms: C_15  and  C_16
REMARK    8  A    between atoms: C_16  and  C_17
REMARK    9  A    between atoms: C_16  and  C_18
REMARK   10  A    between atoms: C_22  and  C_23
REMARK   11  A    between atoms: C_23  and  C_24
REMARK   12  A    between atoms: C_23  and  C_25
REMARK                            x       y       z     vdW  Elec       q    Type
REMARK                         _______ _______ _______ _____ _____    ______ ____
ROOT
ATOM      1  N   UNL     1       5.864   6.102  17.398  0.00  0.00    +0.000 N 
ATOM      2  C   UNL     1       6.589   5.961  18.561  0.00  0.00    +0.000 A 
ATOM      3  C   UNL     1       5.726   5.454  19.491  0.00  0.00    +0.000 A 
ATOM      4  N   UNL     1       4.457   5.402  18.913  0.00  0.00    +0.000 N 
ATOM      5  C   UNL     1       4.558   5.893  17.666  0.00  0.00    +0.000 A 
ENDROOT
BRANCH   4   6
ATOM      6  C   UNL     1       3.222   4.847  19.518  0.00  0.00    +0.000 A 
ATOM      7  C   UNL     1       3.061   3.428  19.527  0.00  0.00    +0.000 A 
ATOM      8  C   UNL     1       1.813   2.912  19.928  0.00  0.00    +0.000 A 
ATOM      9  C   UNL     1       0.794   3.743  20.362  0.00  0.00    +0.000 A 
ATOM     10  C   UNL     1       0.988   5.119  20.403  0.00  0.00    +0.000 A 
ATOM     11  C   UNL     1       2.194   5.726  19.987  0.00  0.00    +0.000 A 
BRANCH   7  12
ATOM     12  C   UNL     1       4.159   2.404  19.234  0.00  0.00    +0.000 C 
ATOM     13  C   UNL     1       4.733   1.773  20.516  0.00  0.00    +0.000 C 
ATOM     14  C   UNL     1       3.678   1.289  18.293  0.00  0.00    +0.000 C 
ENDBRANCH   7  12
BRANCH  11  15
ATOM     15  C   UNL     1       2.268   7.260  20.063  0.00  0.00    +0.000 C 
ATOM     16  C   UNL     1       2.023   7.937  18.709  0.00  0.00    +0.000 C 
ATOM     17  C   UNL     1       1.338   7.948  21.089  0.00  0.00    +0.000 C 
ENDBRANCH  11  15
ENDBRANCH   4   6
BRANCH   1  18
ATOM     18  C   UNL     1       6.430   6.299  16.052  0.00  0.00    +0.000 C 
BRANCH  18  19
ATOM     19  C   UNL     1       7.066   5.025  15.537  0.00  0.00    +0.000 C 
ATOM     20  O   UNL     1       7.924   4.448  16.202  0.00  0.00    +0.000 OA
BRANCH  19  24
ATOM     21  C   UNL     1       5.333   3.292  12.017  0.00  0.00    +0.000 A 
ATOM     22  C   UNL     1       4.579   3.471  13.177  0.00  0.00    +0.000 A 
ATOM     23  C   UNL     1       5.159   4.019  14.323  0.00  0.00    +0.000 A 
ATOM     24  C   UNL     1       6.512   4.377  14.319  0.00  0.00    +0.000 A 
ATOM     25  C   UNL     1       7.273   4.180  13.161  0.00  0.00    +0.000 A 
ATOM     26  C   UNL     1       6.686   3.630  12.019  0.00  0.00    +0.000 A 
BRANCH  21  28
ATOM     27  C   UNL     1       3.506   3.464  10.528  0.00  0.00    +0.000 C 
ATOM     28  O   UNL     1       4.660   2.752  10.960  0.00  0.00    +0.000 OA
ENDBRANCH  21  28
ENDBRANCH  19  24
ENDBRANCH  18  19
ENDBRANCH   1  18
TORSDOF 7
ENDMDL
MODEL 3
REMARK VINA RESULT:      -7.6      0.520      3.290
REMARK  Name = 
REMARK  12 active torsions:
REMARK  status: ('A' for Active; 'I' for Inactive)
REMARK    1  A    between atoms: C_1  and  O_2
REMARK    2  A    between atoms: O_2  and  C_3
REMARK    3  A    between atoms: C_6  and  C_7
REMARK    4  A    between atoms: C_7  and  C_9
REMARK    5  A    between atoms: C_9  and  N_10
REMARK    6  A    between atoms: N_13  and  C_14
REMARK    7  A    between atoms: C_15  and  C_16
REMARK    8  A    between atoms: C_16  and  C_17
REMARK    9  A    between atoms: C_16  and  C_18
REMARK   10  A    between atoms: C_22  and  C_23
REMARK   11  A    between atoms: C_23  and  C_24
REMARK   12  A    between atoms: C_23  and  C_25
REMARK                            x       y       z     vdW  Elec       q    Type
REMARK                         _______ _______ _______ _____ _____    ______ ____
ROOT
ATOM      1  N   UNL     1       1.784   8.563  18.690  0.00  0.00    +0.000 N 
ATOM      2  C   UNL     1       1.817   8.158  20.007  0.00  0.00    +0.000 A 
ATOM      3  C   UNL     1       2.345   6.899  20.007  0.00  0.00    +0.000 A 
ATOM      4  N   UNL     1       2.520   6.509  18.679  0.00  0.00    +0.000 N 
ATOM      5  C   UNL     1       2.079   7.510  17.899  0.00  0.00    +0.000 A 
ENDROOT
BRANCH   4   6
ATOM      6  C   UNL     1       3.140   5.252  18.191  0.00  0.00    +0.000 A 
ATOM      7  C   UNL     1       2.568   4.015  18.617  0.00  0.00    +0.000 A 
ATOM      8  C   UNL     1       3.265   2.830  18.309  0.00  0.00    +0.000 A 
ATOM      9  C   UNL     1       4.431   2.852  17.562  0.00  0.00    +0.000 A 
ATOM     10  C   UNL     1       4.942   4.061  17.105  0.00  0.00    +0.000 A 
ATOM     11  C   UNL     1       4.329   5.300  17.395  0.00  0.00    +0.000 A 
BRANCH   7  12
ATOM     12  C   UNL     1       1.208   3.848  19.297  0.00  0.00    +0.000 C 
ATOM     13  C   UNL     1       0.438   2.620  18.779  0.00  0.00    +0.000 C 
ATOM     14  C   UNL     1       1.329   3.761  20.826  0.00  0.00    +0.000 C 
ENDBRANCH   7  12
BRANCH  11  15
ATOM     15  C   UNL     1       5.011   6.564  16.846  0.00  0.00    +0.000 C 
ATOM     16  C   UNL     1       6.404   6.796  17.442  0.00  0.00    +0.000 C 
ATOM     17  C   UNL     1       5.152   6.662  15.309  0.00  0.00    +0.000 C 
ENDBRANCH  11  15
ENDBRANCH   4   6
BRANCH   1  18
ATOM     18  C   UNL     1       1.604   9.949  18.222  0.00  0.00    +0.000 C 
BRANCH  18  19
ATOM     19  C   UNL     1       0.745  10.741  19.185  0.00  0.00    +0.000 C 
ATOM     20  O   UNL     1       1.263  11.360  20.113  0.00  0.00    +0.000 OA
BRANCH  19  24
ATOM     21  C   UNL     1      -3.394  11.441  18.305  0.00  0.00    +0.000 A 
ATOM     22  C   UNL     1      -2.744  12.147  19.318  0.00  0.00    +0.000 A 
ATOM     23  C   UNL     1      -1.401  11.897  19.608  0.00  0.00    +0.000 A 
ATOM     24  C   UNL     1      -0.702  10.919  18.892  0.00  0.00    +0.000 A 
ATOM     25  C   UNL     1      -1.359  10.198  17.888  0.00  0.00    +0.000 A 
ATOM     26  C   UNL     1      -2.702  10.453  17.605  0.00  0.00    +0.000 A 
BRANCH  21  28
ATOM     27  C   UNL     1      -5.643  10.718  18.281  0.00  0.00    +0.000 C 
ATOM     28  O   UNL     1      -4.703  11.773  18.109  0.00  0.00    +0.000 OA
ENDBRANCH  21  28
ENDBRANCH  19  24
ENDBRANCH  18  19
ENDBRANCH   1  18
TORSDOF 7
ENDMDL
MODEL 4
REMARK VINA RESULT:      -7.4      0.800      1.333
REMARK  Name = 
REMARK  12 active torsions:
REMARK  status: ('A' for Active; 'I' for Inactive)
REMARK    1  A    between atoms: C_1  and  O_2
REMARK    2  A    between atoms: O_2  and  C_3
REMARK    3  A    between atoms: C_6  and  C_7
REMARK    4  A    between atoms: C_7  and  C_9
REMARK    5  A    between atoms: C_9  and  N_10
REMARK    6  A    between atoms: N_13  and  C_14
REMARK    7  A    between atoms: C_15  and  C_16
REMARK    8  A    between atoms: C_16  and  C_17
REMARK    9  A    between atoms: C_16  and  C_18
REMARK   10  A    between atoms: C_22  and  C_23
REMARK   11  A    between atoms: C_23  and  C_24
REMARK   12  A    between atoms: C_23  and  C_25
REMARK                            x       y       z     vdW  Elec       q    Type
REMARK                         _______ _______ _______ _____ _____    ______ ____
ROOT
ATOM      1  N   UNL     1       1.732   8.321  19.240  0.00  0.00    +0.000 N 
ATOM      2  C   UNL     1       1.832   7.816  20.519  0.00  0.00    +0.000 A 
ATOM      3  C   UNL     1       2.355   6.561  20.395  0.00  0.00    +0.000 A 
ATOM      4  N   UNL     1       2.458   6.274  19.033  0.00  0.00    +0.000 N 
ATOM      5  C   UNL     1       1.981   7.332  18.357  0.00  0.00    +0.000 A 
ENDROOT
BRANCH   4   6
ATOM      6  C   UNL     1       3.047   5.058  18.418  0.00  0.00    +0.000 A 
ATOM      7  C   UNL     1       4.198   5.220  17.588  0.00  0.00    +0.000 A 
ATOM      8  C   UNL     1       4.641   4.100  16.858  0.00  0.00    +0.000 A 
ATOM      9  C   UNL     1       4.028   2.865  16.986  0.00  0.00    +0.000 A 
ATOM     10  C   UNL     1       2.945   2.712  17.844  0.00  0.00    +0.000 A 
ATOM     11  C   UNL     1       2.411   3.788  18.589  0.00  0.00    +0.000 A 
BRANCH   7  12
ATOM     12  C   UNL     1       5.060   6.480  17.494  0.00  0.00    +0.000 C 
ATOM     13  C   UNL     1       6.473   6.270  18.066  0.00  0.00    +0.000 C 
ATOM     14  C   UNL     1       5.170   7.002  16.054  0.00  0.00    +0.000 C 
ENDBRANCH   7  12
BRANCH  11  15
ATOM     15  C   UNL     1       1.197   3.485  19.483  0.00  0.00    +0.000 C 
ATOM     16  C   UNL     1       0.359   2.307  18.973  0.00  0.00    +0.000 C 
ATOM     17  C   UNL     1       1.488   3.221  20.979  0.00  0.00    +0.000 C 
ENDBRANCH  11  15
ENDBRANCH   4   6
BRANCH   1  18
ATOM     18  C   UNL     1       1.533   9.739  18.890  0.00  0.00    +0.000 C 
BRANCH  18  19
ATOM     19  C   UNL     1       0.232  10.263  19.462  0.00  0.00    +0.000 C 
ATOM     20  O   UNL     1       0.171  10.620  20.637  0.00  0.00    +0.000 OA
BRANCH  19  24
ATOM     21  C   UNL     1      -3.118  10.817  16.842  0.00  0.00    +0.000 A 
ATOM     22  C   UNL     1      -2.118   9.892  16.545  0.00  0.00    +0.000 A 
ATOM     23  C   UNL     1      -1.022   9.733  17.396  0.00  0.00    +0.000 A 
ATOM     24  C   UNL     1      -0.913  10.520  18.548  0.00  0.00    +0.000 A 
ATOM     25  C   UNL     1      -1.907  11.461  18.837  0.00  0.00    +0.000 A 
ATOM     26  C   UNL     1      -2.999  11.614  17.980  0.00  0.00    +0.000 A 
BRANCH  21  28
ATOM     27  C   UNL     1      -3.921  10.216  14.702  0.00  0.00    +0.000 C 
ATOM     28  O   UNL     1      -4.141  10.883  15.941  0.00  0.00    +0.000 OA
ENDBRANCH  21  28
ENDBRANCH  19  24
ENDBRANCH  18  19
ENDBRANCH   1  18
TORSDOF 7
ENDMDL
MODEL 5
REMARK VINA RESULT:      -7.4      0.703      3.483
REMARK  Name = 
REMARK  12 active torsions:
REMARK  status: ('A' for Active; 'I' for Inactive)
REMARK    1  A    between atoms: C_1  and  O_2
REMARK    2  A    between atoms: O_2  and  C_3
REMARK    3  A    between atoms: C_6  and  C_7
REMARK    4  A    between atoms: C_7  and  C_9
REMARK    5  A    between atoms: C_9  and  N_10
REMARK    6  A    between atoms: N_13  and  C_14
REMARK    7  A    between atoms: C_15  and  C_16
REMARK    8  A    between atoms: C_16  and  C_17
REMARK    9  A    between atoms: C_16  and  C_18
REMARK   10  A    between atoms: C_22  and  C_23
REMARK   11  A    between atoms: C_23  and  C_24
REMARK   12  A    between atoms: C_23  and  C_25
REMARK                            x       y       z     vdW  Elec       q    Type
REMARK                         _______ _______ _______ _____ _____    ______ ____
ROOT
ATOM      1  N   UNL     1       1.835   8.447  18.963  0.00  0.00    +0.000 N 
ATOM      2  C   UNL     1       1.838   7.945  20.246  0.00  0.00    +0.000 A 
ATOM      3  C   UNL     1       2.327   6.673  20.159  0.00  0.00    +0.000 A 
ATOM      4  N   UNL     1       2.508   6.377  18.807  0.00  0.00    +0.000 N 
ATOM      5  C   UNL     1       2.108   7.447  18.100  0.00  0.00    +0.000 A 
ENDROOT
BRANCH   4   6
ATOM      6  C   UNL     1       3.095   5.141  18.233  0.00  0.00    +0.000 A 
ATOM      7  C   UNL     1       2.558   3.887  18.655  0.00  0.00    +0.000 A 
ATOM      8  C   UNL     1       3.234   2.717  18.258  0.00  0.00    +0.000 A 
ATOM      9  C   UNL     1       4.345   2.770  17.434  0.00  0.00    +0.000 A 
ATOM     10  C   UNL     1       4.821   3.997  16.984  0.00  0.00    +0.000 A 
ATOM     11  C   UNL     1       4.226   5.223  17.360  0.00  0.00    +0.000 A 
BRANCH   7  12
ATOM     12  C   UNL     1       1.248   3.690  19.421  0.00  0.00    +0.000 C 
ATOM     13  C   UNL     1       0.390   2.554  18.836  0.00  0.00    +0.000 C 
ATOM     14  C   UNL     1       1.483   3.429  20.916  0.00  0.00    +0.000 C 
ENDBRANCH   7  12
BRANCH  11  15
ATOM     15  C   UNL     1       4.865   6.508  16.810  0.00  0.00    +0.000 C 
ATOM     16  C   UNL     1       6.132   6.918  17.571  0.00  0.00    +0.000 C 
ATOM     17  C   UNL     1       5.219   6.516  15.304  0.00  0.00    +0.000 C 
ENDBRANCH  11  15
ENDBRANCH   4   6
BRANCH   1  18
ATOM     18  C   UNL     1       1.704   9.869  18.598  0.00  0.00    +0.000 C 
BRANCH  18  19
ATOM     19  C   UNL     1       0.470  10.480  19.227  0.00  0.00    +0.000 C 
ATOM     20  O   UNL     1       0.529  10.978  20.351  0.00  0.00    +0.000 OA
BRANCH  19  24
ATOM     21  C   UNL     1      -3.119  10.771  16.897  0.00  0.00    +0.000 A 
ATOM     22  C   UNL     1      -2.136   9.830  16.591  0.00  0.00    +0.000 A 
ATOM     23  C   UNL     1      -0.964   9.757  17.345  0.00  0.00    +0.000 A 
ATOM     24  C   UNL     1      -0.759  10.645  18.407  0.00  0.00    +0.000 A 
ATOM     25  C   UNL     1      -1.737  11.602  18.703  0.00  0.00    +0.000 A 
ATOM     26  C   UNL     1      -2.906  11.669  17.943  0.00  0.00    +0.000 A 
BRANCH  21  28
ATOM     27  C   UNL     1      -3.994  10.395  14.734  0.00  0.00    +0.000 C 
ATOM     28  O   UNL     1      -4.222  10.747  16.094  0.00  0.00    +0.000 OA
ENDBRANCH  21  28
ENDBRANCH  19  24
ENDBRANCH  18  19
ENDBRANCH   1  18
TORSDOF 7
ENDMDL
MODEL 6
REMARK VINA RESULT:      -7.3      0.840      1.181
REMARK  Name = 
REMARK  12 active torsions:
REMARK  status: ('A' for Active; 'I' for Inactive)
REMARK    1  A    between atoms: C_1  and  O_2
REMARK    2  A    between atoms: O_2  and  C_3
REMARK    3  A    between atoms: C_6  and  C_7
REMARK    4  A    between atoms: C_7  and  C_9
REMARK    5  A    between atoms: C_9  and  N_10
REMARK    6  A    between atoms: N_13  and  C_14
REMARK    7  A    between atoms: C_15  and  C_16
REMARK    8  A    between atoms: C_16  and  C_17
REMARK    9  A    between atoms: C_16  and  C_18
REMARK   10  A    between atoms: C_22  and  C_23
REMARK   11  A    between atoms: C_23  and  C_24
REMARK   12  A    between atoms: C_23  and  C_25
REMARK                            x       y       z     vdW  Elec       q    Type
REMARK                         _______ _______ _______ _____ _____    ______ ____
ROOT
ATOM      1  N   UNL     1       1.747   8.456  19.449  0.00  0.00    +0.000 N 
ATOM      2  C   UNL     1       1.911   8.837  18.136  0.00  0.00    +0.000 A 
ATOM      3  C   UNL     1       2.457   7.764  17.492  0.00  0.00    +0.000 A 
ATOM      4  N   UNL     1       2.727   6.784  18.447  0.00  0.00    +0.000 N 
ATOM      5  C   UNL     1       2.368   7.275  19.646  0.00  0.00    +0.000 A 
ENDROOT
BRANCH   4   6
ATOM      6  C   UNL     1       3.248   5.416  18.203  0.00  0.00    +0.000 A 
ATOM      7  C   UNL     1       4.241   5.250  17.190  0.00  0.00    +0.000 A 
ATOM      8  C   UNL     1       4.597   3.937  16.830  0.00  0.00    +0.000 A 
ATOM      9  C   UNL     1       4.055   2.839  17.477  0.00  0.00    +0.000 A 
ATOM     10  C   UNL     1       3.133   3.020  18.501  0.00  0.00    +0.000 A 
ATOM     11  C   UNL     1       2.692   4.300  18.905  0.00  0.00    +0.000 A 
BRANCH   7  12
ATOM     12  C   UNL     1       5.032   6.378  16.523  0.00  0.00    +0.000 C 
ATOM     13  C   UNL     1       6.255   6.808  17.353  0.00  0.00    +0.000 C 
ATOM     14  C   UNL     1       5.488   6.008  15.104  0.00  0.00    +0.000 C 
ENDBRANCH   7  12
BRANCH  11  15
ATOM     15  C   UNL     1       1.652   4.357  20.037  0.00  0.00    +0.000 C 
ATOM     16  C   UNL     1       0.525   3.333  19.863  0.00  0.00    +0.000 C 
ATOM     17  C   UNL     1       2.189   4.201  21.478  0.00  0.00    +0.000 C 
ENDBRANCH  11  15
ENDBRANCH   4   6
BRANCH   1  18
ATOM     18  C   UNL     1       0.906   9.146  20.445  0.00  0.00    +0.000 C 
BRANCH  18  19
ATOM     19  C   UNL     1       0.564  10.548  19.989  0.00  0.00    +0.000 C 
ATOM     20  O   UNL     1       1.448  11.395  19.871  0.00  0.00    +0.000 OA
BRANCH  19  24
ATOM     21  C   UNL     1      -3.349  11.576  18.566  0.00  0.00    +0.000 A 
ATOM     22  C   UNL     1      -2.794  12.220  19.671  0.00  0.00    +0.000 A 
ATOM     23  C   UNL     1      -1.527  11.864  20.137  0.00  0.00    +0.000 A 
ATOM     24  C   UNL     1      -0.811  10.841  19.504  0.00  0.00    +0.000 A 
ATOM     25  C   UNL     1      -1.377  10.182  18.406  0.00  0.00    +0.000 A 
ATOM     26  C   UNL     1      -2.645  10.543  17.948  0.00  0.00    +0.000 A 
BRANCH  21  28
ATOM     27  C   UNL     1      -4.954  11.779  16.843  0.00  0.00    +0.000 C 
ATOM     28  O   UNL     1      -4.591  12.009  18.200  0.00  0.00    +0.000 OA
ENDBRANCH  21  28
ENDBRANCH  19  24
ENDBRANCH  18  19
ENDBRANCH   1  18
TORSDOF 7
ENDMDL
MODEL 7
REMARK VINA RESULT:      -7.3      0.696      1.383
REMARK  Name = 
REMARK  12 active torsions:
REMARK  status: ('A' for Active; 'I' for Inactive)
REMARK    1  A    between atoms: C_1  and  O_2
REMARK    2  A    between atoms: O_2  and  C_3
REMARK    3  A    between atoms: C_6  and  C_7
REMARK    4  A    between atoms: C_7  and  C_9
REMARK    5  A    between atoms: C_9  and  N_10
REMARK    6  A    between atoms: N_13  and  C_14
REMARK    7  A    between atoms: C_15  and  C_16
REMARK    8  A    between atoms: C_16  and  C_17
REMARK    9  A    between atoms: C_16  and  C_18
REMARK   10  A    between atoms: C_22  and  C_23
REMARK   11  A    between atoms: C_23  and  C_24
REMARK   12  A    between atoms: C_23  and  C_25
REMARK                            x       y       z     vdW  Elec       q    Type
REMARK                         _______ _______ _______ _____ _____    ______ ____
ROOT
ATOM      1  N   UNL     1       1.733   8.499  19.373  0.00  0.00    +0.000 N 
ATOM      2  C   UNL     1       2.047   8.906  18.095  0.00  0.00    +0.000 A 
ATOM      3  C   UNL     1       2.642   7.838  17.488  0.00  0.00    +0.000 A 
ATOM      4  N   UNL     1       2.788   6.831  18.443  0.00  0.00    +0.000 N 
ATOM      5  C   UNL     1       2.309   7.302  19.607  0.00  0.00    +0.000 A 
ENDROOT
BRANCH   4   6
ATOM      6  C   UNL     1       3.310   5.459  18.224  0.00  0.00    +0.000 A 
ATOM      7  C   UNL     1       4.310   5.277  17.221  0.00  0.00    +0.000 A 
ATOM      8  C   UNL     1       4.667   3.957  16.884  0.00  0.00    +0.000 A 
ATOM      9  C   UNL     1       4.119   2.870  17.544  0.00  0.00    +0.000 A 
ATOM     10  C   UNL     1       3.190   3.068  18.559  0.00  0.00    +0.000 A 
ATOM     11  C   UNL     1       2.748   4.355  18.939  0.00  0.00    +0.000 A 
BRANCH   7  12
ATOM     12  C   UNL     1       5.107   6.393  16.543  0.00  0.00    +0.000 C 
ATOM     13  C   UNL     1       6.366   6.782  17.338  0.00  0.00    +0.000 C 
ATOM     14  C   UNL     1       5.509   6.029  15.106  0.00  0.00    +0.000 C 
ENDBRANCH   7  12
BRANCH  11  15
ATOM     15  C   UNL     1       1.699   4.431  20.062  0.00  0.00    +0.000 C 
ATOM     16  C   UNL     1       0.521   3.474  19.844  0.00  0.00    +0.000 C 
ATOM     17  C   UNL     1       2.211   4.199  21.503  0.00  0.00    +0.000 C 
ENDBRANCH  11  15
ENDBRANCH   4   6
BRANCH   1  18
ATOM     18  C   UNL     1       0.800   9.183  20.288  0.00  0.00    +0.000 C 
BRANCH  18  19
ATOM     19  C   UNL     1       0.485  10.580  19.797  0.00  0.00    +0.000 C 
ATOM     20  O   UNL     1       1.357  11.448  19.793  0.00  0.00    +0.000 OA
BRANCH  19  24
ATOM     21  C   UNL     1      -3.338  11.154  17.939  0.00  0.00    +0.000 A 
ATOM     22  C   UNL     1      -2.422  10.233  17.431  0.00  0.00    +0.000 A 
ATOM     23  C   UNL     1      -1.173  10.068  18.033  0.00  0.00    +0.000 A 
ATOM     24  C   UNL     1      -0.825  10.844  19.145  0.00  0.00    +0.000 A 
ATOM     25  C   UNL     1      -1.738  11.781  19.644  0.00  0.00    +0.000 A 
ATOM     26  C   UNL     1      -2.984  11.940  19.035  0.00  0.00    +0.000 A 
BRANCH  21  28
ATOM     27  C   UNL     1      -5.697  11.121  18.074  0.00  0.00    +0.000 C 
ATOM     28  O   UNL     1      -4.526  11.226  17.271  0.00  0.00    +0.000 OA
ENDBRANCH  21  28
ENDBRANCH  19  24
ENDBRANCH  18  19
ENDBRANCH   1  18
TORSDOF 7
ENDMDL
MODEL 8
REMARK VINA RESULT:      -7.2      1.872      2.892
REMARK  Name = 
REMARK  12 active torsions:
REMARK  status: ('A' for Active; 'I' for Inactive)
REMARK    1  A    between atoms: C_1  and  O_2
REMARK    2  A    between atoms: O_2  and  C_3
REMARK    3  A    between atoms: C_6  and  C_7
REMARK    4  A    between atoms: C_7  and  C_9
REMARK    5  A    between atoms: C_9  and  N_10
REMARK    6  A    between atoms: N_13  and  C_14
REMARK    7  A    between atoms: C_15  and  C_16
REMARK    8  A    between atoms: C_16  and  C_17
REMARK    9  A    between atoms: C_16  and  C_18
REMARK   10  A    between atoms: C_22  and  C_23
REMARK   11  A    between atoms: C_23  and  C_24
REMARK   12  A    between atoms: C_23  and  C_25
REMARK                            x       y       z     vdW  Elec       q    Type
REMARK                         _______ _______ _______ _____ _____    ______ ____
ROOT
ATOM      1  N   UNL     1       1.869   8.492  18.665  0.00  0.00    +0.000 N 
ATOM      2  C   UNL     1       1.811   8.127  19.992  0.00  0.00    +0.000 A 
ATOM      3  C   UNL     1       2.300   6.854  20.060  0.00  0.00    +0.000 A 
ATOM      4  N   UNL     1       2.542   6.419  18.757  0.00  0.00    +0.000 N 
ATOM      5  C   UNL     1       2.179   7.409  17.924  0.00  0.00    +0.000 A 
ENDROOT
BRANCH   4   6
ATOM      6  C   UNL     1       3.152   5.131  18.343  0.00  0.00    +0.000 A 
ATOM      7  C   UNL     1       4.299   5.177  17.494  0.00  0.00    +0.000 A 
ATOM      8  C   UNL     1       4.762   3.963  16.951  0.00  0.00    +0.000 A 
ATOM      9  C   UNL     1       4.170   2.754  17.278  0.00  0.00    +0.000 A 
ATOM     10  C   UNL     1       3.091   2.722  18.153  0.00  0.00    +0.000 A 
ATOM     11  C   UNL     1       2.539   3.893  18.718  0.00  0.00    +0.000 A 
BRANCH   7  12
ATOM     12  C   UNL     1       5.139   6.421  17.195  0.00  0.00    +0.000 C 
ATOM     13  C   UNL     1       6.569   6.313  17.753  0.00  0.00    +0.000 C 
ATOM     14  C   UNL     1       5.204   6.730  15.692  0.00  0.00    +0.000 C 
ENDBRANCH   7  12
BRANCH  11  15
ATOM     15  C   UNL     1       1.331   3.718  19.653  0.00  0.00    +0.000 C 
ATOM     16  C   UNL     1       0.362   2.628  19.179  0.00  0.00    +0.000 C 
ATOM     17  C   UNL     1       1.644   3.431  21.140  0.00  0.00    +0.000 C 
ENDBRANCH  11  15
ENDBRANCH   4   6
BRANCH   1  18
ATOM     18  C   UNL     1       1.760   9.869  18.148  0.00  0.00    +0.000 C 
BRANCH  18  19
ATOM     19  C   UNL     1       0.408  10.467  18.477  0.00  0.00    +0.000 C 
ATOM     20  O   UNL     1      -0.616   9.994  17.986  0.00  0.00    +0.000 OA
BRANCH  19  24
ATOM     21  C   UNL     1       0.116  13.311  21.674  0.00  0.00    +0.000 A 
ATOM     22  C   UNL     1      -0.875  12.351  21.472  0.00  0.00    +0.000 A 
ATOM     23  C   UNL     1      -0.779  11.442  20.417  0.00  0.00    +0.000 A 
ATOM     24  C   UNL     1       0.311  11.502  19.540  0.00  0.00    +0.000 A 
ATOM     25  C   UNL     1       1.296  12.478  19.731  0.00  0.00    +0.000 A 
ATOM     26  C   UNL     1       1.191  13.384  20.788  0.00  0.00    +0.000 A 
BRANCH  21  28
ATOM     27  C   UNL     1      -1.282  13.932  23.476  0.00  0.00    +0.000 C 
ATOM     28  O   UNL     1      -0.083  14.143  22.738  0.00  0.00    +0.000 OA
ENDBRANCH  21  28
ENDBRANCH  19  24
ENDBRANCH  18  19
ENDBRANCH   1  18
TORSDOF 7
ENDMDL
MODEL 9
REMARK VINA RESULT:      -7.2      2.412      3.088
REMARK  Name = 
REMARK  12 active torsions:
REMARK  status: ('A' for Active; 'I' for Inactive)
REMARK    1  A    between atoms: C_1  and  O_2
REMARK    2  A    between atoms: O_2  and  C_3
REMARK    3  A    between atoms: C_6  and  C_7
REMARK    4  A    between atoms: C_7  and  C_9
REMARK    5  A    between atoms: C_9  and  N_10
REMARK    6  A    between atoms: N_13  and  C_14
REMARK    7  A    between atoms: C_15  and  C_16
REMARK    8  A    between atoms: C_16  and  C_17
REMARK    9  A    between atoms: C_16  and  C_18
REMARK   10  A    between atoms: C_22  and  C_23
REMARK   11  A    between atoms: C_23  and  C_24
REMARK   12  A    between atoms: C_23  and  C_25
REMARK                            x       y       z     vdW  Elec       q    Type
REMARK                         _______ _______ _______ _____ _____    ______ ____
ROOT
ATOM      1  N   UNL     1       1.938   8.103  20.251  0.00  0.00    +0.000 N 
ATOM      2  C   UNL     1       1.601   8.567  18.998  0.00  0.00    +0.000 A 
ATOM      3  C   UNL     1       1.964   7.589  18.117  0.00  0.00    +0.000 A 
ATOM      4  N   UNL     1       2.622   6.590  18.836  0.00  0.00    +0.000 N 
ATOM      5  C   UNL     1       2.673   6.980  20.121  0.00  0.00    +0.000 A 
ENDROOT
BRANCH   4   6
ATOM      6  C   UNL     1       3.123   5.294  18.313  0.00  0.00    +0.000 A 
ATOM      7  C   UNL     1       4.161   5.326  17.333  0.00  0.00    +0.000 A 
ATOM      8  C   UNL     1       4.504   4.114  16.702  0.00  0.00    +0.000 A 
ATOM      9  C   UNL     1       3.905   2.918  17.062  0.00  0.00    +0.000 A 
ATOM     10  C   UNL     1       2.937   2.897  18.060  0.00  0.00    +0.000 A 
ATOM     11  C   UNL     1       2.507   4.069  18.721  0.00  0.00    +0.000 A 
BRANCH   7  12
ATOM     12  C   UNL     1       5.011   6.546  16.972  0.00  0.00    +0.000 C 
ATOM     13  C   UNL     1       6.399   6.513  17.638  0.00  0.00    +0.000 C 
ATOM     14  C   UNL     1       5.182   6.707  15.454  0.00  0.00    +0.000 C 
ENDBRANCH   7  12
BRANCH  11  15
ATOM     15  C   UNL     1       1.413   3.908  19.790  0.00  0.00    +0.000 C 
ATOM     16  C   UNL     1       0.441   2.763  19.481  0.00  0.00    +0.000 C 
ATOM     17  C   UNL     1       1.893   3.715  21.247  0.00  0.00    +0.000 C 
ENDBRANCH  11  15
ENDBRANCH   4   6
BRANCH   1  18
ATOM     18  C   UNL     1       1.452   8.654  21.529  0.00  0.00    +0.000 C 
BRANCH  18  19
ATOM     19  C   UNL     1      -0.044   8.888  21.487  0.00  0.00    +0.000 C 
ATOM     20  O   UNL     1      -0.821   7.935  21.502  0.00  0.00    +0.000 OA
BRANCH  19  24
ATOM     21  C   UNL     1      -1.415  12.919  21.998  0.00  0.00    +0.000 A 
ATOM     22  C   UNL     1      -1.348  12.039  23.078  0.00  0.00    +0.000 A 
ATOM     23  C   UNL     1      -0.918  10.724  22.896  0.00  0.00    +0.000 A 
ATOM     24  C   UNL     1      -0.567  10.274  21.618  0.00  0.00    +0.000 A 
ATOM     25  C   UNL     1      -0.652  11.151  20.531  0.00  0.00    +0.000 A 
ATOM     26  C   UNL     1      -1.085  12.465  20.722  0.00  0.00    +0.000 A 
BRANCH  21  28
ATOM     27  C   UNL     1      -1.387  14.718  23.531  0.00  0.00    +0.000 C 
ATOM     28  O   UNL     1      -1.847  14.180  22.296  0.00  0.00    +0.000 OA
ENDBRANCH  21  28
ENDBRANCH  19  24
ENDBRANCH  18  19
ENDBRANCH   1  18
TORSDOF 7
ENDMDL
