MODEL 1
REMARK VINA RESULT:      -6.9      0.000      0.000
REMARK  Name = 
REMARK  8 active torsions:
REMARK  status: ('A' for Active; 'I' for Inactive)
REMARK    1  A    between atoms: C_1  and  C_2
REMARK    2  A    between atoms: N_11  and  C_12
REMARK    3  A    between atoms: C_12  and  C_13
REMARK    4  A    between atoms: C_13  and  C_14
REMARK    5  A    between atoms: C_17  and  C_18
REMARK    6  A    between atoms: N_26  and  C_27
REMARK    7  A    between atoms: C_27  and  C_28
REMARK    8  A    between atoms: C_27  and  C_29
REMARK                            x       y       z     vdW  Elec       q    Type
REMARK                         _______ _______ _______ _____ _____    ______ ____
ROOT
ATOM      1  C   UNL     1       7.684  15.287  19.618  0.00  0.00    +0.000 C 
ATOM      2  C   UNL     1       6.552  15.013  18.665  0.00  0.00    +0.000 C 
ATOM      3  O   UNL     1       6.788  14.704  17.496  0.00  0.00    +0.000 OA
ATOM      4  N   UNL     1       5.270  15.060  19.180  0.00  0.00    +0.000 N 
ATOM      5  C   UNL     1       4.142  14.707  18.308  0.00  0.00    +0.000 C 
ATOM      6  C   UNL     1       3.098  13.866  19.063  0.00  0.00    +0.000 C 
ATOM      7  N   UNL     1       2.708  14.581  20.280  0.00  0.00    +0.000 N 
ATOM      8  C   UNL     1       1.415  14.503  20.736  0.00  0.00    +0.000 A 
ATOM      9  N   UNL     1       0.494  13.914  19.942  0.00  0.00    +0.000 NA
ATOM     10  C   UNL     1      -0.791  13.853  20.323  0.00  0.00    +0.000 A 
ATOM     11  N   UNL     1      -1.716  13.090  19.597  0.00  0.00    +0.000 N 
ATOM     12  C   UNL     1      -1.189  14.465  21.462  0.00  0.00    +0.000 A 
ATOM     13  C   UNL     1      -0.194  15.010  22.220  0.00  0.00    +0.000 A 
ATOM     14  N   UNL     1       1.109  15.048  21.920  0.00  0.00    +0.000 NA
ATOM     15  C   UNL     1      -0.784  15.354  23.533  0.00  0.00    +0.000 C 
ATOM     16  O   UNL     1      -0.180  15.764  24.506  0.00  0.00    +0.000 OA
ATOM     17  N   UNL     1      -2.147  15.048  23.451  0.00  0.00    +0.000 N 
ATOM     18  C   UNL     1      -2.487  14.474  22.158  0.00  0.00    +0.000 C 
ATOM     19  C   UNL     1       3.800  14.893  21.203  0.00  0.00    +0.000 C 
ATOM     20  C   UNL     1       4.886  15.692  20.455  0.00  0.00    +0.000 C 
ATOM     21  H   UNL     1      -2.182  13.698  18.926  0.00  0.00    +0.000 HD
ENDROOT
BRANCH  17  22
ATOM     22  C   UNL     1      -3.004  14.897  24.626  0.00  0.00    +0.000 C 
ATOM     23  C   UNL     1      -3.944  16.088  24.808  0.00  0.00    +0.000 C 
ATOM     24  C   UNL     1      -3.803  13.592  24.550  0.00  0.00    +0.000 C 
ENDBRANCH  17  22
BRANCH  11  25
ATOM     25  C   UNL     1      -1.114  11.917  18.943  0.00  0.00    +0.000 C 
BRANCH  25  26
ATOM     26  C   UNL     1      -0.766  10.835  19.980  0.00  0.00    +0.000 C 
BRANCH  26  27
ATOM     27  C   UNL     1       0.245   9.841  19.486  0.00  0.00    +0.000 A 
ATOM     28  C   UNL     1       0.610   9.818  18.134  0.00  0.00    +0.000 A 
ATOM     29  C   UNL     1       1.590   8.933  17.682  0.00  0.00    +0.000 A 
ATOM     30  C   UNL     1       2.217   8.059  18.576  0.00  0.00    +0.000 A 
ATOM     31  C   UNL     1       3.294   7.124  18.115  0.00  0.00    +0.000 C 
ATOM     32  C   UNL     1       1.835   8.067  19.923  0.00  0.00    +0.000 A 
ATOM     33  C   UNL     1       0.855   8.951  20.375  0.00  0.00    +0.000 A 
ENDBRANCH  26  27
ENDBRANCH  25  26
ENDBRANCH  11  25
TORSDOF 4
ENDMDL
MODEL 2
REMARK VINA RESULT:      -6.7      4.466      7.276
REMARK  Name = 
REMARK  8 active torsions:
REMARK  status: ('A' for Active; 'I' for Inactive)
REMARK    1  A    between atoms: C_1  and  C_2
REMARK    2  A    between atoms: N_11  and  C_12
REMARK    3  A    between atoms: C_12  and  C_13
REMARK    4  A    between atoms: C_13  and  C_14
REMARK    5  A    between atoms: C_17  and  C_18
REMARK    6  A    between atoms: N_26  and  C_27
REMARK    7  A    between atoms: C_27  and  C_28
REMARK    8  A    between atoms: C_27  and  C_29
REMARK                            x       y       z     vdW  Elec       q    Type
REMARK                         _______ _______ _______ _____ _____    ______ ____
ROOT
ATOM      1  C   UNL     1       4.294   2.506  19.599  0.00  0.00    +0.000 C 
ATOM      2  C   UNL     1       4.058   3.520  18.512  0.00  0.00    +0.000 C 
ATOM      3  O   UNL     1       4.305   3.238  17.339  0.00  0.00    +0.000 OA
ATOM      4  N   UNL     1       3.500   4.727  18.888  0.00  0.00    +0.000 N 
ATOM      5  C   UNL     1       3.166   5.709  17.848  0.00  0.00    +0.000 C 
ATOM      6  C   UNL     1       1.820   6.393  18.141  0.00  0.00    +0.000 C 
ATOM      7  N   UNL     1       1.860   6.951  19.494  0.00  0.00    +0.000 N 
ATOM      8  C   UNL     1       1.213   8.130  19.768  0.00  0.00    +0.000 A 
ATOM      9  N   UNL     1       0.708   8.837  18.732  0.00  0.00    +0.000 NA
ATOM     10  C   UNL     1       0.106  10.017  18.944  0.00  0.00    +0.000 A 
ATOM     11  N   UNL     1      -0.576  10.668  17.906  0.00  0.00    +0.000 N 
ATOM     12  C   UNL     1       0.084  10.551  20.187  0.00  0.00    +0.000 A 
ATOM     13  C   UNL     1       0.586   9.762  21.180  0.00  0.00    +0.000 A 
ATOM     14  N   UNL     1       1.143   8.554  21.036  0.00  0.00    +0.000 NA
ATOM     15  C   UNL     1       0.203  10.384  22.467  0.00  0.00    +0.000 C 
ATOM     16  O   UNL     1       0.383   9.913  23.574  0.00  0.00    +0.000 OA
ATOM     17  N   UNL     1      -0.462  11.575  22.154  0.00  0.00    +0.000 N 
ATOM     18  C   UNL     1      -0.581  11.755  20.715  0.00  0.00    +0.000 C 
ATOM     19  C   UNL     1       2.127   5.989  20.563  0.00  0.00    +0.000 C 
ATOM     20  C   UNL     1       3.448   5.250  20.265  0.00  0.00    +0.000 C 
ATOM     21  H   UNL     1       0.060  11.330  17.467  0.00  0.00    +0.000 HD
ENDROOT
BRANCH  17  22
ATOM     22  C   UNL     1      -1.307  12.293  23.106  0.00  0.00    +0.000 C 
ATOM     23  C   UNL     1      -1.000  13.790  23.131  0.00  0.00    +0.000 C 
ATOM     24  C   UNL     1      -2.790  12.057  22.802  0.00  0.00    +0.000 C 
ENDBRANCH  17  22
BRANCH  11  25
ATOM     25  C   UNL     1      -1.160   9.740  16.925  0.00  0.00    +0.000 C 
BRANCH  25  26
ATOM     26  C   UNL     1      -2.259  10.437  16.105  0.00  0.00    +0.000 C 
BRANCH  26  27
ATOM     27  C   UNL     1      -3.519  10.683  16.884  0.00  0.00    +0.000 A 
ATOM     28  C   UNL     1      -4.383  11.721  16.518  0.00  0.00    +0.000 A 
ATOM     29  C   UNL     1      -5.582  11.918  17.206  0.00  0.00    +0.000 A 
ATOM     30  C   UNL     1      -5.930  11.079  18.270  0.00  0.00    +0.000 A 
ATOM     31  C   UNL     1      -7.227  11.256  19.000  0.00  0.00    +0.000 C 
ATOM     32  C   UNL     1      -5.053  10.056  18.649  0.00  0.00    +0.000 A 
ATOM     33  C   UNL     1      -3.855   9.859  17.963  0.00  0.00    +0.000 A 
ENDBRANCH  26  27
ENDBRANCH  25  26
ENDBRANCH  11  25
TORSDOF 4
ENDMDL
MODEL 3
REMARK VINA RESULT:      -6.6      2.541      7.263
REMARK  Name = 
REMARK  8 active torsions:
REMARK  status: ('A' for Active; 'I' for Inactive)
REMARK    1  A    between atoms: C_1  and  C_2
REMARK    2  A    between atoms: N_11  and  C_12
REMARK    3  A    between atoms: C_12  and  C_13
REMARK    4  A    between atoms: C_13  and  C_14
REMARK    5  A    between atoms: C_17  and  C_18
REMARK    6  A    between atoms: N_26  and  C_27
REMARK    7  A    between atoms: C_27  and  C_28
REMARK    8  A    between atoms: C_27  and  C_29
REMARK                            x       y       z     vdW  Elec       q    Type
REMARK                         _______ _______ _______ _____ _____    ______ ____
ROOT
ATOM      1  C   UNL     1      -7.753  15.013  22.960  0.00  0.00    +0.000 C 
ATOM      2  C   UNL     1      -6.789  13.985  23.491  0.00  0.00    +0.000 C 
ATOM      3  O   UNL     1      -7.181  13.113  24.268  0.00  0.00    +0.000 OA
ATOM      4  N   UNL     1      -5.492  14.034  23.017  0.00  0.00    +0.000 N 
ATOM      5  C   UNL     1      -4.544  12.994  23.437  0.00  0.00    +0.000 C 
ATOM      6  C   UNL     1      -3.655  12.546  22.264  0.00  0.00    +0.000 C 
ATOM      7  N   UNL     1      -3.020  13.728  21.677  0.00  0.00    +0.000 N 
ATOM      8  C   UNL     1      -1.744  13.642  21.177  0.00  0.00    +0.000 A 
ATOM      9  N   UNL     1      -1.043  12.510  21.409  0.00  0.00    +0.000 NA
ATOM     10  C   UNL     1       0.223  12.396  20.979  0.00  0.00    +0.000 A 
ATOM     11  N   UNL     1       0.895  11.167  21.054  0.00  0.00    +0.000 N 
ATOM     12  C   UNL     1       0.837  13.450  20.395  0.00  0.00    +0.000 A 
ATOM     13  C   UNL     1       0.051  14.543  20.171  0.00  0.00    +0.000 A 
ATOM     14  N   UNL     1      -1.230  14.691  20.522  0.00  0.00    +0.000 NA
ATOM     15  C   UNL     1       0.807  15.447  19.275  0.00  0.00    +0.000 C 
ATOM     16  O   UNL     1       0.390  16.473  18.772  0.00  0.00    +0.000 OA
ATOM     17  N   UNL     1       2.058  14.853  19.070  0.00  0.00    +0.000 N 
ATOM     18  C   UNL     1       2.156  13.572  19.751  0.00  0.00    +0.000 C 
ATOM     19  C   UNL     1      -3.937  14.758  21.190  0.00  0.00    +0.000 C 
ATOM     20  C   UNL     1      -4.877  15.187  22.335  0.00  0.00    +0.000 C 
ATOM     21  H   UNL     1       1.428  11.142  21.921  0.00  0.00    +0.000 HD
ENDROOT
BRANCH  17  22
ATOM     22  C   UNL     1       2.952  15.231  17.977  0.00  0.00    +0.000 C 
ATOM     23  C   UNL     1       3.261  16.727  17.978  0.00  0.00    +0.000 C 
ATOM     24  C   UNL     1       4.248  14.416  18.030  0.00  0.00    +0.000 C 
ENDBRANCH  17  22
BRANCH  11  25
ATOM     25  C   UNL     1      -0.003  10.008  20.932  0.00  0.00    +0.000 C 
BRANCH  25  26
ATOM     26  C   UNL     1       0.672   8.738  21.479  0.00  0.00    +0.000 C 
BRANCH  26  27
ATOM     27  C   UNL     1       1.411   7.958  20.430  0.00  0.00    +0.000 A 
ATOM     28  C   UNL     1       1.735   8.554  19.205  0.00  0.00    +0.000 A 
ATOM     29  C   UNL     1       2.470   7.850  18.250  0.00  0.00    +0.000 A 
ATOM     30  C   UNL     1       2.889   6.540  18.507  0.00  0.00    +0.000 A 
ATOM     31  C   UNL     1       3.707   5.781  17.506  0.00  0.00    +0.000 C 
ATOM     32  C   UNL     1       2.544   5.938  19.722  0.00  0.00    +0.000 A 
ATOM     33  C   UNL     1       1.809   6.641  20.677  0.00  0.00    +0.000 A 
ENDBRANCH  26  27
ENDBRANCH  25  26
ENDBRANCH  11  25
TORSDOF 4
ENDMDL
MODEL 4
REMARK VINA RESULT:      -6.6      2.051      3.037
REMARK  Name = 
REMARK  8 active torsions:
REMARK  status: ('A' for Active; 'I' for Inactive)
REMARK    1  A    between atoms: C_1  and  C_2
REMARK    2  A    between atoms: N_11  and  C_12
REMARK    3  A    between atoms: C_12  and  C_13
REMARK    4  A    between atoms: C_13  and  C_14
REMARK    5  A    between atoms: C_17  and  C_18
REMARK    6  A    between atoms: N_26  and  C_27
REMARK    7  A    between atoms: C_27  and  C_28
REMARK    8  A    between atoms: C_27  and  C_29
REMARK                            x       y       z     vdW  Elec       q    Type
REMARK                         _______ _______ _______ _____ _____    ______ ____
ROOT
ATOM      1  C   UNL     1       6.002  17.789  19.922  0.00  0.00    +0.000 C 
ATOM      2  C   UNL     1       5.792  16.563  19.074  0.00  0.00    +0.000 C 
ATOM      3  O   UNL     1       6.736  16.072  18.452  0.00  0.00    +0.000 OA
ATOM      4  N   UNL     1       4.531  15.997  19.085  0.00  0.00    +0.000 N 
ATOM      5  C   UNL     1       4.307  14.748  18.346  0.00  0.00    +0.000 C 
ATOM      6  C   UNL     1       3.409  13.785  19.141  0.00  0.00    +0.000 C 
ATOM      7  N   UNL     1       2.178  14.487  19.510  0.00  0.00    +0.000 N 
ATOM      8  C   UNL     1       0.986  13.805  19.550  0.00  0.00    +0.000 A 
ATOM      9  N   UNL     1       0.958  12.543  19.069  0.00  0.00    +0.000 NA
ATOM     10  C   UNL     1      -0.191  11.851  19.045  0.00  0.00    +0.000 A 
ATOM     11  N   UNL     1      -0.198  10.487  18.719  0.00  0.00    +0.000 N 
ATOM     12  C   UNL     1      -1.347  12.447  19.416  0.00  0.00    +0.000 A 
ATOM     13  C   UNL     1      -1.228  13.710  19.918  0.00  0.00    +0.000 A 
ATOM     14  N   UNL     1      -0.102  14.425  20.020  0.00  0.00    +0.000 NA
ATOM     15  C   UNL     1      -2.529  14.062  20.530  0.00  0.00    +0.000 C 
ATOM     16  O   UNL     1      -2.773  15.068  21.169  0.00  0.00    +0.000 OA
ATOM     17  N   UNL     1      -3.388  12.984  20.288  0.00  0.00    +0.000 N 
ATOM     18  C   UNL     1      -2.709  11.909  19.582  0.00  0.00    +0.000 C 
ATOM     19  C   UNL     1       2.360  15.703  20.302  0.00  0.00    +0.000 C 
ATOM     20  C   UNL     1       3.302  16.665  19.550  0.00  0.00    +0.000 C 
ATOM     21  H   UNL     1      -0.387  10.394  17.723  0.00  0.00    +0.000 HD
ENDROOT
BRANCH  17  22
ATOM     22  C   UNL     1      -4.632  12.773  21.027  0.00  0.00    +0.000 C 
ATOM     23  C   UNL     1      -4.436  12.920  22.535  0.00  0.00    +0.000 C 
ATOM     24  C   UNL     1      -5.725  13.726  20.534  0.00  0.00    +0.000 C 
ENDBRANCH  17  22
BRANCH  11  25
ATOM     25  C   UNL     1       1.040   9.792  19.107  0.00  0.00    +0.000 C 
BRANCH  25  26
ATOM     26  C   UNL     1       1.739   9.197  17.872  0.00  0.00    +0.000 C 
BRANCH  26  27
ATOM     27  C   UNL     1       2.525   7.953  18.176  0.00  0.00    +0.000 A 
ATOM     28  C   UNL     1       2.285   7.237  19.354  0.00  0.00    +0.000 A 
ATOM     29  C   UNL     1       2.973   6.051  19.612  0.00  0.00    +0.000 A 
ATOM     30  C   UNL     1       3.913   5.567  18.696  0.00  0.00    +0.000 A 
ATOM     31  C   UNL     1       4.639   4.279  18.941  0.00  0.00    +0.000 C 
ATOM     32  C   UNL     1       4.168   6.297  17.529  0.00  0.00    +0.000 A 
ATOM     33  C   UNL     1       3.481   7.483  17.271  0.00  0.00    +0.000 A 
ENDBRANCH  26  27
ENDBRANCH  25  26
ENDBRANCH  11  25
TORSDOF 4
ENDMDL
MODEL 5
REMARK VINA RESULT:      -6.5      4.268      6.521
REMARK  Name = 
REMARK  8 active torsions:
REMARK  status: ('A' for Active; 'I' for Inactive)
REMARK    1  A    between atoms: C_1  and  C_2
REMARK    2  A    between atoms: N_11  and  C_12
REMARK    3  A    between atoms: C_12  and  C_13
REMARK    4  A    between atoms: C_13  and  C_14
REMARK    5  A    between atoms: C_17  and  C_18
REMARK    6  A    between atoms: N_26  and  C_27
REMARK    7  A    between atoms: C_27  and  C_28
REMARK    8  A    between atoms: C_27  and  C_29
REMARK                            x       y       z     vdW  Elec       q    Type
REMARK                         _______ _______ _______ _____ _____    ______ ____
ROOT
ATOM      1  C   UNL     1       4.522   4.404  18.718  0.00  0.00    +0.000 C 
ATOM      2  C   UNL     1       4.110   5.509  17.783  0.00  0.00    +0.000 C 
ATOM      3  O   UNL     1       4.363   5.428  16.580  0.00  0.00    +0.000 OA
ATOM      4  N   UNL     1       3.394   6.559  18.326  0.00  0.00    +0.000 N 
ATOM      5  C   UNL     1       2.892   7.612  17.434  0.00  0.00    +0.000 C 
ATOM      6  C   UNL     1       1.469   8.044  17.829  0.00  0.00    +0.000 C 
ATOM      7  N   UNL     1       1.466   8.414  19.245  0.00  0.00    +0.000 N 
ATOM      8  C   UNL     1       0.662   9.437  19.685  0.00  0.00    +0.000 A 
ATOM      9  N   UNL     1       0.032  10.194  18.759  0.00  0.00    +0.000 NA
ATOM     10  C   UNL     1      -0.730  11.232  19.137  0.00  0.00    +0.000 A 
ATOM     11  N   UNL     1      -1.528  11.910  18.204  0.00  0.00    +0.000 N 
ATOM     12  C   UNL     1      -0.794  11.585  20.441  0.00  0.00    +0.000 A 
ATOM     13  C   UNL     1      -0.155  10.752  21.312  0.00  0.00    +0.000 A 
ATOM     14  N   UNL     1       0.567   9.671  20.999  0.00  0.00    +0.000 NA
ATOM     15  C   UNL     1      -0.588  11.132  22.676  0.00  0.00    +0.000 C 
ATOM     16  O   UNL     1      -0.310  10.547  23.706  0.00  0.00    +0.000 OA
ATOM     17  N   UNL     1      -1.427  12.243  22.534  0.00  0.00    +0.000 N 
ATOM     18  C   UNL     1      -1.612  12.595  21.135  0.00  0.00    +0.000 C 
ATOM     19  C   UNL     1       1.900   7.366  20.170  0.00  0.00    +0.000 C 
ATOM     20  C   UNL     1       3.305   6.878  19.763  0.00  0.00    +0.000 C 
ATOM     21  H   UNL     1      -1.007  12.712  17.854  0.00  0.00    +0.000 HD
ENDROOT
BRANCH  17  22
ATOM     22  C   UNL     1      -2.341  12.693  23.583  0.00  0.00    +0.000 C 
ATOM     23  C   UNL     1      -2.184  14.184  23.880  0.00  0.00    +0.000 C 
ATOM     24  C   UNL     1      -3.792  12.371  23.214  0.00  0.00    +0.000 C 
ENDBRANCH  17  22
BRANCH  11  25
ATOM     25  C   UNL     1      -1.999  11.046  17.109  0.00  0.00    +0.000 C 
BRANCH  25  26
ATOM     26  C   UNL     1      -3.412  11.456  16.662  0.00  0.00    +0.000 C 
BRANCH  26  27
ATOM     27  C   UNL     1      -4.412  11.465  17.783  0.00  0.00    +0.000 A 
ATOM     28  C   UNL     1      -4.287  12.382  18.833  0.00  0.00    +0.000 A 
ATOM     29  C   UNL     1      -5.245  12.430  19.846  0.00  0.00    +0.000 A 
ATOM     30  C   UNL     1      -6.340  11.558  19.824  0.00  0.00    +0.000 A 
ATOM     31  C   UNL     1      -7.395  11.616  20.887  0.00  0.00    +0.000 C 
ATOM     32  C   UNL     1      -6.450  10.626  18.786  0.00  0.00    +0.000 A 
ATOM     33  C   UNL     1      -5.493  10.578  17.772  0.00  0.00    +0.000 A 
ENDBRANCH  26  27
ENDBRANCH  25  26
ENDBRANCH  11  25
TORSDOF 4
ENDMDL
MODEL 6
REMARK VINA RESULT:      -6.4      4.727      9.530
REMARK  Name = 
REMARK  8 active torsions:
REMARK  status: ('A' for Active; 'I' for Inactive)
REMARK    1  A    between atoms: C_1  and  C_2
REMARK    2  A    between atoms: N_11  and  C_12
REMARK    3  A    between atoms: C_12  and  C_13
REMARK    4  A    between atoms: C_13  and  C_14
REMARK    5  A    between atoms: C_17  and  C_18
REMARK    6  A    between atoms: N_26  and  C_27
REMARK    7  A    between atoms: C_27  and  C_28
REMARK    8  A    between atoms: C_27  and  C_29
REMARK                            x       y       z     vdW  Elec       q    Type
REMARK                         _______ _______ _______ _____ _____    ______ ____
ROOT
ATOM      1  C   UNL     1      -0.798  13.770  18.401  0.00  0.00    +0.000 C 
ATOM      2  C   UNL     1      -0.563  12.878  19.591  0.00  0.00    +0.000 C 
ATOM      3  O   UNL     1      -1.183  13.068  20.638  0.00  0.00    +0.000 OA
ATOM      4  N   UNL     1       0.312  11.822  19.423  0.00  0.00    +0.000 N 
ATOM      5  C   UNL     1       0.499  10.872  20.528  0.00  0.00    +0.000 C 
ATOM      6  C   UNL     1       0.582   9.426  20.010  0.00  0.00    +0.000 C 
ATOM      7  N   UNL     1       1.622   9.354  18.982  0.00  0.00    +0.000 N 
ATOM      8  C   UNL     1       2.393   8.224  18.866  0.00  0.00    +0.000 A 
ATOM      9  N   UNL     1       2.289   7.280  19.827  0.00  0.00    +0.000 NA
ATOM     10  C   UNL     1       3.053   6.178  19.782  0.00  0.00    +0.000 A 
ATOM     11  N   UNL     1       2.827   5.115  20.668  0.00  0.00    +0.000 N 
ATOM     12  C   UNL     1       4.000   6.050  18.825  0.00  0.00    +0.000 A 
ATOM     13  C   UNL     1       4.020   7.030  17.876  0.00  0.00    +0.000 A 
ATOM     14  N   UNL     1       3.243   8.119  17.837  0.00  0.00    +0.000 NA
ATOM     15  C   UNL     1       4.900   6.562  16.782  0.00  0.00    +0.000 C 
ATOM     16  O   UNL     1       5.080   7.121  15.717  0.00  0.00    +0.000 OA
ATOM     17  N   UNL     1       5.419   5.328  17.188  0.00  0.00    +0.000 N 
ATOM     18  C   UNL     1       4.892   4.928  18.484  0.00  0.00    +0.000 C 
ATOM     19  C   UNL     1       1.435  10.241  17.834  0.00  0.00    +0.000 C 
ATOM     20  C   UNL     1       1.295  11.695  18.331  0.00  0.00    +0.000 C 
ATOM     21  H   UNL     1       3.440   5.229  21.474  0.00  0.00    +0.000 HD
ENDROOT
BRANCH  17  22
ATOM     22  C   UNL     1       6.030   4.375  16.263  0.00  0.00    +0.000 C 
ATOM     23  C   UNL     1       5.214   4.216  14.980  0.00  0.00    +0.000 C 
ATOM     24  C   UNL     1       7.469   4.784  15.934  0.00  0.00    +0.000 C 
ENDBRANCH  17  22
BRANCH  11  25
ATOM     25  C   UNL     1       1.418   4.984  21.069  0.00  0.00    +0.000 C 
BRANCH  25  26
ATOM     26  C   UNL     1       0.781   3.742  20.420  0.00  0.00    +0.000 C 
BRANCH  26  27
ATOM     27  C   UNL     1       1.722   2.990  19.525  0.00  0.00    +0.000 A 
ATOM     28  C   UNL     1       1.641   3.134  18.135  0.00  0.00    +0.000 A 
ATOM     29  C   UNL     1       2.550   2.480  17.302  0.00  0.00    +0.000 A 
ATOM     30  C   UNL     1       3.551   1.670  17.849  0.00  0.00    +0.000 A 
ATOM     31  C   UNL     1       4.555   0.985  16.973  0.00  0.00    +0.000 C 
ATOM     32  C   UNL     1       3.616   1.508  19.238  0.00  0.00    +0.000 A 
ATOM     33  C   UNL     1       2.708   2.162  20.071  0.00  0.00    +0.000 A 
ENDBRANCH  26  27
ENDBRANCH  25  26
ENDBRANCH  11  25
TORSDOF 4
ENDMDL
MODEL 7
REMARK VINA RESULT:      -6.4      2.772      4.243
REMARK  Name = 
REMARK  8 active torsions:
REMARK  status: ('A' for Active; 'I' for Inactive)
REMARK    1  A    between atoms: C_1  and  C_2
REMARK    2  A    between atoms: N_11  and  C_12
REMARK    3  A    between atoms: C_12  and  C_13
REMARK    4  A    between atoms: C_13  and  C_14
REMARK    5  A    between atoms: C_17  and  C_18
REMARK    6  A    between atoms: N_26  and  C_27
REMARK    7  A    between atoms: C_27  and  C_28
REMARK    8  A    between atoms: C_27  and  C_29
REMARK                            x       y       z     vdW  Elec       q    Type
REMARK                         _______ _______ _______ _____ _____    ______ ____
ROOT
ATOM      1  C   UNL     1       3.501  17.148  24.171  0.00  0.00    +0.000 C 
ATOM      2  C   UNL     1       3.829  16.335  22.948  0.00  0.00    +0.000 C 
ATOM      3  O   UNL     1       5.002  16.163  22.615  0.00  0.00    +0.000 OA
ATOM      4  N   UNL     1       2.770  15.752  22.277  0.00  0.00    +0.000 N 
ATOM      5  C   UNL     1       3.052  14.874  21.134  0.00  0.00    +0.000 C 
ATOM      6  C   UNL     1       2.133  13.640  21.142  0.00  0.00    +0.000 C 
ATOM      7  N   UNL     1       0.742  14.090  21.217  0.00  0.00    +0.000 N 
ATOM      8  C   UNL     1      -0.241  13.392  20.559  0.00  0.00    +0.000 A 
ATOM      9  N   UNL     1       0.135  12.411  19.709  0.00  0.00    +0.000 NA
ATOM     10  C   UNL     1      -0.785  11.730  19.008  0.00  0.00    +0.000 A 
ATOM     11  N   UNL     1      -0.424  10.598  18.265  0.00  0.00    +0.000 N 
ATOM     12  C   UNL     1      -2.088  12.086  19.079  0.00  0.00    +0.000 A 
ATOM     13  C   UNL     1      -2.387  13.063  19.983  0.00  0.00    +0.000 A 
ATOM     14  N   UNL     1      -1.521  13.734  20.749  0.00  0.00    +0.000 NA
ATOM     15  C   UNL     1      -3.861  13.094  20.121  0.00  0.00    +0.000 C 
ATOM     16  O   UNL     1      -4.493  13.765  20.915  0.00  0.00    +0.000 OA
ATOM     17  N   UNL     1      -4.367  12.154  19.217  0.00  0.00    +0.000 N 
ATOM     18  C   UNL     1      -3.298  11.465  18.511  0.00  0.00    +0.000 C 
ATOM     19  C   UNL     1       0.410  14.915  22.379  0.00  0.00    +0.000 C 
ATOM     20  C   UNL     1       1.354  16.134  22.424  0.00  0.00    +0.000 C 
ATOM     21  H   UNL     1      -0.239  10.886  17.306  0.00  0.00    +0.000 HD
ENDROOT
BRANCH  17  22
ATOM     22  C   UNL     1      -5.725  11.619  19.296  0.00  0.00    +0.000 C 
ATOM     23  C   UNL     1      -6.774  12.653  18.887  0.00  0.00    +0.000 C 
ATOM     24  C   UNL     1      -5.861  10.354  18.442  0.00  0.00    +0.000 C 
ENDBRANCH  17  22
BRANCH  11  25
ATOM     25  C   UNL     1       0.713   9.864  18.843  0.00  0.00    +0.000 C 
BRANCH  25  26
ATOM     26  C   UNL     1       1.636   9.330  17.734  0.00  0.00    +0.000 C 
BRANCH  26  27
ATOM     27  C   UNL     1       2.375   8.082  18.124  0.00  0.00    +0.000 A 
ATOM     28  C   UNL     1       3.422   7.604  17.328  0.00  0.00    +0.000 A 
ATOM     29  C   UNL     1       4.148   6.477  17.717  0.00  0.00    +0.000 A 
ATOM     30  C   UNL     1       3.833   5.812  18.907  0.00  0.00    +0.000 A 
ATOM     31  C   UNL     1       4.621   4.619  19.356  0.00  0.00    +0.000 C 
ATOM     32  C   UNL     1       2.771   6.278  19.690  0.00  0.00    +0.000 A 
ATOM     33  C   UNL     1       2.045   7.404  19.302  0.00  0.00    +0.000 A 
ENDBRANCH  26  27
ENDBRANCH  25  26
ENDBRANCH  11  25
TORSDOF 4
ENDMDL
MODEL 8
REMARK VINA RESULT:      -6.4      2.923      8.362
REMARK  Name = 
REMARK  8 active torsions:
REMARK  status: ('A' for Active; 'I' for Inactive)
REMARK    1  A    between atoms: C_1  and  C_2
REMARK    2  A    between atoms: N_11  and  C_12
REMARK    3  A    between atoms: C_12  and  C_13
REMARK    4  A    between atoms: C_13  and  C_14
REMARK    5  A    between atoms: C_17  and  C_18
REMARK    6  A    between atoms: N_26  and  C_27
REMARK    7  A    between atoms: C_27  and  C_28
REMARK    8  A    between atoms: C_27  and  C_29
REMARK                            x       y       z     vdW  Elec       q    Type
REMARK                         _______ _______ _______ _____ _____    ______ ____
ROOT
ATOM      1  C   UNL     1      -3.406  13.720  25.115  0.00  0.00    +0.000 C 
ATOM      2  C   UNL     1      -3.028  14.262  23.763  0.00  0.00    +0.000 C 
ATOM      3  O   UNL     1      -3.280  15.432  23.472  0.00  0.00    +0.000 OA
ATOM      4  N   UNL     1      -2.340  13.413  22.915  0.00  0.00    +0.000 N 
ATOM      5  C   UNL     1      -1.870  13.930  21.623  0.00  0.00    +0.000 C 
ATOM      6  C   UNL     1      -0.459  13.410  21.297  0.00  0.00    +0.000 C 
ATOM      7  N   UNL     1      -0.463  11.949  21.387  0.00  0.00    +0.000 N 
ATOM      8  C   UNL     1       0.312  11.207  20.531  0.00  0.00    +0.000 A 
ATOM      9  N   UNL     1       0.919  11.846  19.506  0.00  0.00    +0.000 NA
ATOM     10  C   UNL     1       1.651  11.159  18.616  0.00  0.00    +0.000 A 
ATOM     11  N   UNL     1       2.428  11.829  17.660  0.00  0.00    +0.000 N 
ATOM     12  C   UNL     1       1.709   9.809  18.686  0.00  0.00    +0.000 A 
ATOM     13  C   UNL     1       1.095   9.245  19.766  0.00  0.00    +0.000 A 
ATOM     14  N   UNL     1       0.403   9.885  20.715  0.00  0.00    +0.000 NA
ATOM     15  C   UNL     1       1.520   7.828  19.819  0.00  0.00    +0.000 C 
ATOM     16  O   UNL     1       1.261   7.033  20.703  0.00  0.00    +0.000 OA
ATOM     17  N   UNL     1       2.327   7.611  18.697  0.00  0.00    +0.000 N 
ATOM     18  C   UNL     1       2.499   8.829  17.920  0.00  0.00    +0.000 C 
ATOM     19  C   UNL     1      -0.866  11.400  22.682  0.00  0.00    +0.000 C 
ATOM     20  C   UNL     1      -2.258  11.949  23.058  0.00  0.00    +0.000 C 
ATOM     21  H   UNL     1       1.885  11.914  16.803  0.00  0.00    +0.000 HD
ENDROOT
BRANCH  17  22
ATOM     22  C   UNL     1       3.230   6.468  18.571  0.00  0.00    +0.000 C 
ATOM     23  C   UNL     1       2.491   5.196  18.155  0.00  0.00    +0.000 C 
ATOM     24  C   UNL     1       4.362   6.775  17.586  0.00  0.00    +0.000 C 
ENDBRANCH  17  22
BRANCH  11  25
ATOM     25  C   UNL     1       2.921  13.135  18.126  0.00  0.00    +0.000 C 
BRANCH  25  26
ATOM     26  C   UNL     1       1.946  14.257  17.730  0.00  0.00    +0.000 C 
BRANCH  26  27
ATOM     27  C   UNL     1       1.683  15.235  18.838  0.00  0.00    +0.000 A 
ATOM     28  C   UNL     1       2.493  15.243  19.980  0.00  0.00    +0.000 A 
ATOM     29  C   UNL     1       2.287  16.188  20.986  0.00  0.00    +0.000 A 
ATOM     30  C   UNL     1       1.265  17.135  20.865  0.00  0.00    +0.000 A 
ATOM     31  C   UNL     1       1.048  18.177  21.920  0.00  0.00    +0.000 C 
ATOM     32  C   UNL     1       0.441  17.111  19.733  0.00  0.00    +0.000 A 
ATOM     33  C   UNL     1       0.647  16.168  18.727  0.00  0.00    +0.000 A 
ENDBRANCH  26  27
ENDBRANCH  25  26
ENDBRANCH  11  25
TORSDOF 4
ENDMDL
MODEL 9
REMARK VINA RESULT:      -6.3      2.453      7.014
REMARK  Name = 
REMARK  8 active torsions:
REMARK  status: ('A' for Active; 'I' for Inactive)
REMARK    1  A    between atoms: C_1  and  C_2
REMARK    2  A    between atoms: N_11  and  C_12
REMARK    3  A    between atoms: C_12  and  C_13
REMARK    4  A    between atoms: C_13  and  C_14
REMARK    5  A    between atoms: C_17  and  C_18
REMARK    6  A    between atoms: N_26  and  C_27
REMARK    7  A    between atoms: C_27  and  C_28
REMARK    8  A    between atoms: C_27  and  C_29
REMARK                            x       y       z     vdW  Elec       q    Type
REMARK                         _______ _______ _______ _____ _____    ______ ____
ROOT
ATOM      1  C   UNL     1      -7.222  14.769  22.457  0.00  0.00    +0.000 C 
ATOM      2  C   UNL     1      -6.310  13.582  22.622  0.00  0.00    +0.000 C 
ATOM      3  O   UNL     1      -6.771  12.491  22.959  0.00  0.00    +0.000 OA
ATOM      4  N   UNL     1      -4.975  13.767  22.318  0.00  0.00    +0.000 N 
ATOM      5  C   UNL     1      -4.068  12.613  22.375  0.00  0.00    +0.000 C 
ATOM      6  C   UNL     1      -3.075  12.628  21.201  0.00  0.00    +0.000 C 
ATOM      7  N   UNL     1      -2.390  13.922  21.180  0.00  0.00    +0.000 N 
ATOM      8  C   UNL     1      -1.073  13.994  20.797  0.00  0.00    +0.000 A 
ATOM      9  N   UNL     1      -0.396  12.837  20.625  0.00  0.00    +0.000 NA
ATOM     10  C   UNL     1       0.905  12.856  20.294  0.00  0.00    +0.000 A 
ATOM     11  N   UNL     1       1.569  11.673  19.939  0.00  0.00    +0.000 N 
ATOM     12  C   UNL     1       1.568  14.032  20.223  0.00  0.00    +0.000 A 
ATOM     13  C   UNL     1       0.806  15.153  20.379  0.00  0.00    +0.000 A 
ATOM     14  N   UNL     1      -0.503  15.196  20.651  0.00  0.00    +0.000 NA
ATOM     15  C   UNL     1       1.639  16.308  19.977  0.00  0.00    +0.000 C 
ATOM     16  O   UNL     1       1.268  17.463  19.883  0.00  0.00    +0.000 OA
ATOM     17  N   UNL     1       2.904  15.798  19.663  0.00  0.00    +0.000 N 
ATOM     18  C   UNL     1       2.941  14.350  19.794  0.00  0.00    +0.000 C 
ATOM     19  C   UNL     1      -3.260  15.092  21.058  0.00  0.00    +0.000 C 
ATOM     20  C   UNL     1      -4.301  15.072  22.196  0.00  0.00    +0.000 C 
ATOM     21  H   UNL     1       2.020  11.293  20.769  0.00  0.00    +0.000 HD
ENDROOT
BRANCH  17  22
ATOM     22  C   UNL     1       3.894  16.541  18.885  0.00  0.00    +0.000 C 
ATOM     23  C   UNL     1       4.963  17.176  19.773  0.00  0.00    +0.000 C 
ATOM     24  C   UNL     1       4.543  15.639  17.830  0.00  0.00    +0.000 C 
ENDBRANCH  17  22
BRANCH  11  25
ATOM     25  C   UNL     1       0.688  10.685  19.297  0.00  0.00    +0.000 C 
BRANCH  25  26
ATOM     26  C   UNL     1       1.460   9.869  18.245  0.00  0.00    +0.000 C 
BRANCH  26  27
ATOM     27  C   UNL     1       1.805   8.482  18.704  0.00  0.00    +0.000 A 
ATOM     28  C   UNL     1       2.360   7.560  17.808  0.00  0.00    +0.000 A 
ATOM     29  C   UNL     1       2.734   6.288  18.244  0.00  0.00    +0.000 A 
ATOM     30  C   UNL     1       2.554   5.921  19.582  0.00  0.00    +0.000 A 
ATOM     31  C   UNL     1       2.978   4.570  20.075  0.00  0.00    +0.000 C 
ATOM     32  C   UNL     1       1.977   6.835  20.470  0.00  0.00    +0.000 A 
ATOM     33  C   UNL     1       1.603   8.106  20.035  0.00  0.00    +0.000 A 
ENDBRANCH  26  27
ENDBRANCH  25  26
ENDBRANCH  11  25
TORSDOF 4
ENDMDL
