MODEL 1
REMARK VINA RESULT:      -7.8      0.000      0.000
REMARK  Name = 
REMARK  4 active torsions:
REMARK  status: ('A' for Active; 'I' for Inactive)
REMARK    1  A    between atoms: O_1  and  C_2
REMARK    2  A    between atoms: C_2  and  C_3
REMARK    3  A    between atoms: C_2  and  C_23
REMARK    4  A    between atoms: C_5  and  C_6
REMARK                            x       y       z     vdW  Elec       q    Type
REMARK                         _______ _______ _______ _____ _____    ______ ____
ROOT
ATOM      1  C   UNL     1       2.272   5.943  19.885  0.00  0.00    +0.000 A 
ATOM      2  C   UNL     1       3.239   5.680  18.907  0.00  0.00    +0.000 A 
ATOM      3  C   UNL     1       3.615   6.668  18.015  0.00  0.00    +0.000 A 
ATOM      4  N   UNL     1       3.068   7.899  18.066  0.00  0.00    +0.000 NA
ATOM      5  C   UNL     1       2.154   8.215  19.016  0.00  0.00    +0.000 A 
ATOM      6  C   UNL     1       1.620   9.516  19.079  0.00  0.00    +0.000 A 
ATOM      7 CL   UNL     1       2.106  10.685  17.877  0.00  0.00    +0.000 Cl
ATOM      8  C   UNL     1       0.714   9.890  20.082  0.00  0.00    +0.000 A 
ATOM      9 CL   UNL     1       0.075  11.491  20.226  0.00  0.00    +0.000 Cl
ATOM     10  C   UNL     1       0.303   8.956  21.022  0.00  0.00    +0.000 A 
ATOM     11  C   UNL     1       0.793   7.653  20.960  0.00  0.00    +0.000 A 
ATOM     12  C   UNL     1       1.724   7.254  19.972  0.00  0.00    +0.000 A 
ENDROOT
BRANCH   3  13
ATOM     13  C   UNL     1       4.665   6.370  16.963  0.00  0.00    +0.000 C 
ATOM     14  C   UNL     1       4.634   4.910  16.460  0.00  0.00    +0.000 C 
ATOM     15  C   UNL     1       6.059   4.331  16.431  0.00  0.00    +0.000 C 
ATOM     16  C   UNL     1       6.962   5.228  15.564  0.00  0.00    +0.000 C 
ATOM     17  C   UNL     1       6.980   6.664  16.109  0.00  0.00    +0.000 C 
ATOM     18  C   UNL     1       6.109   6.756  17.380  0.00  0.00    +0.000 C 
ATOM     19  C   UNL     1       6.698   5.762  18.401  0.00  0.00    +0.000 C 
ATOM     20  C   UNL     1       6.599   4.327  17.871  0.00  0.00    +0.000 C 
ENDBRANCH   3  13
BRANCH   1  21
ATOM     21  C   UNL     1       1.883   4.791  20.800  0.00  0.00    +0.000 C 
BRANCH  21  22
ATOM     22  C   UNL     1       2.165   3.367  20.204  0.00  0.00    +0.000 C 
ATOM     23  C   UNL     1       3.675   3.099  20.077  0.00  0.00    +0.000 C 
ATOM     24  C   UNL     1       3.964   1.779  19.367  0.00  0.00    +0.000 C 
ATOM     25  C   UNL     1       3.231   1.727  18.033  0.00  0.00    +0.000 C 
ATOM     26  C   UNL     1       1.739   1.964  18.238  0.00  0.00    +0.000 C 
ATOM     27  N   UNL     1       1.500   3.252  18.885  0.00  0.00    +0.000 NA
ATOM     28  H   UNL     1       0.496   3.390  19.033  0.00  0.00    +0.000 HD
ENDBRANCH  21  22
BRANCH  21  29
ATOM     29  O   UNL     1       2.622   4.942  22.026  0.00  0.00    +0.000 OA
ATOM     30  H   UNL     1       2.938   4.055  22.272  0.00  0.00    +0.000 HD
ENDBRANCH  21  29
ENDBRANCH   1  21
TORSDOF 4
ENDMDL
MODEL 2
REMARK VINA RESULT:      -7.7      1.964      4.855
REMARK  Name = 
REMARK  4 active torsions:
REMARK  status: ('A' for Active; 'I' for Inactive)
REMARK    1  A    between atoms: O_1  and  C_2
REMARK    2  A    between atoms: C_2  and  C_3
REMARK    3  A    between atoms: C_2  and  C_23
REMARK    4  A    between atoms: C_5  and  C_6
REMARK                            x       y       z     vdW  Elec       q    Type
REMARK                         _______ _______ _______ _____ _____    ______ ____
ROOT
ATOM      1  C   UNL     1       3.365   7.247  18.219  0.00  0.00    +0.000 A 
ATOM      2  C   UNL     1       3.353   6.039  18.928  0.00  0.00    +0.000 A 
ATOM      3  C   UNL     1       2.513   5.877  20.015  0.00  0.00    +0.000 A 
ATOM      4  N   UNL     1       1.690   6.867  20.415  0.00  0.00    +0.000 NA
ATOM      5  C   UNL     1       1.637   8.042  19.741  0.00  0.00    +0.000 A 
ATOM      6  C   UNL     1       0.744   9.051  20.147  0.00  0.00    +0.000 A 
ATOM      7 CL   UNL     1      -0.237   8.785  21.567  0.00  0.00    +0.000 Cl
ATOM      8  C   UNL     1       0.627  10.256  19.441  0.00  0.00    +0.000 A 
ATOM      9 CL   UNL     1      -0.494  11.500  19.876  0.00  0.00    +0.000 Cl
ATOM     10  C   UNL     1       1.426  10.483  18.329  0.00  0.00    +0.000 A 
ATOM     11  C   UNL     1       2.340   9.512  17.927  0.00  0.00    +0.000 A 
ATOM     12  C   UNL     1       2.465   8.278  18.608  0.00  0.00    +0.000 A 
ENDROOT
BRANCH   3  13
ATOM     13  C   UNL     1       2.510   4.563  20.772  0.00  0.00    +0.000 C 
ATOM     14  C   UNL     1       3.619   3.589  20.319  0.00  0.00    +0.000 C 
ATOM     15  C   UNL     1       3.035   2.180  20.115  0.00  0.00    +0.000 C 
ATOM     16  C   UNL     1       2.346   1.717  21.412  0.00  0.00    +0.000 C 
ATOM     17  C   UNL     1       1.238   2.701  21.817  0.00  0.00    +0.000 C 
ATOM     18  C   UNL     1       1.138   3.838  20.777  0.00  0.00    +0.000 C 
ATOM     19  C   UNL     1       0.831   3.178  19.419  0.00  0.00    +0.000 C 
ATOM     20  C   UNL     1       1.984   2.259  18.996  0.00  0.00    +0.000 C 
ENDBRANCH   3  13
BRANCH   1  21
ATOM     21  C   UNL     1       4.348   7.360  17.063  0.00  0.00    +0.000 C 
BRANCH  21  22
ATOM     22  C   UNL     1       5.099   6.027  16.719  0.00  0.00    +0.000 C 
ATOM     23  C   UNL     1       6.436   5.923  17.475  0.00  0.00    +0.000 C 
ATOM     24  C   UNL     1       7.246   4.704  17.042  0.00  0.00    +0.000 C 
ATOM     25  C   UNL     1       7.411   4.691  15.529  0.00  0.00    +0.000 C 
ATOM     26  C   UNL     1       6.048   4.758  14.846  0.00  0.00    +0.000 C 
ATOM     27  N   UNL     1       5.320   5.956  15.255  0.00  0.00    +0.000 NA
ATOM     28  H   UNL     1       4.401   5.980  14.804  0.00  0.00    +0.000 HD
ENDBRANCH  21  22
BRANCH  21  29
ATOM     29  O   UNL     1       3.610   7.795  15.907  0.00  0.00    +0.000 OA
ATOM     30  H   UNL     1       4.212   7.719  15.147  0.00  0.00    +0.000 HD
ENDBRANCH  21  29
ENDBRANCH   1  21
TORSDOF 4
ENDMDL
MODEL 3
REMARK VINA RESULT:      -7.4      3.074      6.315
REMARK  Name = 
REMARK  4 active torsions:
REMARK  status: ('A' for Active; 'I' for Inactive)
REMARK    1  A    between atoms: O_1  and  C_2
REMARK    2  A    between atoms: C_2  and  C_3
REMARK    3  A    between atoms: C_2  and  C_23
REMARK    4  A    between atoms: C_5  and  C_6
REMARK                            x       y       z     vdW  Elec       q    Type
REMARK                         _______ _______ _______ _____ _____    ______ ____
ROOT
ATOM      1  C   UNL     1       4.645   6.452  17.745  0.00  0.00    +0.000 A 
ATOM      2  C   UNL     1       3.832   7.569  17.510  0.00  0.00    +0.000 A 
ATOM      3  C   UNL     1       2.571   7.643  18.073  0.00  0.00    +0.000 A 
ATOM      4  N   UNL     1       2.097   6.654  18.858  0.00  0.00    +0.000 NA
ATOM      5  C   UNL     1       2.858   5.570  19.144  0.00  0.00    +0.000 A 
ATOM      6  C   UNL     1       2.363   4.564  19.996  0.00  0.00    +0.000 A 
ATOM      7 CL   UNL     1       0.737   4.710  20.615  0.00  0.00    +0.000 Cl
ATOM      8  C   UNL     1       3.144   3.457  20.355  0.00  0.00    +0.000 A 
ATOM      9 CL   UNL     1       2.594   2.226  21.439  0.00  0.00    +0.000 Cl
ATOM     10  C   UNL     1       4.426   3.322  19.842  0.00  0.00    +0.000 A 
ATOM     11  C   UNL     1       4.926   4.288  18.972  0.00  0.00    +0.000 A 
ATOM     12  C   UNL     1       4.168   5.427  18.609  0.00  0.00    +0.000 A 
ENDROOT
BRANCH   3  13
ATOM     13  C   UNL     1       1.703   8.859  17.812  0.00  0.00    +0.000 C 
ATOM     14  C   UNL     1       2.458  10.198  17.964  0.00  0.00    +0.000 C 
ATOM     15  C   UNL     1       1.625  11.181  18.805  0.00  0.00    +0.000 C 
ATOM     16  C   UNL     1       0.238  11.363  18.160  0.00  0.00    +0.000 C 
ATOM     17  C   UNL     1      -0.486  10.012  18.045  0.00  0.00    +0.000 C 
ATOM     18  C   UNL     1       0.393   8.892  18.642  0.00  0.00    +0.000 C 
ATOM     19  C   UNL     1       0.654   9.263  20.115  0.00  0.00    +0.000 C 
ATOM     20  C   UNL     1       1.444  10.574  20.206  0.00  0.00    +0.000 C 
ENDBRANCH   3  13
BRANCH   1  21
ATOM     21  C   UNL     1       6.001   6.428  17.055  0.00  0.00    +0.000 C 
BRANCH  21  22
ATOM     22  C   UNL     1       5.963   5.926  15.569  0.00  0.00    +0.000 C 
ATOM     23  C   UNL     1       5.074   4.679  15.419  0.00  0.00    +0.000 C 
ATOM     24  C   UNL     1       5.141   4.093  14.011  0.00  0.00    +0.000 C 
ATOM     25  C   UNL     1       6.590   3.848  13.611  0.00  0.00    +0.000 C 
ATOM     26  C   UNL     1       7.402   5.132  13.748  0.00  0.00    +0.000 C 
ATOM     27  N   UNL     1       7.345   5.640  15.116  0.00  0.00    +0.000 NA
ATOM     28  H   UNL     1       7.879   6.510  15.190  0.00  0.00    +0.000 HD
ENDBRANCH  21  22
BRANCH  21  29
ATOM     29  O   UNL     1       6.528   7.767  17.085  0.00  0.00    +0.000 OA
ATOM     30  H   UNL     1       6.194   8.179  17.900  0.00  0.00    +0.000 HD
ENDBRANCH  21  29
ENDBRANCH   1  21
TORSDOF 4
ENDMDL
MODEL 4
REMARK VINA RESULT:      -7.4      1.969      5.228
REMARK  Name = 
REMARK  4 active torsions:
REMARK  status: ('A' for Active; 'I' for Inactive)
REMARK    1  A    between atoms: O_1  and  C_2
REMARK    2  A    between atoms: C_2  and  C_3
REMARK    3  A    between atoms: C_2  and  C_23
REMARK    4  A    between atoms: C_5  and  C_6
REMARK                            x       y       z     vdW  Elec       q    Type
REMARK                         _______ _______ _______ _____ _____    ______ ____
ROOT
ATOM      1  C   UNL     1       3.698   6.735  17.828  0.00  0.00    +0.000 A 
ATOM      2  C   UNL     1       3.612   5.592  18.633  0.00  0.00    +0.000 A 
ATOM      3  C   UNL     1       2.805   5.590  19.756  0.00  0.00    +0.000 A 
ATOM      4  N   UNL     1       2.085   6.676  20.100  0.00  0.00    +0.000 NA
ATOM      5  C   UNL     1       2.105   7.795  19.335  0.00  0.00    +0.000 A 
ATOM      6  C   UNL     1       1.318   8.907  19.686  0.00  0.00    +0.000 A 
ATOM      7 CL   UNL     1       0.375   8.841  21.154  0.00  0.00    +0.000 Cl
ATOM      8  C   UNL     1       1.275  10.059  18.888  0.00  0.00    +0.000 A 
ATOM      9 CL   UNL     1       0.282  11.426  19.256  0.00  0.00    +0.000 Cl
ATOM     10  C   UNL     1       2.046  10.127  17.736  0.00  0.00    +0.000 A 
ATOM     11  C   UNL     1       2.858   9.051  17.384  0.00  0.00    +0.000 A 
ATOM     12  C   UNL     1       2.904   7.869  18.160  0.00  0.00    +0.000 A 
ENDROOT
BRANCH   3  13
ATOM     13  C   UNL     1       2.720   4.344  20.618  0.00  0.00    +0.000 C 
ATOM     14  C   UNL     1       3.657   3.209  20.150  0.00  0.00    +0.000 C 
ATOM     15  C   UNL     1       2.892   1.873  20.118  0.00  0.00    +0.000 C 
ATOM     16  C   UNL     1       2.284   1.595  21.506  0.00  0.00    +0.000 C 
ATOM     17  C   UNL     1       1.345   2.738  21.923  0.00  0.00    +0.000 C 
ATOM     18  C   UNL     1       1.280   3.800  20.805  0.00  0.00    +0.000 C 
ATOM     19  C   UNL     1       0.764   3.088  19.539  0.00  0.00    +0.000 C 
ATOM     20  C   UNL     1       1.752   2.003  19.094  0.00  0.00    +0.000 C 
ENDBRANCH   3  13
BRANCH   1  21
ATOM     21  C   UNL     1       4.640   6.670  16.635  0.00  0.00    +0.000 C 
BRANCH  21  22
ATOM     22  C   UNL     1       6.163   6.702  17.009  0.00  0.00    +0.000 C 
ATOM     23  C   UNL     1       6.450   5.865  18.268  0.00  0.00    +0.000 C 
ATOM     24  C   UNL     1       7.899   6.002  18.728  0.00  0.00    +0.000 C 
ATOM     25  C   UNL     1       8.264   7.472  18.889  0.00  0.00    +0.000 C 
ATOM     26  C   UNL     1       7.989   8.232  17.596  0.00  0.00    +0.000 C 
ATOM     27  N   UNL     1       6.586   8.108  17.208  0.00  0.00    +0.000 NA
ATOM     28  H   UNL     1       6.419   8.607  16.330  0.00  0.00    +0.000 HD
ENDBRANCH  21  22
BRANCH  21  29
ATOM     29  O   UNL     1       4.357   5.451  15.923  0.00  0.00    +0.000 OA
ATOM     30  H   UNL     1       3.978   5.711  15.066  0.00  0.00    +0.000 HD
ENDBRANCH  21  29
ENDBRANCH   1  21
TORSDOF 4
ENDMDL
MODEL 5
REMARK VINA RESULT:      -7.3      7.048     11.126
REMARK  Name = 
REMARK  4 active torsions:
REMARK  status: ('A' for Active; 'I' for Inactive)
REMARK    1  A    between atoms: O_1  and  C_2
REMARK    2  A    between atoms: C_2  and  C_3
REMARK    3  A    between atoms: C_2  and  C_23
REMARK    4  A    between atoms: C_5  and  C_6
REMARK                            x       y       z     vdW  Elec       q    Type
REMARK                         _______ _______ _______ _____ _____    ______ ____
ROOT
ATOM      1  C   UNL     1      -4.125  11.947  18.817  0.00  0.00    +0.000 A 
ATOM      2  C   UNL     1      -4.230  12.844  19.887  0.00  0.00    +0.000 A 
ATOM      3  C   UNL     1      -3.152  13.055  20.728  0.00  0.00    +0.000 A 
ATOM      4  N   UNL     1      -1.983  12.410  20.539  0.00  0.00    +0.000 NA
ATOM      5  C   UNL     1      -1.819  11.559  19.497  0.00  0.00    +0.000 A 
ATOM      6  C   UNL     1      -0.580  10.923  19.291  0.00  0.00    +0.000 A 
ATOM      7 CL   UNL     1       0.708  11.200  20.436  0.00  0.00    +0.000 Cl
ATOM      8  C   UNL     1      -0.362  10.079  18.194  0.00  0.00    +0.000 A 
ATOM      9 CL   UNL     1       1.159   9.319  17.876  0.00  0.00    +0.000 Cl
ATOM     10  C   UNL     1      -1.392   9.833  17.298  0.00  0.00    +0.000 A 
ATOM     11  C   UNL     1      -2.637  10.425  17.499  0.00  0.00    +0.000 A 
ATOM     12  C   UNL     1      -2.880  11.298  18.586  0.00  0.00    +0.000 A 
ENDROOT
BRANCH   3  13
ATOM     13  C   UNL     1      -3.279  14.031  21.882  0.00  0.00    +0.000 C 
ATOM     14  C   UNL     1      -2.317  13.729  23.051  0.00  0.00    +0.000 C 
ATOM     15  C   UNL     1      -3.076  13.791  24.389  0.00  0.00    +0.000 C 
ATOM     16  C   UNL     1      -3.755  15.166  24.531  0.00  0.00    +0.000 C 
ATOM     17  C   UNL     1      -4.716  15.419  23.359  0.00  0.00    +0.000 C 
ATOM     18  C   UNL     1      -4.726  14.198  22.415  0.00  0.00    +0.000 C 
ATOM     19  C   UNL     1      -5.174  12.985  23.254  0.00  0.00    +0.000 C 
ATOM     20  C   UNL     1      -4.161  12.702  24.370  0.00  0.00    +0.000 C 
ENDBRANCH   3  13
BRANCH   1  21
ATOM     21  C   UNL     1      -5.369  11.740  17.966  0.00  0.00    +0.000 C 
BRANCH  21  22
ATOM     22  C   UNL     1      -6.560  11.046  18.715  0.00  0.00    +0.000 C 
ATOM     23  C   UNL     1      -6.838  11.718  20.071  0.00  0.00    +0.000 C 
ATOM     24  C   UNL     1      -7.896  10.966  20.876  0.00  0.00    +0.000 C 
ATOM     25  C   UNL     1      -7.518   9.496  21.001  0.00  0.00    +0.000 C 
ATOM     26  C   UNL     1      -7.293   8.887  19.620  0.00  0.00    +0.000 C 
ATOM     27  N   UNL     1      -6.249   9.609  18.897  0.00  0.00    +0.000 NA
ATOM     28  H   UNL     1      -6.121   9.201  17.966  0.00  0.00    +0.000 HD
ENDBRANCH  21  22
BRANCH  21  29
ATOM     29  O   UNL     1      -5.797  13.032  17.500  0.00  0.00    +0.000 OA
ATOM     30  H   UNL     1      -6.702  13.162  17.830  0.00  0.00    +0.000 HD
ENDBRANCH  21  29
ENDBRANCH   1  21
TORSDOF 4
ENDMDL
MODEL 6
REMARK VINA RESULT:      -7.2      7.522     11.025
REMARK  Name = 
REMARK  4 active torsions:
REMARK  status: ('A' for Active; 'I' for Inactive)
REMARK    1  A    between atoms: O_1  and  C_2
REMARK    2  A    between atoms: C_2  and  C_3
REMARK    3  A    between atoms: C_2  and  C_23
REMARK    4  A    between atoms: C_5  and  C_6
REMARK                            x       y       z     vdW  Elec       q    Type
REMARK                         _______ _______ _______ _____ _____    ______ ____
ROOT
ATOM      1  C   UNL     1      -1.348  12.113  20.413  0.00  0.00    +0.000 A 
ATOM      2  C   UNL     1      -2.241  12.863  21.189  0.00  0.00    +0.000 A 
ATOM      3  C   UNL     1      -3.543  13.055  20.764  0.00  0.00    +0.000 A 
ATOM      4  N   UNL     1      -3.983  12.528  19.604  0.00  0.00    +0.000 NA
ATOM      5  C   UNL     1      -3.169  11.765  18.834  0.00  0.00    +0.000 A 
ATOM      6  C   UNL     1      -3.655  11.190  17.644  0.00  0.00    +0.000 A 
ATOM      7 CL   UNL     1      -5.294  11.533  17.152  0.00  0.00    +0.000 Cl
ATOM      8  C   UNL     1      -2.855  10.353  16.853  0.00  0.00    +0.000 A 
ATOM      9 CL   UNL     1      -3.429   9.585  15.413  0.00  0.00    +0.000 Cl
ATOM     10  C   UNL     1      -1.542  10.101  17.226  0.00  0.00    +0.000 A 
ATOM     11  C   UNL     1      -1.029  10.685  18.382  0.00  0.00    +0.000 A 
ATOM     12  C   UNL     1      -1.820  11.516  19.210  0.00  0.00    +0.000 A 
ENDROOT
BRANCH   3  13
ATOM     13  C   UNL     1      -4.499  13.867  21.616  0.00  0.00    +0.000 C 
ATOM     14  C   UNL     1      -3.855  15.128  22.231  0.00  0.00    +0.000 C 
ATOM     15  C   UNL     1      -4.216  15.231  23.724  0.00  0.00    +0.000 C 
ATOM     16  C   UNL     1      -5.747  15.220  23.884  0.00  0.00    +0.000 C 
ATOM     17  C   UNL     1      -6.345  13.941  23.277  0.00  0.00    +0.000 C 
ATOM     18  C   UNL     1      -5.218  13.047  22.719  0.00  0.00    +0.000 C 
ATOM     19  C   UNL     1      -4.279  12.720  23.897  0.00  0.00    +0.000 C 
ATOM     20  C   UNL     1      -3.633  14.001  24.439  0.00  0.00    +0.000 C 
ENDBRANCH   3  13
BRANCH   1  21
ATOM     21  C   UNL     1       0.077  11.985  20.930  0.00  0.00    +0.000 C 
BRANCH  21  22
ATOM     22  C   UNL     1       0.950  13.277  20.754  0.00  0.00    +0.000 C 
ATOM     23  C   UNL     1       1.010  13.718  19.281  0.00  0.00    +0.000 C 
ATOM     24  C   UNL     1       1.970  14.886  19.072  0.00  0.00    +0.000 C 
ATOM     25  C   UNL     1       3.337  14.556  19.655  0.00  0.00    +0.000 C 
ATOM     26  C   UNL     1       3.207  14.163  21.123  0.00  0.00    +0.000 C 
ATOM     27  N   UNL     1       2.311  13.020  21.279  0.00  0.00    +0.000 NA
ATOM     28  H   UNL     1       2.219  12.779  22.270  0.00  0.00    +0.000 HD
ENDBRANCH  21  22
BRANCH  21  29
ATOM     29  O   UNL     1       0.004  11.655  22.329  0.00  0.00    +0.000 OA
ATOM     30  H   UNL     1      -0.466  10.805  22.391  0.00  0.00    +0.000 HD
ENDBRANCH  21  29
ENDBRANCH   1  21
TORSDOF 4
ENDMDL
MODEL 7
REMARK VINA RESULT:      -7.1      8.318      9.698
REMARK  Name = 
REMARK  4 active torsions:
REMARK  status: ('A' for Active; 'I' for Inactive)
REMARK    1  A    between atoms: O_1  and  C_2
REMARK    2  A    between atoms: C_2  and  C_3
REMARK    3  A    between atoms: C_2  and  C_23
REMARK    4  A    between atoms: C_5  and  C_6
REMARK                            x       y       z     vdW  Elec       q    Type
REMARK                         _______ _______ _______ _____ _____    ______ ____
ROOT
ATOM      1  C   UNL     1       7.599  14.555  22.618  0.00  0.00    +0.000 A 
ATOM      2  C   UNL     1       8.724  14.031  21.967  0.00  0.00    +0.000 A 
ATOM      3  C   UNL     1       8.751  13.942  20.587  0.00  0.00    +0.000 A 
ATOM      4  N   UNL     1       7.708  14.354  19.840  0.00  0.00    +0.000 NA
ATOM      5  C   UNL     1       6.611  14.901  20.419  0.00  0.00    +0.000 A 
ATOM      6  C   UNL     1       5.546  15.363  19.622  0.00  0.00    +0.000 A 
ATOM      7 CL   UNL     1       5.639  15.155  17.891  0.00  0.00    +0.000 Cl
ATOM      8  C   UNL     1       4.422  15.982  20.186  0.00  0.00    +0.000 A 
ATOM      9 CL   UNL     1       3.117  16.609  19.240  0.00  0.00    +0.000 Cl
ATOM     10  C   UNL     1       4.331  16.122  21.564  0.00  0.00    +0.000 A 
ATOM     11  C   UNL     1       5.358  15.644  22.375  0.00  0.00    +0.000 A 
ATOM     12  C   UNL     1       6.514  15.034  21.832  0.00  0.00    +0.000 A 
ENDROOT
BRANCH   3  13
ATOM     13  C   UNL     1       9.976  13.374  19.896  0.00  0.00    +0.000 C 
ATOM     14  C   UNL     1       9.788  13.176  18.376  0.00  0.00    +0.000 C 
ATOM     15  C   UNL     1      10.295  11.785  17.958  0.00  0.00    +0.000 C 
ATOM     16  C   UNL     1      11.765  11.622  18.390  0.00  0.00    +0.000 C 
ATOM     17  C   UNL     1      11.904  11.807  19.910  0.00  0.00    +0.000 C 
ATOM     18  C   UNL     1      10.519  12.070  20.537  0.00  0.00    +0.000 C 
ATOM     19  C   UNL     1       9.635  10.853  20.202  0.00  0.00    +0.000 C 
ATOM     20  C   UNL     1       9.444  10.731  18.685  0.00  0.00    +0.000 C 
ENDBRANCH   3  13
BRANCH   1  21
ATOM     21  C   UNL     1       7.630  14.580  24.139  0.00  0.00    +0.000 C 
BRANCH  21  22
ATOM     22  C   UNL     1       7.439  13.177  24.815  0.00  0.00    +0.000 C 
ATOM     23  C   UNL     1       6.192  12.457  24.270  0.00  0.00    +0.000 C 
ATOM     24  C   UNL     1       5.910  11.157  25.019  0.00  0.00    +0.000 C 
ATOM     25  C   UNL     1       5.846  11.415  26.519  0.00  0.00    +0.000 C 
ATOM     26  C   UNL     1       7.126  12.096  26.994  0.00  0.00    +0.000 C 
ATOM     27  N   UNL     1       7.341  13.353  26.283  0.00  0.00    +0.000 NA
ATOM     28  H   UNL     1       8.212  13.791  26.598  0.00  0.00    +0.000 HD
ENDBRANCH  21  22
BRANCH  21  29
ATOM     29  O   UNL     1       8.902  15.124  24.538  0.00  0.00    +0.000 OA
ATOM     30  H   UNL     1       8.713  15.849  25.158  0.00  0.00    +0.000 HD
ENDBRANCH  21  29
ENDBRANCH   1  21
TORSDOF 4
ENDMDL
MODEL 8
REMARK VINA RESULT:      -7.0      0.715      1.090
REMARK  Name = 
REMARK  4 active torsions:
REMARK  status: ('A' for Active; 'I' for Inactive)
REMARK    1  A    between atoms: O_1  and  C_2
REMARK    2  A    between atoms: C_2  and  C_3
REMARK    3  A    between atoms: C_2  and  C_23
REMARK    4  A    between atoms: C_5  and  C_6
REMARK                            x       y       z     vdW  Elec       q    Type
REMARK                         _______ _______ _______ _____ _____    ______ ____
ROOT
ATOM      1  C   UNL     1       2.382   5.983  20.102  0.00  0.00    +0.000 A 
ATOM      2  C   UNL     1       3.503   5.768  19.291  0.00  0.00    +0.000 A 
ATOM      3  C   UNL     1       3.917   6.742  18.401  0.00  0.00    +0.000 A 
ATOM      4  N   UNL     1       3.260   7.915  18.294  0.00  0.00    +0.000 NA
ATOM      5  C   UNL     1       2.191   8.186  19.082  0.00  0.00    +0.000 A 
ATOM      6  C   UNL     1       1.539   9.431  18.986  0.00  0.00    +0.000 A 
ATOM      7 CL   UNL     1       2.091  10.580  17.794  0.00  0.00    +0.000 Cl
ATOM      8  C   UNL     1       0.465   9.764  19.823  0.00  0.00    +0.000 A 
ATOM      9 CL   UNL     1      -0.329  11.299  19.774  0.00  0.00    +0.000 Cl
ATOM     10  C   UNL     1       0.005   8.842  20.753  0.00  0.00    +0.000 A 
ATOM     11  C   UNL     1       0.613   7.592  20.844  0.00  0.00    +0.000 A 
ATOM     12  C   UNL     1       1.712   7.237  20.027  0.00  0.00    +0.000 A 
ENDROOT
BRANCH   3  13
ATOM     13  C   UNL     1       5.133   6.496  17.530  0.00  0.00    +0.000 C 
ATOM     14  C   UNL     1       4.849   6.648  16.019  0.00  0.00    +0.000 C 
ATOM     15  C   UNL     1       5.453   5.462  15.246  0.00  0.00    +0.000 C 
ATOM     16  C   UNL     1       6.959   5.364  15.550  0.00  0.00    +0.000 C 
ATOM     17  C   UNL     1       7.197   5.194  17.059  0.00  0.00    +0.000 C 
ATOM     18  C   UNL     1       5.845   5.144  17.801  0.00  0.00    +0.000 C 
ATOM     19  C   UNL     1       5.057   3.953  17.222  0.00  0.00    +0.000 C 
ATOM     20  C   UNL     1       4.763   4.177  15.734  0.00  0.00    +0.000 C 
ENDBRANCH   3  13
BRANCH   1  21
ATOM     21  C   UNL     1       1.967   4.845  21.023  0.00  0.00    +0.000 C 
BRANCH  21  22
ATOM     22  C   UNL     1       1.832   3.453  20.313  0.00  0.00    +0.000 C 
ATOM     23  C   UNL     1       3.212   2.843  20.007  0.00  0.00    +0.000 C 
ATOM     24  C   UNL     1       3.101   1.558  19.189  0.00  0.00    +0.000 C 
ATOM     25  C   UNL     1       2.261   1.799  17.942  0.00  0.00    +0.000 C 
ATOM     26  C   UNL     1       0.898   2.369  18.322  0.00  0.00    +0.000 C 
ATOM     27  N   UNL     1       1.044   3.615  19.069  0.00  0.00    +0.000 NA
ATOM     28  H   UNL     1       0.123   3.976  19.333  0.00  0.00    +0.000 HD
ENDBRANCH  21  22
BRANCH  21  29
ATOM     29  O   UNL     1       2.955   4.748  22.065  0.00  0.00    +0.000 OA
ATOM     30  H   UNL     1       3.775   5.130  21.708  0.00  0.00    +0.000 HD
ENDBRANCH  21  29
ENDBRANCH   1  21
TORSDOF 4
ENDMDL
MODEL 9
REMARK VINA RESULT:      -7.0      8.728     10.369
REMARK  Name = 
REMARK  4 active torsions:
REMARK  status: ('A' for Active; 'I' for Inactive)
REMARK    1  A    between atoms: O_1  and  C_2
REMARK    2  A    between atoms: C_2  and  C_3
REMARK    3  A    between atoms: C_2  and  C_23
REMARK    4  A    between atoms: C_5  and  C_6
REMARK                            x       y       z     vdW  Elec       q    Type
REMARK                         _______ _______ _______ _____ _____    ______ ____
ROOT
ATOM      1  C   UNL     1       7.057  15.363  20.787  0.00  0.00    +0.000 A 
ATOM      2  C   UNL     1       8.172  14.867  20.099  0.00  0.00    +0.000 A 
ATOM      3  C   UNL     1       8.922  13.838  20.639  0.00  0.00    +0.000 A 
ATOM      4  N   UNL     1       8.601  13.289  21.828  0.00  0.00    +0.000 NA
ATOM      5  C   UNL     1       7.511  13.709  22.515  0.00  0.00    +0.000 A 
ATOM      6  C   UNL     1       7.167  13.099  23.737  0.00  0.00    +0.000 A 
ATOM      7 CL   UNL     1       8.204  11.848  24.374  0.00  0.00    +0.000 Cl
ATOM      8  C   UNL     1       6.017  13.473  24.446  0.00  0.00    +0.000 A 
ATOM      9 CL   UNL     1       5.531  12.715  25.922  0.00  0.00    +0.000 Cl
ATOM     10  C   UNL     1       5.206  14.487  23.957  0.00  0.00    +0.000 A 
ATOM     11  C   UNL     1       5.543  15.127  22.767  0.00  0.00    +0.000 A 
ATOM     12  C   UNL     1       6.687  14.756  22.020  0.00  0.00    +0.000 A 
ENDROOT
BRANCH   3  13
ATOM     13  C   UNL     1      10.126  13.309  19.883  0.00  0.00    +0.000 C 
ATOM     14  C   UNL     1       9.957  13.355  18.348  0.00  0.00    +0.000 C 
ATOM     15  C   UNL     1      10.391  12.015  17.729  0.00  0.00    +0.000 C 
ATOM     16  C   UNL     1      11.840  11.700  18.147  0.00  0.00    +0.000 C 
ATOM     17  C   UNL     1      11.960  11.645  19.678  0.00  0.00    +0.000 C 
ATOM     18  C   UNL     1      10.580  11.893  20.324  0.00  0.00    +0.000 C 
ATOM     19  C   UNL     1       9.634  10.795  19.797  0.00  0.00    +0.000 C 
ATOM     20  C   UNL     1       9.466  10.916  18.278  0.00  0.00    +0.000 C 
ENDBRANCH   3  13
BRANCH   1  21
ATOM     21  C   UNL     1       6.311  16.523  20.145  0.00  0.00    +0.000 C 
BRANCH  21  22
ATOM     22  C   UNL     1       4.879  16.161  19.617  0.00  0.00    +0.000 C 
ATOM     23  C   UNL     1       4.938  15.560  18.201  0.00  0.00    +0.000 C 
ATOM     24  C   UNL     1       3.546  15.336  17.616  0.00  0.00    +0.000 C 
ATOM     25  C   UNL     1       2.731  16.620  17.689  0.00  0.00    +0.000 C 
ATOM     26  C   UNL     1       2.684  17.138  19.123  0.00  0.00    +0.000 C 
ATOM     27  N   UNL     1       4.032  17.376  19.634  0.00  0.00    +0.000 NA
ATOM     28  H   UNL     1       3.987  17.706  20.602  0.00  0.00    +0.000 HD
ENDBRANCH  21  22
BRANCH  21  29
ATOM     29  O   UNL     1       6.197  17.565  21.132  0.00  0.00    +0.000 OA
ATOM     30  H   UNL     1       6.960  18.155  21.004  0.00  0.00    +0.000 HD
ENDBRANCH  21  29
ENDBRANCH   1  21
TORSDOF 4
ENDMDL
