MODEL 1
REMARK VINA RESULT:      -8.0      0.000      0.000
REMARK  Name = 
REMARK  6 active torsions:
REMARK  status: ('A' for Active; 'I' for Inactive)
REMARK    1  A    between atoms: C_2  and  C_3
REMARK    2  A    between atoms: C_3  and  O_4
REMARK    3  A    between atoms: O_4  and  C_5
REMARK    4  A    between atoms: C_5  and  C_7
REMARK    5  A    between atoms: N_15  and  C_16
REMARK    6  A    between atoms: C_16  and  C_17
REMARK                            x       y       z     vdW  Elec       q    Type
REMARK                         _______ _______ _______ _____ _____    ______ ____
ROOT
ATOM      1  C   UNL     1       7.909   6.595  18.837  0.00  0.00    +0.000 C 
ENDROOT
BRANCH   1   3
ATOM      2  O   UNL     1       7.347   7.966  16.927  0.00  0.00    +0.000 OA
ATOM      3  C   UNL     1       7.926   7.882  18.008  0.00  0.00    +0.000 C 
ATOM      4  N   UNL     1       8.628   8.922  18.573  0.00  0.00    +0.000 N 
ATOM      5  H   UNL     1       8.913   8.858  19.541  0.00  0.00    +0.000 HD
BRANCH   4   6
ATOM      6  C   UNL     1       8.734  10.217  17.935  0.00  0.00    +0.000 C 
BRANCH   6   7
ATOM      7  C   UNL     1       9.828  11.055  18.547  0.00  0.00    +0.000 A 
ATOM      8  C   UNL     1       9.894  11.243  19.937  0.00  0.00    +0.000 A 
ATOM      9  C   UNL     1      10.920  12.003  20.503  0.00  0.00    +0.000 A 
ATOM     10  C   UNL     1      11.894  12.579  19.690  0.00  0.00    +0.000 A 
ATOM     11  C   UNL     1      11.843  12.396  18.309  0.00  0.00    +0.000 A 
ATOM     12  C   UNL     1      10.818  11.638  17.741  0.00  0.00    +0.000 A 
ENDBRANCH   6   7
ENDBRANCH   4   6
ENDBRANCH   1   3
BRANCH   1  13
ATOM     13  O   UNL     1       7.009   5.628  18.296  0.00  0.00    +0.000 OA
BRANCH  13  14
ATOM     14  C   UNL     1       7.612   4.657  17.563  0.00  0.00    +0.000 C 
ATOM     15  O   UNL     1       8.557   3.982  17.936  0.00  0.00    +0.000 OA
BRANCH  14  16
ATOM     16  C   UNL     1       6.926   4.536  16.241  0.00  0.00    +0.000 A 
ATOM     17  N   UNL     1       7.648   4.961  15.161  0.00  0.00    +0.000 NA
ATOM     18  C   UNL     1       7.053   4.869  13.958  0.00  0.00    +0.000 A 
ATOM     19 CL   UNL     1       7.999   5.428  12.643  0.00  0.00    +0.000 Cl
ATOM     20  C   UNL     1       5.780   4.369  13.754  0.00  0.00    +0.000 A 
ATOM     21  C   UNL     1       5.062   3.936  14.866  0.00  0.00    +0.000 A 
ATOM     22  C   UNL     1       5.635   4.017  16.139  0.00  0.00    +0.000 A 
ATOM     23 CL   UNL     1       4.670   3.519  17.477  0.00  0.00    +0.000 Cl
ENDBRANCH  14  16
ENDBRANCH  13  14
ENDBRANCH   1  13
TORSDOF 6
ENDMDL
MODEL 2
REMARK VINA RESULT:      -7.7      2.869      3.955
REMARK  Name = 
REMARK  6 active torsions:
REMARK  status: ('A' for Active; 'I' for Inactive)
REMARK    1  A    between atoms: C_2  and  C_3
REMARK    2  A    between atoms: C_3  and  O_4
REMARK    3  A    between atoms: O_4  and  C_5
REMARK    4  A    between atoms: C_5  and  C_7
REMARK    5  A    between atoms: N_15  and  C_16
REMARK    6  A    between atoms: C_16  and  C_17
REMARK                            x       y       z     vdW  Elec       q    Type
REMARK                         _______ _______ _______ _____ _____    ______ ____
ROOT
ATOM      1  C   UNL     1       7.900   6.210  18.636  0.00  0.00    +0.000 C 
ENDROOT
BRANCH   1   3
ATOM      2  O   UNL     1       7.224   7.727  16.878  0.00  0.00    +0.000 OA
ATOM      3  C   UNL     1       7.827   7.572  17.938  0.00  0.00    +0.000 C 
ATOM      4  N   UNL     1       8.477   8.591  18.595  0.00  0.00    +0.000 N 
ATOM      5  H   UNL     1       8.782   8.448  19.549  0.00  0.00    +0.000 HD
BRANCH   4   6
ATOM      6  C   UNL     1       8.496   9.946  18.088  0.00  0.00    +0.000 C 
BRANCH   6   7
ATOM      7  C   UNL     1       9.589  10.768  18.726  0.00  0.00    +0.000 A 
ATOM      8  C   UNL     1       9.567  11.043  20.102  0.00  0.00    +0.000 A 
ATOM      9  C   UNL     1      10.591  11.786  20.694  0.00  0.00    +0.000 A 
ATOM     10  C   UNL     1      11.649  12.259  19.919  0.00  0.00    +0.000 A 
ATOM     11  C   UNL     1      11.685  11.988  18.552  0.00  0.00    +0.000 A 
ATOM     12  C   UNL     1      10.662  11.246  17.960  0.00  0.00    +0.000 A 
ENDBRANCH   6   7
ENDBRANCH   4   6
ENDBRANCH   1   3
BRANCH   1  13
ATOM     13  O   UNL     1       6.653   5.851  19.229  0.00  0.00    +0.000 OA
BRANCH  13  14
ATOM     14  C   UNL     1       5.906   4.998  18.480  0.00  0.00    +0.000 C 
ATOM     15  O   UNL     1       6.326   4.331  17.550  0.00  0.00    +0.000 OA
BRANCH  14  16
ATOM     16  C   UNL     1       4.500   4.995  18.987  0.00  0.00    +0.000 A 
ATOM     17  N   UNL     1       4.185   3.977  19.842  0.00  0.00    +0.000 NA
ATOM     18  C   UNL     1       2.924   3.946  20.311  0.00  0.00    +0.000 A 
ATOM     19 CL   UNL     1       2.580   2.642  21.368  0.00  0.00    +0.000 Cl
ATOM     20  C   UNL     1       1.950   4.874  19.989  0.00  0.00    +0.000 A 
ATOM     21  C   UNL     1       2.293   5.907  19.120  0.00  0.00    +0.000 A 
ATOM     22  C   UNL     1       3.589   5.979  18.602  0.00  0.00    +0.000 A 
ATOM     23 CL   UNL     1       3.929   7.248  17.487  0.00  0.00    +0.000 Cl
ENDBRANCH  14  16
ENDBRANCH  13  14
ENDBRANCH   1  13
TORSDOF 6
ENDMDL
MODEL 3
REMARK VINA RESULT:      -7.6      4.464      7.115
REMARK  Name = 
REMARK  6 active torsions:
REMARK  status: ('A' for Active; 'I' for Inactive)
REMARK    1  A    between atoms: C_2  and  C_3
REMARK    2  A    between atoms: C_3  and  O_4
REMARK    3  A    between atoms: O_4  and  C_5
REMARK    4  A    between atoms: C_5  and  C_7
REMARK    5  A    between atoms: N_15  and  C_16
REMARK    6  A    between atoms: C_16  and  C_17
REMARK                            x       y       z     vdW  Elec       q    Type
REMARK                         _______ _______ _______ _____ _____    ______ ____
ROOT
ATOM      1  C   UNL     1       5.322   6.832  16.860  0.00  0.00    +0.000 C 
ENDROOT
BRANCH   1   3
ATOM      2  O   UNL     1       3.195   7.855  17.386  0.00  0.00    +0.000 OA
ATOM      3  C   UNL     1       4.046   7.020  17.686  0.00  0.00    +0.000 C 
ATOM      4  N   UNL     1       3.934   6.182  18.772  0.00  0.00    +0.000 N 
ATOM      5  H   UNL     1       4.562   5.393  18.853  0.00  0.00    +0.000 HD
BRANCH   4   6
ATOM      6  C   UNL     1       2.786   6.211  19.653  0.00  0.00    +0.000 C 
BRANCH   6   7
ATOM      7  C   UNL     1       2.095   4.872  19.716  0.00  0.00    +0.000 A 
ATOM      8  C   UNL     1       1.641   4.244  18.546  0.00  0.00    +0.000 A 
ATOM      9  C   UNL     1       1.020   2.994  18.606  0.00  0.00    +0.000 A 
ATOM     10  C   UNL     1       0.849   2.357  19.833  0.00  0.00    +0.000 A 
ATOM     11  C   UNL     1       1.299   2.967  21.002  0.00  0.00    +0.000 A 
ATOM     12  C   UNL     1       1.920   4.216  20.944  0.00  0.00    +0.000 A 
ENDBRANCH   6   7
ENDBRANCH   4   6
ENDBRANCH   1   3
BRANCH   1  13
ATOM     13  O   UNL     1       6.455   6.571  17.687  0.00  0.00    +0.000 OA
BRANCH  13  14
ATOM     14  C   UNL     1       6.997   5.337  17.515  0.00  0.00    +0.000 C 
ATOM     15  O   UNL     1       7.592   4.707  18.373  0.00  0.00    +0.000 OA
BRANCH  14  16
ATOM     16  C   UNL     1       6.735   4.872  16.119  0.00  0.00    +0.000 A 
ATOM     17  N   UNL     1       7.550   5.402  15.158  0.00  0.00    +0.000 NA
ATOM     18  C   UNL     1       7.333   5.004  13.891  0.00  0.00    +0.000 A 
ATOM     19 CL   UNL     1       8.375   5.710  12.728  0.00  0.00    +0.000 Cl
ATOM     20  C   UNL     1       6.357   4.100  13.514  0.00  0.00    +0.000 A 
ATOM     21  C   UNL     1       5.541   3.567  14.508  0.00  0.00    +0.000 A 
ATOM     22  C   UNL     1       5.722   3.953  15.839  0.00  0.00    +0.000 A 
ATOM     23 CL   UNL     1       4.640   3.301  17.010  0.00  0.00    +0.000 Cl
ENDBRANCH  14  16
ENDBRANCH  13  14
ENDBRANCH   1  13
TORSDOF 6
ENDMDL
MODEL 4
REMARK VINA RESULT:      -7.5      4.191      6.897
REMARK  Name = 
REMARK  6 active torsions:
REMARK  status: ('A' for Active; 'I' for Inactive)
REMARK    1  A    between atoms: C_2  and  C_3
REMARK    2  A    between atoms: C_3  and  O_4
REMARK    3  A    between atoms: O_4  and  C_5
REMARK    4  A    between atoms: C_5  and  C_7
REMARK    5  A    between atoms: N_15  and  C_16
REMARK    6  A    between atoms: C_16  and  C_17
REMARK                            x       y       z     vdW  Elec       q    Type
REMARK                         _______ _______ _______ _____ _____    ______ ____
ROOT
ATOM      1  C   UNL     1       6.170   6.658  17.482  0.00  0.00    +0.000 C 
ENDROOT
BRANCH   1   3
ATOM      2  O   UNL     1       4.043   7.501  16.699  0.00  0.00    +0.000 OA
ATOM      3  C   UNL     1       4.646   6.805  17.514  0.00  0.00    +0.000 C 
ATOM      4  N   UNL     1       4.019   6.097  18.514  0.00  0.00    +0.000 N 
ATOM      5  H   UNL     1       4.541   5.396  19.024  0.00  0.00    +0.000 HD
BRANCH   4   6
ATOM      6  C   UNL     1       2.582   6.108  18.682  0.00  0.00    +0.000 C 
BRANCH   6   7
ATOM      7  C   UNL     1       2.094   4.882  19.413  0.00  0.00    +0.000 A 
ATOM      8  C   UNL     1       2.325   4.729  20.789  0.00  0.00    +0.000 A 
ATOM      9  C   UNL     1       1.854   3.603  21.468  0.00  0.00    +0.000 A 
ATOM     10  C   UNL     1       1.144   2.620  20.781  0.00  0.00    +0.000 A 
ATOM     11  C   UNL     1       0.904   2.762  19.416  0.00  0.00    +0.000 A 
ATOM     12  C   UNL     1       1.374   3.886  18.736  0.00  0.00    +0.000 A 
ENDBRANCH   6   7
ENDBRANCH   4   6
ENDBRANCH   1   3
BRANCH   1  13
ATOM     13  O   UNL     1       6.604   5.497  18.189  0.00  0.00    +0.000 OA
BRANCH  13  14
ATOM     14  C   UNL     1       7.436   4.692  17.478  0.00  0.00    +0.000 C 
ATOM     15  O   UNL     1       8.452   4.176  17.912  0.00  0.00    +0.000 OA
BRANCH  14  16
ATOM     16  C   UNL     1       6.901   4.527  16.093  0.00  0.00    +0.000 A 
ATOM     17  N   UNL     1       7.666   5.065  15.097  0.00  0.00    +0.000 NA
ATOM     18  C   UNL     1       7.206   4.936  13.840  0.00  0.00    +0.000 A 
ATOM     19 CL   UNL     1       8.199   5.640  12.634  0.00  0.00    +0.000 Cl
ATOM     20  C   UNL     1       6.029   4.293  13.503  0.00  0.00    +0.000 A 
ATOM     21  C   UNL     1       5.265   3.746  14.531  0.00  0.00    +0.000 A 
ATOM     22  C   UNL     1       5.698   3.859  15.855  0.00  0.00    +0.000 A 
ATOM     23 CL   UNL     1       4.677   3.212  17.082  0.00  0.00    +0.000 Cl
ENDBRANCH  14  16
ENDBRANCH  13  14
ENDBRANCH   1  13
TORSDOF 6
ENDMDL
MODEL 5
REMARK VINA RESULT:      -7.4      1.736      3.055
REMARK  Name = 
REMARK  6 active torsions:
REMARK  status: ('A' for Active; 'I' for Inactive)
REMARK    1  A    between atoms: C_2  and  C_3
REMARK    2  A    between atoms: C_3  and  O_4
REMARK    3  A    between atoms: O_4  and  C_5
REMARK    4  A    between atoms: C_5  and  C_7
REMARK    5  A    between atoms: N_15  and  C_16
REMARK    6  A    between atoms: C_16  and  C_17
REMARK                            x       y       z     vdW  Elec       q    Type
REMARK                         _______ _______ _______ _____ _____    ______ ____
ROOT
ATOM      1  C   UNL     1       7.850   6.872  18.295  0.00  0.00    +0.000 C 
ENDROOT
BRANCH   1   3
ATOM      2  O   UNL     1       6.901   8.709  17.042  0.00  0.00    +0.000 OA
ATOM      3  C   UNL     1       7.745   8.335  17.854  0.00  0.00    +0.000 C 
ATOM      4  N   UNL     1       8.658   9.181  18.441  0.00  0.00    +0.000 N 
ATOM      5  H   UNL     1       9.190   8.857  19.238  0.00  0.00    +0.000 HD
BRANCH   4   6
ATOM      6  C   UNL     1       8.691  10.599  18.152  0.00  0.00    +0.000 C 
BRANCH   6   7
ATOM      7  C   UNL     1       9.957  11.244  18.659  0.00  0.00    +0.000 A 
ATOM      8  C   UNL     1      10.919  11.734  17.762  0.00  0.00    +0.000 A 
ATOM      9  C   UNL     1      12.081  12.350  18.234  0.00  0.00    +0.000 A 
ATOM     10  C   UNL     1      12.292  12.487  19.605  0.00  0.00    +0.000 A 
ATOM     11  C   UNL     1      11.342  12.009  20.505  0.00  0.00    +0.000 A 
ATOM     12  C   UNL     1      10.181  11.393  20.035  0.00  0.00    +0.000 A 
ENDBRANCH   6   7
ENDBRANCH   4   6
ENDBRANCH   1   3
BRANCH   1  13
ATOM     13  O   UNL     1       7.617   5.974  17.212  0.00  0.00    +0.000 OA
BRANCH  13  14
ATOM     14  C   UNL     1       7.524   4.669  17.581  0.00  0.00    +0.000 C 
ATOM     15  O   UNL     1       8.471   3.945  17.836  0.00  0.00    +0.000 OA
BRANCH  14  16
ATOM     16  C   UNL     1       6.085   4.272  17.640  0.00  0.00    +0.000 A 
ATOM     17  N   UNL     1       5.634   3.874  18.867  0.00  0.00    +0.000 NA
ATOM     18  C   UNL     1       4.342   3.506  18.949  0.00  0.00    +0.000 A 
ATOM     19 CL   UNL     1       3.835   3.003  20.506  0.00  0.00    +0.000 Cl
ATOM     20  C   UNL     1       3.460   3.516  17.884  0.00  0.00    +0.000 A 
ATOM     21  C   UNL     1       3.937   3.931  16.643  0.00  0.00    +0.000 A 
ATOM     22  C   UNL     1       5.274   4.317  16.506  0.00  0.00    +0.000 A 
ATOM     23 CL   UNL     1       5.813   4.762  14.931  0.00  0.00    +0.000 Cl
ENDBRANCH  14  16
ENDBRANCH  13  14
ENDBRANCH   1  13
TORSDOF 6
ENDMDL
MODEL 6
REMARK VINA RESULT:      -7.3      4.778      6.879
REMARK  Name = 
REMARK  6 active torsions:
REMARK  status: ('A' for Active; 'I' for Inactive)
REMARK    1  A    between atoms: C_2  and  C_3
REMARK    2  A    between atoms: C_3  and  O_4
REMARK    3  A    between atoms: O_4  and  C_5
REMARK    4  A    between atoms: C_5  and  C_7
REMARK    5  A    between atoms: N_15  and  C_16
REMARK    6  A    between atoms: C_16  and  C_17
REMARK                            x       y       z     vdW  Elec       q    Type
REMARK                         _______ _______ _______ _____ _____    ______ ____
ROOT
ATOM      1  C   UNL     1       3.440   1.682  18.453  0.00  0.00    +0.000 C 
ENDROOT
BRANCH   1   3
ATOM      2  O   UNL     1       4.767   1.901  20.463  0.00  0.00    +0.000 OA
ATOM      3  C   UNL     1       4.493   2.343  19.349  0.00  0.00    +0.000 C 
ATOM      4  N   UNL     1       5.100   3.450  18.803  0.00  0.00    +0.000 N 
ATOM      5  H   UNL     1       4.977   3.646  17.818  0.00  0.00    +0.000 HD
BRANCH   4   6
ATOM      6  C   UNL     1       6.130   4.188  19.503  0.00  0.00    +0.000 C 
BRANCH   6   7
ATOM      7  C   UNL     1       6.528   5.438  18.758  0.00  0.00    +0.000 A 
ATOM      8  C   UNL     1       7.736   6.092  19.049  0.00  0.00    +0.000 A 
ATOM      9  C   UNL     1       8.111   7.237  18.344  0.00  0.00    +0.000 A 
ATOM     10  C   UNL     1       7.287   7.741  17.339  0.00  0.00    +0.000 A 
ATOM     11  C   UNL     1       6.088   7.098  17.037  0.00  0.00    +0.000 A 
ATOM     12  C   UNL     1       5.711   5.953  17.741  0.00  0.00    +0.000 A 
ENDBRANCH   6   7
ENDBRANCH   4   6
ENDBRANCH   1   3
BRANCH   1  13
ATOM     13  O   UNL     1       2.209   1.479  19.146  0.00  0.00    +0.000 OA
BRANCH  13  14
ATOM     14  C   UNL     1       1.231   2.360  18.810  0.00  0.00    +0.000 C 
ATOM     15  O   UNL     1       0.221   2.081  18.186  0.00  0.00    +0.000 OA
BRANCH  14  16
ATOM     16  C   UNL     1       1.580   3.714  19.338  0.00  0.00    +0.000 A 
ATOM     17  N   UNL     1       1.834   4.668  18.393  0.00  0.00    +0.000 NA
ATOM     18  C   UNL     1       2.156   5.895  18.840  0.00  0.00    +0.000 A 
ATOM     19 CL   UNL     1       2.475   7.047  17.613  0.00  0.00    +0.000 Cl
ATOM     20  C   UNL     1       2.235   6.242  20.177  0.00  0.00    +0.000 A 
ATOM     21  C   UNL     1       1.968   5.257  21.125  0.00  0.00    +0.000 A 
ATOM     22  C   UNL     1       1.634   3.965  20.710  0.00  0.00    +0.000 A 
ATOM     23 CL   UNL     1       1.374   2.781  21.934  0.00  0.00    +0.000 Cl
ENDBRANCH  14  16
ENDBRANCH  13  14
ENDBRANCH   1  13
TORSDOF 6
ENDMDL
MODEL 7
REMARK VINA RESULT:      -7.3      5.656      6.908
REMARK  Name = 
REMARK  6 active torsions:
REMARK  status: ('A' for Active; 'I' for Inactive)
REMARK    1  A    between atoms: C_2  and  C_3
REMARK    2  A    between atoms: C_3  and  O_4
REMARK    3  A    between atoms: O_4  and  C_5
REMARK    4  A    between atoms: C_5  and  C_7
REMARK    5  A    between atoms: N_15  and  C_16
REMARK    6  A    between atoms: C_16  and  C_17
REMARK                            x       y       z     vdW  Elec       q    Type
REMARK                         _______ _______ _______ _____ _____    ______ ____
ROOT
ATOM      1  C   UNL     1       2.439   2.805  21.120  0.00  0.00    +0.000 C 
ENDROOT
BRANCH   1   3
ATOM      2  O   UNL     1       0.485   4.037  20.402  0.00  0.00    +0.000 OA
ATOM      3  C   UNL     1       1.614   4.075  20.886  0.00  0.00    +0.000 C 
ATOM      4  N   UNL     1       2.235   5.243  21.267  0.00  0.00    +0.000 N 
ATOM      5  H   UNL     1       3.072   5.196  21.834  0.00  0.00    +0.000 HD
BRANCH   4   6
ATOM      6  C   UNL     1       1.596   6.534  21.133  0.00  0.00    +0.000 C 
BRANCH   6   7
ATOM      7  C   UNL     1       1.991   7.225  19.852  0.00  0.00    +0.000 A 
ATOM      8  C   UNL     1       1.474   8.490  19.532  0.00  0.00    +0.000 A 
ATOM      9  C   UNL     1       1.858   9.137  18.354  0.00  0.00    +0.000 A 
ATOM     10  C   UNL     1       2.764   8.529  17.486  0.00  0.00    +0.000 A 
ATOM     11  C   UNL     1       3.288   7.275  17.795  0.00  0.00    +0.000 A 
ATOM     12  C   UNL     1       2.905   6.628  18.971  0.00  0.00    +0.000 A 
ENDBRANCH   6   7
ENDBRANCH   4   6
ENDBRANCH   1   3
BRANCH   1  13
ATOM     13  O   UNL     1       3.018   2.320  19.909  0.00  0.00    +0.000 OA
BRANCH  13  14
ATOM     14  C   UNL     1       4.375   2.374  19.883  0.00  0.00    +0.000 C 
ATOM     15  O   UNL     1       5.115   1.762  20.635  0.00  0.00    +0.000 OA
BRANCH  14  16
ATOM     16  C   UNL     1       4.814   3.282  18.781  0.00  0.00    +0.000 A 
ATOM     17  N   UNL     1       5.876   4.092  19.073  0.00  0.00    +0.000 NA
ATOM     18  C   UNL     1       6.289   4.925  18.100  0.00  0.00    +0.000 A 
ATOM     19 CL   UNL     1       7.614   5.925  18.525  0.00  0.00    +0.000 Cl
ATOM     20  C   UNL     1       5.718   5.001  16.843  0.00  0.00    +0.000 A 
ATOM     21  C   UNL     1       4.640   4.164  16.563  0.00  0.00    +0.000 A 
ATOM     22  C   UNL     1       4.170   3.285  17.543  0.00  0.00    +0.000 A 
ATOM     23 CL   UNL     1       2.797   2.320  17.150  0.00  0.00    +0.000 Cl
ENDBRANCH  14  16
ENDBRANCH  13  14
ENDBRANCH   1  13
TORSDOF 6
ENDMDL
MODEL 8
REMARK VINA RESULT:      -7.2      2.461      3.551
REMARK  Name = 
REMARK  6 active torsions:
REMARK  status: ('A' for Active; 'I' for Inactive)
REMARK    1  A    between atoms: C_2  and  C_3
REMARK    2  A    between atoms: C_3  and  O_4
REMARK    3  A    between atoms: O_4  and  C_5
REMARK    4  A    between atoms: C_5  and  C_7
REMARK    5  A    between atoms: N_15  and  C_16
REMARK    6  A    between atoms: C_16  and  C_17
REMARK                            x       y       z     vdW  Elec       q    Type
REMARK                         _______ _______ _______ _____ _____    ______ ____
ROOT
ATOM      1  C   UNL     1       7.757   6.112  17.945  0.00  0.00    +0.000 C 
ENDROOT
BRANCH   1   3
ATOM      2  O   UNL     1       6.573   7.923  16.865  0.00  0.00    +0.000 OA
ATOM      3  C   UNL     1       7.489   7.583  17.610  0.00  0.00    +0.000 C 
ATOM      4  N   UNL     1       8.346   8.476  18.212  0.00  0.00    +0.000 N 
ATOM      5  H   UNL     1       8.948   8.156  18.960  0.00  0.00    +0.000 HD
BRANCH   4   6
ATOM      6  C   UNL     1       8.228   9.906  18.021  0.00  0.00    +0.000 C 
BRANCH   6   7
ATOM      7  C   UNL     1       9.365  10.654  18.672  0.00  0.00    +0.000 A 
ATOM      8  C   UNL     1       9.360  10.901  20.054  0.00  0.00    +0.000 A 
ATOM      9  C   UNL     1      10.424  11.576  20.658  0.00  0.00    +0.000 A 
ATOM     10  C   UNL     1      11.504  12.007  19.890  0.00  0.00    +0.000 A 
ATOM     11  C   UNL     1      11.523  11.763  18.518  0.00  0.00    +0.000 A 
ATOM     12  C   UNL     1      10.461  11.089  17.913  0.00  0.00    +0.000 A 
ENDBRANCH   6   7
ENDBRANCH   4   6
ENDBRANCH   1   3
BRANCH   1  13
ATOM     13  O   UNL     1       6.595   5.306  17.756  0.00  0.00    +0.000 OA
BRANCH  13  14
ATOM     14  C   UNL     1       5.934   5.006  18.905  0.00  0.00    +0.000 C 
ATOM     15  O   UNL     1       6.407   5.086  20.026  0.00  0.00    +0.000 OA
BRANCH  14  16
ATOM     16  C   UNL     1       4.540   4.581  18.577  0.00  0.00    +0.000 A 
ATOM     17  N   UNL     1       3.614   4.791  19.560  0.00  0.00    +0.000 NA
ATOM     18  C   UNL     1       2.350   4.413  19.294  0.00  0.00    +0.000 A 
ATOM     19 CL   UNL     1       1.235   4.686  20.566  0.00  0.00    +0.000 Cl
ATOM     20  C   UNL     1       1.941   3.843  18.102  0.00  0.00    +0.000 A 
ATOM     21  C   UNL     1       2.898   3.643  17.111  0.00  0.00    +0.000 A 
ATOM     22  C   UNL     1       4.226   4.014  17.341  0.00  0.00    +0.000 A 
ATOM     23 CL   UNL     1       5.370   3.684  16.096  0.00  0.00    +0.000 Cl
ENDBRANCH  14  16
ENDBRANCH  13  14
ENDBRANCH   1  13
TORSDOF 6
ENDMDL
MODEL 9
REMARK VINA RESULT:      -7.2      5.699      7.703
REMARK  Name = 
REMARK  6 active torsions:
REMARK  status: ('A' for Active; 'I' for Inactive)
REMARK    1  A    between atoms: C_2  and  C_3
REMARK    2  A    between atoms: C_3  and  O_4
REMARK    3  A    between atoms: O_4  and  C_5
REMARK    4  A    between atoms: C_5  and  C_7
REMARK    5  A    between atoms: N_15  and  C_16
REMARK    6  A    between atoms: C_16  and  C_17
REMARK                            x       y       z     vdW  Elec       q    Type
REMARK                         _______ _______ _______ _____ _____    ______ ____
ROOT
ATOM      1  C   UNL     1       3.575   2.004  18.519  0.00  0.00    +0.000 C 
ENDROOT
BRANCH   1   3
ATOM      2  O   UNL     1       5.350   3.420  19.353  0.00  0.00    +0.000 OA
ATOM      3  C   UNL     1       4.693   3.043  18.384  0.00  0.00    +0.000 C 
ATOM      4  N   UNL     1       4.900   3.504  17.104  0.00  0.00    +0.000 N 
ATOM      5  H   UNL     1       4.468   3.019  16.328  0.00  0.00    +0.000 HD
BRANCH   4   6
ATOM      6  C   UNL     1       5.926   4.475  16.791  0.00  0.00    +0.000 C 
BRANCH   6   7
ATOM      7  C   UNL     1       6.287   4.457  15.327  0.00  0.00    +0.000 A 
ATOM      8  C   UNL     1       7.402   5.167  14.855  0.00  0.00    +0.000 A 
ATOM      9  C   UNL     1       7.746   5.131  13.501  0.00  0.00    +0.000 A 
ATOM     10  C   UNL     1       6.984   4.382  12.606  0.00  0.00    +0.000 A 
ATOM     11  C   UNL     1       5.877   3.668  13.063  0.00  0.00    +0.000 A 
ATOM     12  C   UNL     1       5.532   3.704  14.415  0.00  0.00    +0.000 A 
ENDBRANCH   6   7
ENDBRANCH   4   6
ENDBRANCH   1   3
BRANCH   1  13
ATOM     13  O   UNL     1       2.456   2.321  17.692  0.00  0.00    +0.000 OA
BRANCH  13  14
ATOM     14  C   UNL     1       1.369   2.766  18.374  0.00  0.00    +0.000 C 
ATOM     15  O   UNL     1       0.315   2.164  18.482  0.00  0.00    +0.000 OA
BRANCH  14  16
ATOM     16  C   UNL     1       1.677   4.097  18.981  0.00  0.00    +0.000 A 
ATOM     17  N   UNL     1       2.107   5.057  18.108  0.00  0.00    +0.000 NA
ATOM     18  C   UNL     1       2.396   6.264  18.627  0.00  0.00    +0.000 A 
ATOM     19 CL   UNL     1       2.942   7.424  17.491  0.00  0.00    +0.000 Cl
ATOM     20  C   UNL     1       2.276   6.585  19.967  0.00  0.00    +0.000 A 
ATOM     21  C   UNL     1       1.831   5.595  20.840  0.00  0.00    +0.000 A 
ATOM     22  C   UNL     1       1.524   4.323  20.349  0.00  0.00    +0.000 A 
ATOM     23 CL   UNL     1       1.036   3.129  21.491  0.00  0.00    +0.000 Cl
ENDBRANCH  14  16
ENDBRANCH  13  14
ENDBRANCH   1  13
TORSDOF 6
ENDMDL
