MODEL 1
REMARK VINA RESULT:      -6.9      0.000      0.000
REMARK  Name = 
REMARK  8 active torsions:
REMARK  status: ('A' for Active; 'I' for Inactive)
REMARK    1  A    between atoms: C_1  and  O_2
REMARK    2  A    between atoms: O_2  and  C_3
REMARK    3  A    between atoms: C_6  and  C_7
REMARK    4  A    between atoms: C_8  and  C_9
REMARK    5  A    between atoms: C_11  and  N_12
REMARK    6  A    between atoms: N_13  and  C_14
REMARK    7  A    between atoms: C_17  and  S_18
REMARK    8  A    between atoms: S_18  and  N_19
REMARK                            x       y       z     vdW  Elec       q    Type
REMARK                         _______ _______ _______ _____ _____    ______ ____
ROOT
ATOM      1  C   UNL     1      -1.580  13.203  20.166  0.00  0.00    +0.000 C 
ATOM      2  C   UNL     1      -0.232  12.958  20.800  0.00  0.00    +0.000 C 
ATOM      3  C   UNL     1       0.522  11.864  20.509  0.00  0.00    +0.000 C 
ATOM      4  N   UNL     1       0.020  10.854  19.604  0.00  0.00    +0.000 N 
ATOM      5  C   UNL     1      -1.292  10.989  19.029  0.00  0.00    +0.000 C 
ATOM      6  C   UNL     1      -2.056  12.083  19.254  0.00  0.00    +0.000 C 
ATOM      7  C   UNL     1      -3.432  12.309  18.646  0.00  0.00    +0.000 C 
ATOM      8  C   UNL     1      -3.791  11.344  17.530  0.00  0.00    +0.000 C 
ATOM      9  C   UNL     1      -3.411   9.941  17.946  0.00  0.00    +0.000 C 
ATOM     10  C   UNL     1      -1.900   9.866  18.183  0.00  0.00    +0.000 C 
ENDROOT
BRANCH   1  14
ATOM     11  C   UNL     1      -4.755  14.010  23.023  0.00  0.00    +0.000 A 
ATOM     12  C   UNL     1      -4.178  12.743  22.918  0.00  0.00    +0.000 A 
ATOM     13  C   UNL     1      -3.140  12.521  22.021  0.00  0.00    +0.000 A 
ATOM     14  C   UNL     1      -2.661  13.557  21.197  0.00  0.00    +0.000 A 
ATOM     15  C   UNL     1      -3.248  14.857  21.276  0.00  0.00    +0.000 A 
ATOM     16  C   UNL     1      -2.846  15.953  20.468  0.00  0.00    +0.000 A 
ATOM     17  C   UNL     1      -3.461  17.202  20.541  0.00  0.00    +0.000 A 
ATOM     18  C   UNL     1      -4.496  17.401  21.433  0.00  0.00    +0.000 A 
ATOM     19  C   UNL     1      -4.913  16.351  22.249  0.00  0.00    +0.000 A 
ATOM     20  C   UNL     1      -4.314  15.072  22.195  0.00  0.00    +0.000 A 
BRANCH  11  22
ATOM     21  C   UNL     1      -6.793  13.253  23.977  0.00  0.00    +0.000 C 
ATOM     22  O   UNL     1      -5.805  14.274  23.875  0.00  0.00    +0.000 OA
ENDBRANCH  11  22
ENDBRANCH   1  14
BRANCH   4  23
ATOM     23  C   UNL     1       0.868   9.720  19.274  0.00  0.00    +0.000 A 
ATOM     24  C   UNL     1       1.080   8.662  20.183  0.00  0.00    +0.000 A 
ATOM     25  C   UNL     1       1.953   7.606  19.897  0.00  0.00    +0.000 A 
ATOM     26  C   UNL     1       2.543   7.530  18.637  0.00  0.00    +0.000 A 
ATOM     27  C   UNL     1       2.339   8.539  17.703  0.00  0.00    +0.000 A 
ATOM     28  C   UNL     1       1.555   9.644  18.047  0.00  0.00    +0.000 A 
BRANCH  26  29
ATOM     29  S   UNL     1       3.569   6.148  18.233  0.00  0.00    +0.000 S 
ATOM     30  O   UNL     1       2.755   5.090  17.688  0.00  0.00    +0.000 OA
ATOM     31  O   UNL     1       4.766   6.627  17.587  0.00  0.00    +0.000 OA
BRANCH  29  32
ATOM     32  N   UNL     1       4.028   5.634  19.764  0.00  0.00    +0.000 NA
ATOM     33  H   UNL     1       4.164   6.436  20.380  0.00  0.00    +0.000 HD
ATOM     34  H   UNL     1       3.371   4.938  20.114  0.00  0.00    +0.000 HD
ENDBRANCH  29  32
ENDBRANCH  26  29
ENDBRANCH   4  23
BRANCH   3  35
ATOM     35  N   UNL     1       1.800  11.773  21.071  0.00  0.00    +0.000 N 
ATOM     36  H   UNL     1       2.214  12.640  21.405  0.00  0.00    +0.000 HD
ATOM     37  H   UNL     1       2.444  11.278  20.458  0.00  0.00    +0.000 HD
ENDBRANCH   3  35
BRANCH   2  38
ATOM     38  C   UNL     1       0.257  13.994  21.661  0.00  0.00    +0.000 C 
ATOM     39  N   UNL     1       0.700  14.815  22.351  0.00  0.00    +0.000 NA
ENDBRANCH   2  38
TORSDOF 7
ENDMDL
MODEL 2
REMARK VINA RESULT:      -6.8      0.596      1.070
REMARK  Name = 
REMARK  8 active torsions:
REMARK  status: ('A' for Active; 'I' for Inactive)
REMARK    1  A    between atoms: C_1  and  O_2
REMARK    2  A    between atoms: O_2  and  C_3
REMARK    3  A    between atoms: C_6  and  C_7
REMARK    4  A    between atoms: C_8  and  C_9
REMARK    5  A    between atoms: C_11  and  N_12
REMARK    6  A    between atoms: N_13  and  C_14
REMARK    7  A    between atoms: C_17  and  S_18
REMARK    8  A    between atoms: S_18  and  N_19
REMARK                            x       y       z     vdW  Elec       q    Type
REMARK                         _______ _______ _______ _____ _____    ______ ____
ROOT
ATOM      1  C   UNL     1      -1.649  13.194  20.151  0.00  0.00    +0.000 C 
ATOM      2  C   UNL     1      -0.315  12.960  20.817  0.00  0.00    +0.000 C 
ATOM      3  C   UNL     1       0.457  11.875  20.540  0.00  0.00    +0.000 C 
ATOM      4  N   UNL     1      -0.012  10.864  19.618  0.00  0.00    +0.000 N 
ATOM      5  C   UNL     1      -1.312  10.989  19.012  0.00  0.00    +0.000 C 
ATOM      6  C   UNL     1      -2.092  12.074  19.224  0.00  0.00    +0.000 C 
ATOM      7  C   UNL     1      -3.455  12.289  18.583  0.00  0.00    +0.000 C 
ATOM      8  C   UNL     1      -3.777  11.325  17.455  0.00  0.00    +0.000 C 
ATOM      9  C   UNL     1      -3.393   9.924  17.874  0.00  0.00    +0.000 C 
ATOM     10  C   UNL     1      -1.887   9.864  18.147  0.00  0.00    +0.000 C 
ENDROOT
BRANCH   1  14
ATOM     11  C   UNL     1      -4.904  13.960  22.930  0.00  0.00    +0.000 A 
ATOM     12  C   UNL     1      -4.340  12.689  22.806  0.00  0.00    +0.000 A 
ATOM     13  C   UNL     1      -3.276  12.480  21.936  0.00  0.00    +0.000 A 
ATOM     14  C   UNL     1      -2.758  13.533  21.158  0.00  0.00    +0.000 A 
ATOM     15  C   UNL     1      -3.332  14.838  21.256  0.00  0.00    +0.000 A 
ATOM     16  C   UNL     1      -2.891  15.951  20.493  0.00  0.00    +0.000 A 
ATOM     17  C   UNL     1      -3.492  17.205  20.583  0.00  0.00    +0.000 A 
ATOM     18  C   UNL     1      -4.553  17.392  21.448  0.00  0.00    +0.000 A 
ATOM     19  C   UNL     1      -5.009  16.325  22.220  0.00  0.00    +0.000 A 
ATOM     20  C   UNL     1      -4.424  15.040  22.147  0.00  0.00    +0.000 A 
BRANCH  11  22
ATOM     21  C   UNL     1      -6.806  13.095  24.055  0.00  0.00    +0.000 C 
ATOM     22  O   UNL     1      -5.978  14.213  23.755  0.00  0.00    +0.000 OA
ENDBRANCH  11  22
ENDBRANCH   1  14
BRANCH   4  23
ATOM     23  C   UNL     1       0.855   9.741  19.304  0.00  0.00    +0.000 A 
ATOM     24  C   UNL     1       1.491   9.622  18.050  0.00  0.00    +0.000 A 
ATOM     25  C   UNL     1       2.267   8.506  17.718  0.00  0.00    +0.000 A 
ATOM     26  C   UNL     1       2.518   7.537  18.686  0.00  0.00    +0.000 A 
ATOM     27  C   UNL     1       1.931   7.629  19.943  0.00  0.00    +0.000 A 
ATOM     28  C   UNL     1       1.067   8.692  20.219  0.00  0.00    +0.000 A 
BRANCH  26  29
ATOM     29  S   UNL     1       3.578   6.173  18.306  0.00  0.00    +0.000 S 
ATOM     30  O   UNL     1       4.364   6.489  17.139  0.00  0.00    +0.000 OA
ATOM     31  O   UNL     1       4.157   5.674  19.529  0.00  0.00    +0.000 OA
BRANCH  29  32
ATOM     32  N   UNL     1       2.456   5.026  17.810  0.00  0.00    +0.000 NA
ATOM     33  H   UNL     1       1.874   5.403  17.061  0.00  0.00    +0.000 HD
ATOM     34  H   UNL     1       2.924   4.151  17.580  0.00  0.00    +0.000 HD
ENDBRANCH  29  32
ENDBRANCH  26  29
ENDBRANCH   4  23
BRANCH   3  35
ATOM     35  N   UNL     1       1.722  11.795  21.132  0.00  0.00    +0.000 N 
ATOM     36  H   UNL     1       2.478  12.286  20.661  0.00  0.00    +0.000 HD
ATOM     37  H   UNL     1       1.984  10.831  21.327  0.00  0.00    +0.000 HD
ENDBRANCH   3  35
BRANCH   2  38
ATOM     38  C   UNL     1       0.143  13.997  21.694  0.00  0.00    +0.000 C 
ATOM     39  N   UNL     1       0.545  14.803  22.426  0.00  0.00    +0.000 NA
ENDBRANCH   2  38
TORSDOF 7
ENDMDL
MODEL 3
REMARK VINA RESULT:      -6.1      3.388      9.132
REMARK  Name = 
REMARK  8 active torsions:
REMARK  status: ('A' for Active; 'I' for Inactive)
REMARK    1  A    between atoms: C_1  and  O_2
REMARK    2  A    between atoms: O_2  and  C_3
REMARK    3  A    between atoms: C_6  and  C_7
REMARK    4  A    between atoms: C_8  and  C_9
REMARK    5  A    between atoms: C_11  and  N_12
REMARK    6  A    between atoms: N_13  and  C_14
REMARK    7  A    between atoms: C_17  and  S_18
REMARK    8  A    between atoms: S_18  and  N_19
REMARK                            x       y       z     vdW  Elec       q    Type
REMARK                         _______ _______ _______ _____ _____    ______ ____
ROOT
ATOM      1  C   UNL     1      -0.025  12.044  18.713  0.00  0.00    +0.000 C 
ATOM      2  C   UNL     1      -1.521  11.860  18.774  0.00  0.00    +0.000 C 
ATOM      3  C   UNL     1      -2.319  12.637  19.556  0.00  0.00    +0.000 C 
ATOM      4  N   UNL     1      -1.738  13.649  20.410  0.00  0.00    +0.000 N 
ATOM      5  C   UNL     1      -0.310  13.819  20.457  0.00  0.00    +0.000 C 
ATOM      6  C   UNL     1       0.517  13.100  19.662  0.00  0.00    +0.000 C 
ATOM      7  C   UNL     1       2.029  13.259  19.632  0.00  0.00    +0.000 C 
ATOM      8  C   UNL     1       2.547  14.486  20.359  0.00  0.00    +0.000 C 
ATOM      9  C   UNL     1       1.838  14.611  21.689  0.00  0.00    +0.000 C 
ATOM     10  C   UNL     1       0.334  14.784  21.457  0.00  0.00    +0.000 C 
ENDROOT
BRANCH   1  14
ATOM     11  C   UNL     1       2.059   8.238  18.978  0.00  0.00    +0.000 A 
ATOM     12  C   UNL     1       2.135   9.028  17.830  0.00  0.00    +0.000 A 
ATOM     13  C   UNL     1       1.489  10.258  17.785  0.00  0.00    +0.000 A 
ATOM     14  C   UNL     1       0.738  10.722  18.882  0.00  0.00    +0.000 A 
ATOM     15  C   UNL     1       0.633   9.922  20.061  0.00  0.00    +0.000 A 
ATOM     16  C   UNL     1      -0.120  10.299  21.204  0.00  0.00    +0.000 A 
ATOM     17  C   UNL     1      -0.235   9.482  22.327  0.00  0.00    +0.000 A 
ATOM     18  C   UNL     1       0.409   8.260  22.350  0.00  0.00    +0.000 A 
ATOM     19  C   UNL     1       1.165   7.859  21.251  0.00  0.00    +0.000 A 
ATOM     20  C   UNL     1       1.296   8.662  20.095  0.00  0.00    +0.000 A 
BRANCH  11  22
ATOM     21  C   UNL     1       3.373   6.577  17.906  0.00  0.00    +0.000 C 
ATOM     22  O   UNL     1       2.657   6.999  19.062  0.00  0.00    +0.000 OA
ENDBRANCH  11  22
ENDBRANCH   1  14
BRANCH   4  23
ATOM     23  C   UNL     1      -2.619  14.497  21.197  0.00  0.00    +0.000 A 
ATOM     24  C   UNL     1      -3.133  14.080  22.442  0.00  0.00    +0.000 A 
ATOM     25  C   UNL     1      -4.039  14.862  23.167  0.00  0.00    +0.000 A 
ATOM     26  C   UNL     1      -4.356  16.139  22.710  0.00  0.00    +0.000 A 
ATOM     27  C   UNL     1      -3.850  16.599  21.500  0.00  0.00    +0.000 A 
ATOM     28  C   UNL     1      -3.037  15.758  20.733  0.00  0.00    +0.000 A 
BRANCH  26  29
ATOM     29  S   UNL     1      -5.422  17.173  23.670  0.00  0.00    +0.000 S 
ATOM     30  O   UNL     1      -5.052  18.553  23.476  0.00  0.00    +0.000 OA
ATOM     31  O   UNL     1      -6.777  16.700  23.537  0.00  0.00    +0.000 OA
BRANCH  29  32
ATOM     32  N   UNL     1      -4.932  16.779  25.227  0.00  0.00    +0.000 NA
ATOM     33  H   UNL     1      -5.274  17.474  25.891  0.00  0.00    +0.000 HD
ATOM     34  H   UNL     1      -5.194  15.820  25.446  0.00  0.00    +0.000 HD
ENDBRANCH  29  32
ENDBRANCH  26  29
ENDBRANCH   4  23
BRANCH   3  35
ATOM     35  N   UNL     1      -3.704  12.458  19.471  0.00  0.00    +0.000 N 
ATOM     36  H   UNL     1      -4.133  11.873  20.184  0.00  0.00    +0.000 HD
ATOM     37  H   UNL     1      -3.987  12.158  18.540  0.00  0.00    +0.000 HD
ENDBRANCH   3  35
BRANCH   2  38
ATOM     38  C   UNL     1      -2.074  10.878  17.888  0.00  0.00    +0.000 C 
ATOM     39  N   UNL     1      -2.479  10.056  17.177  0.00  0.00    +0.000 NA
ENDBRANCH   2  38
TORSDOF 7
ENDMDL
MODEL 4
REMARK VINA RESULT:      -5.9      4.113      5.316
REMARK  Name = 
REMARK  8 active torsions:
REMARK  status: ('A' for Active; 'I' for Inactive)
REMARK    1  A    between atoms: C_1  and  O_2
REMARK    2  A    between atoms: O_2  and  C_3
REMARK    3  A    between atoms: C_6  and  C_7
REMARK    4  A    between atoms: C_8  and  C_9
REMARK    5  A    between atoms: C_11  and  N_12
REMARK    6  A    between atoms: N_13  and  C_14
REMARK    7  A    between atoms: C_17  and  S_18
REMARK    8  A    between atoms: S_18  and  N_19
REMARK                            x       y       z     vdW  Elec       q    Type
REMARK                         _______ _______ _______ _____ _____    ______ ____
ROOT
ATOM      1  C   UNL     1      -1.610  13.899  19.655  0.00  0.00    +0.000 C 
ATOM      2  C   UNL     1      -0.965  15.240  19.903  0.00  0.00    +0.000 C 
ATOM      3  C   UNL     1       0.375  15.439  19.776  0.00  0.00    +0.000 C 
ATOM      4  N   UNL     1       1.246  14.334  19.443  0.00  0.00    +0.000 N 
ATOM      5  C   UNL     1       0.701  13.013  19.272  0.00  0.00    +0.000 C 
ATOM      6  C   UNL     1      -0.630  12.780  19.344  0.00  0.00    +0.000 C 
ATOM      7  C   UNL     1      -1.275  11.418  19.133  0.00  0.00    +0.000 C 
ATOM      8  C   UNL     1      -0.346  10.366  18.554  0.00  0.00    +0.000 C 
ATOM      9  C   UNL     1       0.983  10.428  19.272  0.00  0.00    +0.000 C 
ATOM     10  C   UNL     1       1.619  11.805  19.060  0.00  0.00    +0.000 C 
ENDROOT
BRANCH   1  14
ATOM     11  C   UNL     1      -4.141  12.578  22.933  0.00  0.00    +0.000 A 
ATOM     12  C   UNL     1      -2.801  12.909  23.139  0.00  0.00    +0.000 A 
ATOM     13  C   UNL     1      -2.023  13.363  22.081  0.00  0.00    +0.000 A 
ATOM     14  C   UNL     1      -2.563  13.485  20.786  0.00  0.00    +0.000 A 
ATOM     15  C   UNL     1      -3.928  13.135  20.548  0.00  0.00    +0.000 A 
ATOM     16  C   UNL     1      -4.548  13.204  19.273  0.00  0.00    +0.000 A 
ATOM     17  C   UNL     1      -5.872  12.823  19.063  0.00  0.00    +0.000 A 
ATOM     18  C   UNL     1      -6.626  12.366  20.127  0.00  0.00    +0.000 A 
ATOM     19  C   UNL     1      -6.055  12.294  21.396  0.00  0.00    +0.000 A 
ATOM     20  C   UNL     1      -4.714  12.667  21.639  0.00  0.00    +0.000 A 
BRANCH  11  22
ATOM     21  C   UNL     1      -4.603  12.510  25.260  0.00  0.00    +0.000 C 
ATOM     22  O   UNL     1      -4.946  12.095  23.942  0.00  0.00    +0.000 OA
ENDBRANCH  11  22
ENDBRANCH   1  14
BRANCH   4  23
ATOM     23  C   UNL     1       2.667  14.586  19.265  0.00  0.00    +0.000 A 
ATOM     24  C   UNL     1       3.561  14.597  20.356  0.00  0.00    +0.000 A 
ATOM     25  C   UNL     1       4.916  14.911  20.198  0.00  0.00    +0.000 A 
ATOM     26  C   UNL     1       5.426  15.105  18.917  0.00  0.00    +0.000 A 
ATOM     27  C   UNL     1       4.583  15.077  17.812  0.00  0.00    +0.000 A 
ATOM     28  C   UNL     1       3.213  14.875  18.000  0.00  0.00    +0.000 A 
BRANCH  26  29
ATOM     29  S   UNL     1       7.155  15.405  18.700  0.00  0.00    +0.000 S 
ATOM     30  O   UNL     1       7.361  16.790  18.353  0.00  0.00    +0.000 OA
ATOM     31  O   UNL     1       7.882  14.747  19.757  0.00  0.00    +0.000 OA
BRANCH  29  32
ATOM     32  N   UNL     1       7.458  14.530  17.300  0.00  0.00    +0.000 NA
ATOM     33  H   UNL     1       8.418  14.681  16.988  0.00  0.00    +0.000 HD
ATOM     34  H   UNL     1       7.207  13.552  17.434  0.00  0.00    +0.000 HD
ENDBRANCH  29  32
ENDBRANCH  26  29
ENDBRANCH   4  23
BRANCH   3  35
ATOM     35  N   UNL     1       0.869  16.739  19.930  0.00  0.00    +0.000 N 
ATOM     36  H   UNL     1       1.840  16.827  20.219  0.00  0.00    +0.000 HD
ATOM     37  H   UNL     1       0.263  17.302  20.524  0.00  0.00    +0.000 HD
ENDBRANCH   3  35
BRANCH   2  38
ATOM     38  C   UNL     1      -1.855  16.325  20.193  0.00  0.00    +0.000 C 
ATOM     39  N   UNL     1      -2.605  17.189  20.389  0.00  0.00    +0.000 NA
ENDBRANCH   2  38
TORSDOF 7
ENDMDL
MODEL 5
REMARK VINA RESULT:      -5.8      4.052      5.676
REMARK  Name = 
REMARK  8 active torsions:
REMARK  status: ('A' for Active; 'I' for Inactive)
REMARK    1  A    between atoms: C_1  and  O_2
REMARK    2  A    between atoms: O_2  and  C_3
REMARK    3  A    between atoms: C_6  and  C_7
REMARK    4  A    between atoms: C_8  and  C_9
REMARK    5  A    between atoms: C_11  and  N_12
REMARK    6  A    between atoms: N_13  and  C_14
REMARK    7  A    between atoms: C_17  and  S_18
REMARK    8  A    between atoms: S_18  and  N_19
REMARK                            x       y       z     vdW  Elec       q    Type
REMARK                         _______ _______ _______ _____ _____    ______ ____
ROOT
ATOM      1  C   UNL     1      -1.945  13.656  21.627  0.00  0.00    +0.000 C 
ATOM      2  C   UNL     1      -0.803  12.671  21.684  0.00  0.00    +0.000 C 
ATOM      3  C   UNL     1       0.432  12.957  21.190  0.00  0.00    +0.000 C 
ATOM      4  N   UNL     1       0.678  14.222  20.534  0.00  0.00    +0.000 N 
ATOM      5  C   UNL     1      -0.391  15.172  20.376  0.00  0.00    +0.000 C 
ATOM      6  C   UNL     1      -1.621  14.948  20.893  0.00  0.00    +0.000 C 
ATOM      7  C   UNL     1      -2.783  15.926  20.798  0.00  0.00    +0.000 C 
ATOM      8  C   UNL     1      -2.397  17.315  20.321  0.00  0.00    +0.000 C 
ATOM      9  C   UNL     1      -1.464  17.191  19.138  0.00  0.00    +0.000 C 
ATOM     10  C   UNL     1      -0.190  16.454  19.562  0.00  0.00    +0.000 C 
ENDROOT
BRANCH   1  14
ATOM     11  C   UNL     1      -5.571  12.015  19.879  0.00  0.00    +0.000 A 
ATOM     12  C   UNL     1      -4.389  12.107  19.144  0.00  0.00    +0.000 A 
ATOM     13  C   UNL     1      -3.234  12.602  19.737  0.00  0.00    +0.000 A 
ATOM     14  C   UNL     1      -3.236  13.031  21.079  0.00  0.00    +0.000 A 
ATOM     15  C   UNL     1      -4.439  12.963  21.845  0.00  0.00    +0.000 A 
ATOM     16  C   UNL     1      -4.540  13.395  23.194  0.00  0.00    +0.000 A 
ATOM     17  C   UNL     1      -5.737  13.350  23.907  0.00  0.00    +0.000 A 
ATOM     18  C   UNL     1      -6.876  12.862  23.297  0.00  0.00    +0.000 A 
ATOM     19  C   UNL     1      -6.815  12.420  21.977  0.00  0.00    +0.000 A 
ATOM     20  C   UNL     1      -5.618  12.458  21.225  0.00  0.00    +0.000 A 
BRANCH  11  22
ATOM     21  C   UNL     1      -6.783  10.176  18.996  0.00  0.00    +0.000 C 
ATOM     22  O   UNL     1      -6.749  11.560  19.329  0.00  0.00    +0.000 OA
ENDBRANCH  11  22
ENDBRANCH   1  14
BRANCH   4  23
ATOM     23  C   UNL     1       2.020  14.520  20.061  0.00  0.00    +0.000 A 
ATOM     24  C   UNL     1       2.962  15.188  20.871  0.00  0.00    +0.000 A 
ATOM     25  C   UNL     1       4.229  15.542  20.393  0.00  0.00    +0.000 A 
ATOM     26  C   UNL     1       4.620  15.124  19.123  0.00  0.00    +0.000 A 
ATOM     27  C   UNL     1       3.731  14.441  18.302  0.00  0.00    +0.000 A 
ATOM     28  C   UNL     1       2.430  14.197  18.753  0.00  0.00    +0.000 A 
BRANCH  26  29
ATOM     29  S   UNL     1       6.254  15.482  18.549  0.00  0.00    +0.000 S 
ATOM     30  O   UNL     1       6.563  14.633  17.424  0.00  0.00    +0.000 OA
ATOM     31  O   UNL     1       6.440  16.912  18.525  0.00  0.00    +0.000 OA
BRANCH  29  32
ATOM     32  N   UNL     1       7.175  14.904  19.828  0.00  0.00    +0.000 NA
ATOM     33  H   UNL     1       6.622  14.896  20.686  0.00  0.00    +0.000 HD
ATOM     34  H   UNL     1       7.592  14.007  19.586  0.00  0.00    +0.000 HD
ENDBRANCH  29  32
ENDBRANCH  26  29
ENDBRANCH   4  23
BRANCH   3  35
ATOM     35  N   UNL     1       1.453  12.019  21.378  0.00  0.00    +0.000 N 
ATOM     36  H   UNL     1       2.367  12.259  21.004  0.00  0.00    +0.000 HD
ATOM     37  H   UNL     1       1.169  11.091  21.071  0.00  0.00    +0.000 HD
ENDBRANCH   3  35
BRANCH   2  38
ATOM     38  C   UNL     1      -1.064  11.442  22.374  0.00  0.00    +0.000 C 
ATOM     39  N   UNL     1      -1.228  10.448  22.949  0.00  0.00    +0.000 NA
ENDBRANCH   2  38
TORSDOF 7
ENDMDL
MODEL 6
REMARK VINA RESULT:      -5.8      1.072      2.380
REMARK  Name = 
REMARK  8 active torsions:
REMARK  status: ('A' for Active; 'I' for Inactive)
REMARK    1  A    between atoms: C_1  and  O_2
REMARK    2  A    between atoms: O_2  and  C_3
REMARK    3  A    between atoms: C_6  and  C_7
REMARK    4  A    between atoms: C_8  and  C_9
REMARK    5  A    between atoms: C_11  and  N_12
REMARK    6  A    between atoms: N_13  and  C_14
REMARK    7  A    between atoms: C_17  and  S_18
REMARK    8  A    between atoms: S_18  and  N_19
REMARK                            x       y       z     vdW  Elec       q    Type
REMARK                         _______ _______ _______ _____ _____    ______ ____
ROOT
ATOM      1  C   UNL     1      -1.563  13.477  19.574  0.00  0.00    +0.000 C 
ATOM      2  C   UNL     1      -0.185  13.338  20.172  0.00  0.00    +0.000 C 
ATOM      3  C   UNL     1       0.554  12.202  20.044  0.00  0.00    +0.000 C 
ATOM      4  N   UNL     1       0.006  11.051  19.361  0.00  0.00    +0.000 N 
ATOM      5  C   UNL     1      -1.334  11.094  18.839  0.00  0.00    +0.000 C 
ATOM      6  C   UNL     1      -2.086  12.218  18.903  0.00  0.00    +0.000 C 
ATOM      7  C   UNL     1      -3.491  12.343  18.335  0.00  0.00    +0.000 C 
ATOM      8  C   UNL     1      -3.908  11.198  17.430  0.00  0.00    +0.000 C 
ATOM      9  C   UNL     1      -3.506   9.888  18.070  0.00  0.00    +0.000 C 
ATOM     10  C   UNL     1      -1.985   9.843  18.239  0.00  0.00    +0.000 C 
ENDROOT
BRANCH   1  14
ATOM     11  C   UNL     1      -4.368  15.228  22.397  0.00  0.00    +0.000 A 
ATOM     12  C   UNL     1      -4.073  15.854  21.184  0.00  0.00    +0.000 A 
ATOM     13  C   UNL     1      -3.200  15.255  20.284  0.00  0.00    +0.000 A 
ATOM     14  C   UNL     1      -2.589  14.021  20.579  0.00  0.00    +0.000 A 
ATOM     15  C   UNL     1      -2.863  13.371  21.821  0.00  0.00    +0.000 A 
ATOM     16  C   UNL     1      -2.276  12.139  22.212  0.00  0.00    +0.000 A 
ATOM     17  C   UNL     1      -2.534  11.545  23.446  0.00  0.00    +0.000 A 
ATOM     18  C   UNL     1      -3.398  12.160  24.331  0.00  0.00    +0.000 A 
ATOM     19  C   UNL     1      -4.002  13.365  23.979  0.00  0.00    +0.000 A 
ATOM     20  C   UNL     1      -3.756  13.996  22.738  0.00  0.00    +0.000 A 
BRANCH  11  22
ATOM     21  C   UNL     1      -6.571  15.907  22.960  0.00  0.00    +0.000 C 
ATOM     22  O   UNL     1      -5.203  15.794  23.336  0.00  0.00    +0.000 OA
ENDBRANCH  11  22
ENDBRANCH   1  14
BRANCH   4  23
ATOM     23  C   UNL     1       0.836   9.869  19.196  0.00  0.00    +0.000 A 
ATOM     24  C   UNL     1       1.492   9.586  17.980  0.00  0.00    +0.000 A 
ATOM     25  C   UNL     1       2.231   8.413  17.795  0.00  0.00    +0.000 A 
ATOM     26  C   UNL     1       2.426   7.552  18.872  0.00  0.00    +0.000 A 
ATOM     27  C   UNL     1       1.818   7.807  20.096  0.00  0.00    +0.000 A 
ATOM     28  C   UNL     1       0.989   8.925  20.229  0.00  0.00    +0.000 A 
BRANCH  26  29
ATOM     29  S   UNL     1       3.440   6.117  18.673  0.00  0.00    +0.000 S 
ATOM     30  O   UNL     1       4.523   6.417  17.770  0.00  0.00    +0.000 OA
ATOM     31  O   UNL     1       3.643   5.505  19.964  0.00  0.00    +0.000 OA
BRANCH  29  32
ATOM     32  N   UNL     1       2.401   5.106  17.827  0.00  0.00    +0.000 NA
ATOM     33  H   UNL     1       2.264   5.455  16.878  0.00  0.00    +0.000 HD
ATOM     34  H   UNL     1       2.726   4.142  17.879  0.00  0.00    +0.000 HD
ENDBRANCH  29  32
ENDBRANCH  26  29
ENDBRANCH   4  23
BRANCH   3  35
ATOM     35  N   UNL     1       1.859  12.202  20.547  0.00  0.00    +0.000 N 
ATOM     36  H   UNL     1       2.004  11.734  21.438  0.00  0.00    +0.000 HD
ATOM     37  H   UNL     1       2.255  13.139  20.562  0.00  0.00    +0.000 HD
ENDBRANCH   3  35
BRANCH   2  38
ATOM     38  C   UNL     1       0.349  14.506  20.809  0.00  0.00    +0.000 C 
ATOM     39  N   UNL     1       0.813  15.423  21.348  0.00  0.00    +0.000 NA
ENDBRANCH   2  38
TORSDOF 7
ENDMDL
MODEL 7
REMARK VINA RESULT:      -5.8      1.008      2.177
REMARK  Name = 
REMARK  8 active torsions:
REMARK  status: ('A' for Active; 'I' for Inactive)
REMARK    1  A    between atoms: C_1  and  O_2
REMARK    2  A    between atoms: O_2  and  C_3
REMARK    3  A    between atoms: C_6  and  C_7
REMARK    4  A    between atoms: C_8  and  C_9
REMARK    5  A    between atoms: C_11  and  N_12
REMARK    6  A    between atoms: N_13  and  C_14
REMARK    7  A    between atoms: C_17  and  S_18
REMARK    8  A    between atoms: S_18  and  N_19
REMARK                            x       y       z     vdW  Elec       q    Type
REMARK                         _______ _______ _______ _____ _____    ______ ____
ROOT
ATOM      1  C   UNL     1      -1.294  13.593  19.584  0.00  0.00    +0.000 C 
ATOM      2  C   UNL     1       0.104  13.401  20.118  0.00  0.00    +0.000 C 
ATOM      3  C   UNL     1       0.789  12.236  19.963  0.00  0.00    +0.000 C 
ATOM      4  N   UNL     1       0.164  11.105  19.315  0.00  0.00    +0.000 N 
ATOM      5  C   UNL     1      -1.197  11.198  18.856  0.00  0.00    +0.000 C 
ATOM      6  C   UNL     1      -1.898  12.352  18.948  0.00  0.00    +0.000 C 
ATOM      7  C   UNL     1      -3.323  12.531  18.446  0.00  0.00    +0.000 C 
ATOM      8  C   UNL     1      -3.827  11.399  17.570  0.00  0.00    +0.000 C 
ATOM      9  C   UNL     1      -3.449  10.077  18.200  0.00  0.00    +0.000 C 
ATOM     10  C   UNL     1      -1.924   9.972  18.297  0.00  0.00    +0.000 C 
ENDROOT
BRANCH   1  14
ATOM     11  C   UNL     1      -3.872  15.462  22.544  0.00  0.00    +0.000 A 
ATOM     12  C   UNL     1      -3.504  16.132  21.376  0.00  0.00    +0.000 A 
ATOM     13  C   UNL     1      -2.709  15.498  20.429  0.00  0.00    +0.000 A 
ATOM     14  C   UNL     1      -2.249  14.182  20.633  0.00  0.00    +0.000 A 
ATOM     15  C   UNL     1      -2.599  13.484  21.829  0.00  0.00    +0.000 A 
ATOM     16  C   UNL     1      -2.162  12.167  22.129  0.00  0.00    +0.000 A 
ATOM     17  C   UNL     1      -2.490  11.523  23.320  0.00  0.00    +0.000 A 
ATOM     18  C   UNL     1      -3.276  12.173  24.253  0.00  0.00    +0.000 A 
ATOM     19  C   UNL     1      -3.732  13.463  23.990  0.00  0.00    +0.000 A 
ATOM     20  C   UNL     1      -3.411  14.145  22.794  0.00  0.00    +0.000 A 
BRANCH  11  22
ATOM     21  C   UNL     1      -5.985  16.342  23.175  0.00  0.00    +0.000 C 
ATOM     22  O   UNL     1      -4.634  16.056  23.526  0.00  0.00    +0.000 OA
ENDBRANCH  11  22
ENDBRANCH   1  14
BRANCH   4  23
ATOM     23  C   UNL     1       0.937   9.889  19.120  0.00  0.00    +0.000 A 
ATOM     24  C   UNL     1       1.071   8.922  20.139  0.00  0.00    +0.000 A 
ATOM     25  C   UNL     1       1.874   7.787  19.980  0.00  0.00    +0.000 A 
ATOM     26  C   UNL     1       2.467   7.538  18.745  0.00  0.00    +0.000 A 
ATOM     27  C   UNL     1       2.340   8.454  17.706  0.00  0.00    +0.000 A 
ATOM     28  C   UNL     1       1.628   9.638  17.919  0.00  0.00    +0.000 A 
BRANCH  26  29
ATOM     29  S   UNL     1       3.403   6.057  18.505  0.00  0.00    +0.000 S 
ATOM     30  O   UNL     1       2.577   5.070  17.856  0.00  0.00    +0.000 OA
ATOM     31  O   UNL     1       4.721   6.406  18.037  0.00  0.00    +0.000 OA
BRANCH  29  32
ATOM     32  N   UNL     1       3.585   5.535  20.090  0.00  0.00    +0.000 NA
ATOM     33  H   UNL     1       2.696   5.600  20.588  0.00  0.00    +0.000 HD
ATOM     34  H   UNL     1       4.013   4.611  20.110  0.00  0.00    +0.000 HD
ENDBRANCH  29  32
ENDBRANCH  26  29
ENDBRANCH   4  23
BRANCH   3  35
ATOM     35  N   UNL     1       2.116  12.185  20.404  0.00  0.00    +0.000 N 
ATOM     36  H   UNL     1       2.621  11.320  20.232  0.00  0.00    +0.000 HD
ATOM     37  H   UNL     1       2.197  12.463  21.380  0.00  0.00    +0.000 HD
ENDBRANCH   3  35
BRANCH   2  38
ATOM     38  C   UNL     1       0.713  14.550  20.720  0.00  0.00    +0.000 C 
ATOM     39  N   UNL     1       1.226  15.492  21.163  0.00  0.00    +0.000 NA
ENDBRANCH   2  38
TORSDOF 7
ENDMDL
MODEL 8
REMARK VINA RESULT:      -5.7      3.542      9.139
REMARK  Name = 
REMARK  8 active torsions:
REMARK  status: ('A' for Active; 'I' for Inactive)
REMARK    1  A    between atoms: C_1  and  O_2
REMARK    2  A    between atoms: O_2  and  C_3
REMARK    3  A    between atoms: C_6  and  C_7
REMARK    4  A    between atoms: C_8  and  C_9
REMARK    5  A    between atoms: C_11  and  N_12
REMARK    6  A    between atoms: N_13  and  C_14
REMARK    7  A    between atoms: C_17  and  S_18
REMARK    8  A    between atoms: S_18  and  N_19
REMARK                            x       y       z     vdW  Elec       q    Type
REMARK                         _______ _______ _______ _____ _____    ______ ____
ROOT
ATOM      1  C   UNL     1      -0.755  11.907  18.656  0.00  0.00    +0.000 C 
ATOM      2  C   UNL     1      -2.204  11.483  18.618  0.00  0.00    +0.000 C 
ATOM      3  C   UNL     1      -3.171  12.131  19.321  0.00  0.00    +0.000 C 
ATOM      4  N   UNL     1      -2.825  13.238  20.184  0.00  0.00    +0.000 N 
ATOM      5  C   UNL     1      -1.450  13.640  20.326  0.00  0.00    +0.000 C 
ATOM      6  C   UNL     1      -0.463  13.053  19.611  0.00  0.00    +0.000 C 
ATOM      7  C   UNL     1       1.003  13.455  19.681  0.00  0.00    +0.000 C 
ATOM      8  C   UNL     1       1.261  14.763  20.408  0.00  0.00    +0.000 C 
ATOM      9  C   UNL     1       0.446  14.791  21.681  0.00  0.00    +0.000 C 
ATOM     10  C   UNL     1      -1.045  14.713  21.340  0.00  0.00    +0.000 C 
ENDROOT
BRANCH   1  14
ATOM     11  C   UNL     1       1.859   8.475  19.191  0.00  0.00    +0.000 A 
ATOM     12  C   UNL     1       1.744   9.114  17.955  0.00  0.00    +0.000 A 
ATOM     13  C   UNL     1       0.929  10.231  17.820  0.00  0.00    +0.000 A 
ATOM     14  C   UNL     1       0.197  10.730  18.915  0.00  0.00    +0.000 A 
ATOM     15  C   UNL     1       0.286  10.081  20.185  0.00  0.00    +0.000 A 
ATOM     16  C   UNL     1      -0.434  10.499  21.335  0.00  0.00    +0.000 A 
ATOM     17  C   UNL     1      -0.355   9.826  22.553  0.00  0.00    +0.000 A 
ATOM     18  C   UNL     1       0.455   8.713  22.665  0.00  0.00    +0.000 A 
ATOM     19  C   UNL     1       1.184   8.277  21.560  0.00  0.00    +0.000 A 
ATOM     20  C   UNL     1       1.121   8.935  20.310  0.00  0.00    +0.000 A 
BRANCH  11  22
ATOM     21  C   UNL     1       2.321   6.244  18.524  0.00  0.00    +0.000 C 
ATOM     22  O   UNL     1       2.630   7.347  19.370  0.00  0.00    +0.000 OA
ENDBRANCH  11  22
ENDBRANCH   1  14
BRANCH   4  23
ATOM     23  C   UNL     1      -3.886  13.944  20.884  0.00  0.00    +0.000 A 
ATOM     24  C   UNL     1      -4.596  15.004  20.282  0.00  0.00    +0.000 A 
ATOM     25  C   UNL     1      -5.567  15.733  20.978  0.00  0.00    +0.000 A 
ATOM     26  C   UNL     1      -5.930  15.334  22.262  0.00  0.00    +0.000 A 
ATOM     27  C   UNL     1      -5.272  14.278  22.883  0.00  0.00    +0.000 A 
ATOM     28  C   UNL     1      -4.226  13.634  22.215  0.00  0.00    +0.000 A 
BRANCH  26  29
ATOM     29  S   UNL     1      -7.224  16.188  23.111  0.00  0.00    +0.000 S 
ATOM     30  O   UNL     1      -7.915  17.051  22.186  0.00  0.00    +0.000 OA
ATOM     31  O   UNL     1      -7.908  15.260  23.977  0.00  0.00    +0.000 OA
BRANCH  29  32
ATOM     32  N   UNL     1      -6.335  17.203  24.110  0.00  0.00    +0.000 NA
ATOM     33  H   UNL     1      -5.840  17.902  23.555  0.00  0.00    +0.000 HD
ATOM     34  H   UNL     1      -6.930  17.589  24.841  0.00  0.00    +0.000 HD
ENDBRANCH  29  32
ENDBRANCH  26  29
ENDBRANCH   4  23
BRANCH   3  35
ATOM     35  N   UNL     1      -4.499  11.727  19.146  0.00  0.00    +0.000 N 
ATOM     36  H   UNL     1      -4.742  10.800  19.485  0.00  0.00    +0.000 HD
ATOM     37  H   UNL     1      -4.804  11.851  18.183  0.00  0.00    +0.000 HD
ENDBRANCH   3  35
BRANCH   2  38
ATOM     38  C   UNL     1      -2.524  10.409  17.725  0.00  0.00    +0.000 C 
ATOM     39  N   UNL     1      -2.832   9.552  17.005  0.00  0.00    +0.000 NA
ENDBRANCH   2  38
TORSDOF 7
ENDMDL
MODEL 9
REMARK VINA RESULT:      -5.7      4.408      8.558
REMARK  Name = 
REMARK  8 active torsions:
REMARK  status: ('A' for Active; 'I' for Inactive)
REMARK    1  A    between atoms: C_1  and  O_2
REMARK    2  A    between atoms: O_2  and  C_3
REMARK    3  A    between atoms: C_6  and  C_7
REMARK    4  A    between atoms: C_8  and  C_9
REMARK    5  A    between atoms: C_11  and  N_12
REMARK    6  A    between atoms: N_13  and  C_14
REMARK    7  A    between atoms: C_17  and  S_18
REMARK    8  A    between atoms: S_18  and  N_19
REMARK                            x       y       z     vdW  Elec       q    Type
REMARK                         _______ _______ _______ _____ _____    ______ ____
ROOT
ATOM      1  C   UNL     1       1.028  14.521  18.474  0.00  0.00    +0.000 C 
ATOM      2  C   UNL     1       0.729  13.163  19.062  0.00  0.00    +0.000 C 
ATOM      3  C   UNL     1      -0.348  12.937  19.862  0.00  0.00    +0.000 C 
ATOM      4  N   UNL     1      -1.228  14.027  20.223  0.00  0.00    +0.000 N 
ATOM      5  C   UNL     1      -0.950  15.361  19.760  0.00  0.00    +0.000 C 
ATOM      6  C   UNL     1       0.082  15.622  18.926  0.00  0.00    +0.000 C 
ATOM      7  C   UNL     1       0.407  16.999  18.367  0.00  0.00    +0.000 C 
ATOM      8  C   UNL     1      -0.680  18.036  18.583  0.00  0.00    +0.000 C 
ATOM      9  C   UNL     1      -1.183  17.939  20.006  0.00  0.00    +0.000 C 
ATOM     10  C   UNL     1      -1.784  16.551  20.245  0.00  0.00    +0.000 C 
ENDROOT
BRANCH   1  14
ATOM     11  C   UNL     1       5.231  15.540  18.923  0.00  0.00    +0.000 A 
ATOM     12  C   UNL     1       4.681  15.264  17.670  0.00  0.00    +0.000 A 
ATOM     13  C   UNL     1       3.326  14.977  17.550  0.00  0.00    +0.000 A 
ATOM     14  C   UNL     1       2.490  14.944  18.682  0.00  0.00    +0.000 A 
ATOM     15  C   UNL     1       3.035  15.206  19.977  0.00  0.00    +0.000 A 
ATOM     16  C   UNL     1       2.273  15.171  21.174  0.00  0.00    +0.000 A 
ATOM     17  C   UNL     1       2.838  15.396  22.428  0.00  0.00    +0.000 A 
ATOM     18  C   UNL     1       4.188  15.673  22.527  0.00  0.00    +0.000 A 
ATOM     19  C   UNL     1       4.967  15.725  21.373  0.00  0.00    +0.000 A 
ATOM     20  C   UNL     1       4.425  15.495  20.088  0.00  0.00    +0.000 A 
BRANCH  11  22
ATOM     21  C   UNL     1       7.466  14.989  18.345  0.00  0.00    +0.000 C 
ATOM     22  O   UNL     1       6.572  15.802  19.099  0.00  0.00    +0.000 OA
ENDBRANCH  11  22
ENDBRANCH   1  14
BRANCH   4  23
ATOM     23  C   UNL     1      -2.398  13.746  21.039  0.00  0.00    +0.000 A 
ATOM     24  C   UNL     1      -2.339  13.752  22.448  0.00  0.00    +0.000 A 
ATOM     25  C   UNL     1      -3.445  13.411  23.235  0.00  0.00    +0.000 A 
ATOM     26  C   UNL     1      -4.672  13.171  22.621  0.00  0.00    +0.000 A 
ATOM     27  C   UNL     1      -4.778  13.180  21.235  0.00  0.00    +0.000 A 
ATOM     28  C   UNL     1      -3.637  13.410  20.461  0.00  0.00    +0.000 A 
BRANCH  26  29
ATOM     29  S   UNL     1      -6.097  12.836  23.613  0.00  0.00    +0.000 S 
ATOM     30  O   UNL     1      -6.645  14.078  24.099  0.00  0.00    +0.000 OA
ATOM     31  O   UNL     1      -6.897  11.830  22.958  0.00  0.00    +0.000 OA
BRANCH  29  32
ATOM     32  N   UNL     1      -5.393  12.091  24.942  0.00  0.00    +0.000 NA
ATOM     33  H   UNL     1      -5.485  11.077  24.869  0.00  0.00    +0.000 HD
ATOM     34  H   UNL     1      -4.436  12.419  25.064  0.00  0.00    +0.000 HD
ENDBRANCH  29  32
ENDBRANCH  26  29
ENDBRANCH   4  23
BRANCH   3  35
ATOM     35  N   UNL     1      -0.599  11.625  20.279  0.00  0.00    +0.000 N 
ATOM     36  H   UNL     1      -1.252  11.509  21.049  0.00  0.00    +0.000 HD
ATOM     37  H   UNL     1       0.265  11.118  20.457  0.00  0.00    +0.000 HD
ENDBRANCH   3  35
BRANCH   2  38
ATOM     38  C   UNL     1       1.594  12.095  18.656  0.00  0.00    +0.000 C 
ATOM     39  N   UNL     1       2.253  11.203  18.314  0.00  0.00    +0.000 NA
ENDBRANCH   2  38
TORSDOF 7
ENDMDL
