MODEL 1
REMARK VINA RESULT:      -7.8      0.000      0.000
REMARK  Name = 
REMARK  7 active torsions:
REMARK  status: ('A' for Active; 'I' for Inactive)
REMARK    1  A    between atoms: C_1  and  O_2
REMARK    2  A    between atoms: O_2  and  C_3
REMARK    3  A    between atoms: C_8  and  C_9
REMARK    4  A    between atoms: N_11  and  C_12
REMARK    5  A    between atoms: C_12  and  N_14
REMARK    6  A    between atoms: N_14  and  C_15
REMARK    7  A    between atoms: C_18  and  N_19
REMARK                            x       y       z     vdW  Elec       q    Type
REMARK                         _______ _______ _______ _____ _____    ______ ____
ROOT
ATOM      1  N   UNL     1       1.209   9.320  20.609  0.00  0.00    +0.000 N 
ATOM      2  H   UNL     1       1.889  10.028  20.865  0.00  0.00    +0.000 HD
ENDROOT
BRANCH   1   3
ATOM      3  C   UNL     1       1.734   8.116  20.109  0.00  0.00    +0.000 A 
ATOM      4  C   UNL     1       1.449   6.940  20.787  0.00  0.00    +0.000 A 
ATOM      5  C   UNL     1       1.921   5.718  20.294  0.00  0.00    +0.000 A 
ATOM      6  C   UNL     1       2.656   5.622  19.094  0.00  0.00    +0.000 A 
ATOM      7  C   UNL     1       2.924   6.842  18.430  0.00  0.00    +0.000 A 
ATOM      8 CL   UNL     1       3.935   6.974  17.023  0.00  0.00    +0.000 Cl
ATOM      9  C   UNL     1       2.458   8.066  18.925  0.00  0.00    +0.000 A 
BRANCH   6  10
ATOM     10  N   UNL     1       3.086   4.382  18.646  0.00  0.00    +0.000 N 
ATOM     11  C   UNL     1       2.442   3.679  17.536  0.00  0.00    +0.000 C 
ATOM     12  C   UNL     1       2.199   2.234  17.969  0.00  0.00    +0.000 C 
ATOM     13  C   UNL     1       3.476   1.559  18.472  0.00  0.00    +0.000 C 
ATOM     14  C   UNL     1       4.197   2.413  19.521  0.00  0.00    +0.000 C 
ATOM     15  C   UNL     1       4.398   3.841  19.017  0.00  0.00    +0.000 C 
ENDBRANCH   6  10
ENDBRANCH   1   3
BRANCH   1  16
ATOM     16  C   UNL     1      -0.060   9.564  21.074  0.00  0.00    +0.000 C 
ATOM     17  S   UNL     1      -0.264   9.548  22.730  0.00  0.00    +0.000 S 
BRANCH  16  20
ATOM     18  C   UNL     1      -0.804  10.459  18.844  0.00  0.00    +0.000 C 
ATOM     19  O   UNL     1       0.284  10.884  18.458  0.00  0.00    +0.000 OA
ATOM     20  N   UNL     1      -0.995   9.889  20.094  0.00  0.00    +0.000 N 
ATOM     21  H   UNL     1      -1.939   9.564  20.269  0.00  0.00    +0.000 HD
BRANCH  18  27
ATOM     22  C   UNL     1      -3.085  11.476  18.155  0.00  0.00    +0.000 A 
ATOM     23  C   UNL     1      -4.073  11.585  17.161  0.00  0.00    +0.000 A 
ATOM     24  C   UNL     1      -4.026  10.798  16.006  0.00  0.00    +0.000 A 
ATOM     25  C   UNL     1      -2.980   9.914  15.818  0.00  0.00    +0.000 A 
ATOM     26  C   UNL     1      -1.963   9.838  16.770  0.00  0.00    +0.000 A 
ATOM     27  C   UNL     1      -1.977  10.629  17.935  0.00  0.00    +0.000 A 
BRANCH  22  29
ATOM     28  C   UNL     1      -4.461  12.451  19.808  0.00  0.00    +0.000 C 
ATOM     29  O   UNL     1      -3.139  12.203  19.324  0.00  0.00    +0.000 OA
ENDBRANCH  22  29
ENDBRANCH  18  27
ENDBRANCH  16  20
ENDBRANCH   1  16
TORSDOF 6
ENDMDL
MODEL 2
REMARK VINA RESULT:      -7.7      3.687      8.696
REMARK  Name = 
REMARK  7 active torsions:
REMARK  status: ('A' for Active; 'I' for Inactive)
REMARK    1  A    between atoms: C_1  and  O_2
REMARK    2  A    between atoms: O_2  and  C_3
REMARK    3  A    between atoms: C_8  and  C_9
REMARK    4  A    between atoms: N_11  and  C_12
REMARK    5  A    between atoms: C_12  and  N_14
REMARK    6  A    between atoms: N_14  and  C_15
REMARK    7  A    between atoms: C_18  and  N_19
REMARK                            x       y       z     vdW  Elec       q    Type
REMARK                         _______ _______ _______ _____ _____    ______ ____
ROOT
ATOM      1  N   UNL     1       2.221   5.971  20.944  0.00  0.00    +0.000 N 
ATOM      2  H   UNL     1       2.785   5.943  21.787  0.00  0.00    +0.000 HD
ENDROOT
BRANCH   1   3
ATOM      3  C   UNL     1       1.689   7.226  20.603  0.00  0.00    +0.000 A 
ATOM      4  C   UNL     1       0.848   7.856  21.508  0.00  0.00    +0.000 A 
ATOM      5  C   UNL     1       0.335   9.125  21.218  0.00  0.00    +0.000 A 
ATOM      6  C   UNL     1       0.668   9.823  20.039  0.00  0.00    +0.000 A 
ATOM      7  C   UNL     1       1.530   9.149  19.141  0.00  0.00    +0.000 A 
ATOM      8 CL   UNL     1       1.952   9.756  17.569  0.00  0.00    +0.000 Cl
ATOM      9  C   UNL     1       2.041   7.878  19.427  0.00  0.00    +0.000 A 
BRANCH   6  10
ATOM     10  N   UNL     1       0.140  11.085  19.811  0.00  0.00    +0.000 N 
ATOM     11  C   UNL     1      -1.239  11.292  19.369  0.00  0.00    +0.000 C 
ATOM     12  C   UNL     1      -1.216  12.275  18.197  0.00  0.00    +0.000 C 
ATOM     13  C   UNL     1      -0.474  13.567  18.540  0.00  0.00    +0.000 C 
ATOM     14  C   UNL     1       0.905  13.287  19.149  0.00  0.00    +0.000 C 
ATOM     15  C   UNL     1       0.799  12.296  20.308  0.00  0.00    +0.000 C 
ENDBRANCH   6  10
ENDBRANCH   1   3
BRANCH   1  16
ATOM     16  C   UNL     1       2.334   4.854  20.153  0.00  0.00    +0.000 C 
ATOM     17  S   UNL     1       1.121   3.717  20.290  0.00  0.00    +0.000 S 
BRANCH  16  20
ATOM     18  C   UNL     1       3.891   3.854  18.450  0.00  0.00    +0.000 C 
ATOM     19  O   UNL     1       3.470   2.698  18.490  0.00  0.00    +0.000 OA
ATOM     20  N   UNL     1       3.408   4.866  19.267  0.00  0.00    +0.000 N 
ATOM     21  H   UNL     1       3.835   5.772  19.112  0.00  0.00    +0.000 HD
BRANCH  18  27
ATOM     22  C   UNL     1       6.321   4.558  17.884  0.00  0.00    +0.000 A 
ATOM     23  C   UNL     1       7.297   4.718  16.886  0.00  0.00    +0.000 A 
ATOM     24  C   UNL     1       6.978   4.575  15.533  0.00  0.00    +0.000 A 
ATOM     25  C   UNL     1       5.688   4.244  15.162  0.00  0.00    +0.000 A 
ATOM     26  C   UNL     1       4.723   4.026  16.146  0.00  0.00    +0.000 A 
ATOM     27  C   UNL     1       5.019   4.149  17.517  0.00  0.00    +0.000 A 
BRANCH  22  29
ATOM     28  C   UNL     1       7.615   5.717  19.483  0.00  0.00    +0.000 C 
ATOM     29  O   UNL     1       6.601   4.745  19.220  0.00  0.00    +0.000 OA
ENDBRANCH  22  29
ENDBRANCH  18  27
ENDBRANCH  16  20
ENDBRANCH   1  16
TORSDOF 6
ENDMDL
MODEL 3
REMARK VINA RESULT:      -7.6      1.190      1.503
REMARK  Name = 
REMARK  7 active torsions:
REMARK  status: ('A' for Active; 'I' for Inactive)
REMARK    1  A    between atoms: C_1  and  O_2
REMARK    2  A    between atoms: O_2  and  C_3
REMARK    3  A    between atoms: C_8  and  C_9
REMARK    4  A    between atoms: N_11  and  C_12
REMARK    5  A    between atoms: C_12  and  N_14
REMARK    6  A    between atoms: N_14  and  C_15
REMARK    7  A    between atoms: C_18  and  N_19
REMARK                            x       y       z     vdW  Elec       q    Type
REMARK                         _______ _______ _______ _____ _____    ______ ____
ROOT
ATOM      1  N   UNL     1       1.351   9.158  20.375  0.00  0.00    +0.000 N 
ATOM      2  H   UNL     1       2.074   9.865  20.449  0.00  0.00    +0.000 HD
ENDROOT
BRANCH   1   3
ATOM      3  C   UNL     1       1.775   7.888  19.950  0.00  0.00    +0.000 A 
ATOM      4  C   UNL     1       2.385   7.776  18.710  0.00  0.00    +0.000 A 
ATOM      5  C   UNL     1       2.858   6.533  18.273  0.00  0.00    +0.000 A 
ATOM      6  C   UNL     1       2.772   5.371  19.068  0.00  0.00    +0.000 A 
ATOM      7  C   UNL     1       2.146   5.526  20.328  0.00  0.00    +0.000 A 
ATOM      8 CL   UNL     1       1.802   4.206  21.403  0.00  0.00    +0.000 Cl
ATOM      9  C   UNL     1       1.669   6.767  20.764  0.00  0.00    +0.000 A 
BRANCH   6  10
ATOM     10  N   UNL     1       3.270   4.169  18.590  0.00  0.00    +0.000 N 
ATOM     11  C   UNL     1       2.789   3.555  17.352  0.00  0.00    +0.000 C 
ATOM     12  C   UNL     1       2.503   2.080  17.637  0.00  0.00    +0.000 C 
ATOM     13  C   UNL     1       3.706   1.367  18.256  0.00  0.00    +0.000 C 
ATOM     14  C   UNL     1       4.270   2.138  19.455  0.00  0.00    +0.000 C 
ATOM     15  C   UNL     1       4.524   3.600  19.093  0.00  0.00    +0.000 C 
ENDBRANCH   6  10
ENDBRANCH   1   3
BRANCH   1  16
ATOM     16  C   UNL     1       0.167   9.498  20.983  0.00  0.00    +0.000 C 
ATOM     17  S   UNL     1       0.154   9.481  22.652  0.00  0.00    +0.000 S 
BRANCH  16  20
ATOM     18  C   UNL     1      -0.754  10.425  18.835  0.00  0.00    +0.000 C 
ATOM     19  O   UNL     1       0.315  10.718  18.302  0.00  0.00    +0.000 OA
ATOM     20  N   UNL     1      -0.845   9.905  20.118  0.00  0.00    +0.000 N 
ATOM     21  H   UNL     1      -1.788   9.692  20.421  0.00  0.00    +0.000 HD
BRANCH  18  27
ATOM     22  C   UNL     1      -3.128  11.426  18.551  0.00  0.00    +0.000 A 
ATOM     23  C   UNL     1      -4.203  11.677  17.681  0.00  0.00    +0.000 A 
ATOM     24  C   UNL     1      -4.226  11.145  16.388  0.00  0.00    +0.000 A 
ATOM     25  C   UNL     1      -3.164  10.382  15.940  0.00  0.00    +0.000 A 
ATOM     26  C   UNL     1      -2.065  10.173  16.773  0.00  0.00    +0.000 A 
ATOM     27  C   UNL     1      -2.009  10.707  18.075  0.00  0.00    +0.000 A 
BRANCH  22  29
ATOM     28  C   UNL     1      -2.794  13.284  19.969  0.00  0.00    +0.000 C 
ATOM     29  O   UNL     1      -3.109  11.895  19.846  0.00  0.00    +0.000 OA
ENDBRANCH  22  29
ENDBRANCH  18  27
ENDBRANCH  16  20
ENDBRANCH   1  16
TORSDOF 6
ENDMDL
MODEL 4
REMARK VINA RESULT:      -7.5      3.967      8.815
REMARK  Name = 
REMARK  7 active torsions:
REMARK  status: ('A' for Active; 'I' for Inactive)
REMARK    1  A    between atoms: C_1  and  O_2
REMARK    2  A    between atoms: O_2  and  C_3
REMARK    3  A    between atoms: C_8  and  C_9
REMARK    4  A    between atoms: N_11  and  C_12
REMARK    5  A    between atoms: C_12  and  N_14
REMARK    6  A    between atoms: N_14  and  C_15
REMARK    7  A    between atoms: C_18  and  N_19
REMARK                            x       y       z     vdW  Elec       q    Type
REMARK                         _______ _______ _______ _____ _____    ______ ____
ROOT
ATOM      1  N   UNL     1       2.512   5.916  20.441  0.00  0.00    +0.000 N 
ATOM      2  H   UNL     1       3.193   5.804  21.185  0.00  0.00    +0.000 HD
ENDROOT
BRANCH   1   3
ATOM      3  C   UNL     1       1.961   7.201  20.301  0.00  0.00    +0.000 A 
ATOM      4  C   UNL     1       2.110   7.855  19.088  0.00  0.00    +0.000 A 
ATOM      5  C   UNL     1       1.537   9.119  18.901  0.00  0.00    +0.000 A 
ATOM      6  C   UNL     1       0.769   9.754  19.898  0.00  0.00    +0.000 A 
ATOM      7  C   UNL     1       0.637   9.054  21.121  0.00  0.00    +0.000 A 
ATOM      8 CL   UNL     1      -0.137   9.711  22.531  0.00  0.00    +0.000 Cl
ATOM      9  C   UNL     1       1.213   7.793  21.312  0.00  0.00    +0.000 A 
BRANCH   6  10
ATOM     10  N   UNL     1       0.213  11.001  19.651  0.00  0.00    +0.000 N 
ATOM     11  C   UNL     1      -1.206  11.183  19.345  0.00  0.00    +0.000 C 
ATOM     12  C   UNL     1      -1.311  12.093  18.121  0.00  0.00    +0.000 C 
ATOM     13  C   UNL     1      -0.543  13.402  18.306  0.00  0.00    +0.000 C 
ATOM     14  C   UNL     1       0.893  13.158  18.782  0.00  0.00    +0.000 C 
ATOM     15  C   UNL     1       0.915  12.239  20.002  0.00  0.00    +0.000 C 
ENDBRANCH   6  10
ENDBRANCH   1   3
BRANCH   1  16
ATOM     16  C   UNL     1       2.486   4.879  19.541  0.00  0.00    +0.000 C 
ATOM     17  S   UNL     1       1.247   3.774  19.711  0.00  0.00    +0.000 S 
BRANCH  16  20
ATOM     18  C   UNL     1       4.671   4.289  18.446  0.00  0.00    +0.000 C 
ATOM     19  O   UNL     1       5.140   3.605  19.355  0.00  0.00    +0.000 OA
ATOM     20  N   UNL     1       3.451   4.943  18.540  0.00  0.00    +0.000 N 
ATOM     21  H   UNL     1       3.182   5.454  17.707  0.00  0.00    +0.000 HD
BRANCH  18  27
ATOM     22  C   UNL     1       6.762   5.089  17.139  0.00  0.00    +0.000 A 
ATOM     23  C   UNL     1       7.450   5.102  15.913  0.00  0.00    +0.000 A 
ATOM     24  C   UNL     1       6.863   4.596  14.750  0.00  0.00    +0.000 A 
ATOM     25  C   UNL     1       5.595   4.046  14.801  0.00  0.00    +0.000 A 
ATOM     26  C   UNL     1       4.925   3.975  16.023  0.00  0.00    +0.000 A 
ATOM     27  C   UNL     1       5.497   4.465  17.213  0.00  0.00    +0.000 A 
BRANCH  22  29
ATOM     28  C   UNL     1       7.783   6.966  18.142  0.00  0.00    +0.000 C 
ATOM     29  O   UNL     1       7.300   5.629  18.286  0.00  0.00    +0.000 OA
ENDBRANCH  22  29
ENDBRANCH  18  27
ENDBRANCH  16  20
ENDBRANCH   1  16
TORSDOF 6
ENDMDL
MODEL 5
REMARK VINA RESULT:      -7.4      3.947      8.820
REMARK  Name = 
REMARK  7 active torsions:
REMARK  status: ('A' for Active; 'I' for Inactive)
REMARK    1  A    between atoms: C_1  and  O_2
REMARK    2  A    between atoms: O_2  and  C_3
REMARK    3  A    between atoms: C_8  and  C_9
REMARK    4  A    between atoms: N_11  and  C_12
REMARK    5  A    between atoms: C_12  and  N_14
REMARK    6  A    between atoms: N_14  and  C_15
REMARK    7  A    between atoms: C_18  and  N_19
REMARK                            x       y       z     vdW  Elec       q    Type
REMARK                         _______ _______ _______ _____ _____    ______ ____
ROOT
ATOM      1  N   UNL     1       2.756   5.734  20.368  0.00  0.00    +0.000 N 
ATOM      2  H   UNL     1       3.381   5.687  21.166  0.00  0.00    +0.000 HD
ENDROOT
BRANCH   1   3
ATOM      3  C   UNL     1       2.227   7.002  20.077  0.00  0.00    +0.000 A 
ATOM      4  C   UNL     1       2.406   7.516  18.802  0.00  0.00    +0.000 A 
ATOM      5  C   UNL     1       1.855   8.758  18.465  0.00  0.00    +0.000 A 
ATOM      6  C   UNL     1       1.080   9.511  19.371  0.00  0.00    +0.000 A 
ATOM      7  C   UNL     1       0.917   8.953  20.662  0.00  0.00    +0.000 A 
ATOM      8 CL   UNL     1       0.129   9.772  21.975  0.00  0.00    +0.000 Cl
ATOM      9  C   UNL     1       1.471   7.713  21.002  0.00  0.00    +0.000 A 
BRANCH   6  10
ATOM     10  N   UNL     1       0.547  10.729  18.978  0.00  0.00    +0.000 N 
ATOM     11  C   UNL     1       1.376  11.914  18.752  0.00  0.00    +0.000 C 
ATOM     12  C   UNL     1       0.724  13.091  19.479  0.00  0.00    +0.000 C 
ATOM     13  C   UNL     1      -0.742  13.274  19.085  0.00  0.00    +0.000 C 
ATOM     14  C   UNL     1      -1.528  11.963  19.188  0.00  0.00    +0.000 C 
ATOM     15  C   UNL     1      -0.813  10.837  18.442  0.00  0.00    +0.000 C 
ENDBRANCH   6  10
ENDBRANCH   1   3
BRANCH   1  16
ATOM     16  C   UNL     1       2.785   4.621  19.563  0.00  0.00    +0.000 C 
ATOM     17  S   UNL     1       1.725   3.392  19.951  0.00  0.00    +0.000 S 
BRANCH  16  20
ATOM     18  C   UNL     1       5.003   4.477  18.387  0.00  0.00    +0.000 C 
ATOM     19  O   UNL     1       5.706   4.255  19.371  0.00  0.00    +0.000 OA
ATOM     20  N   UNL     1       3.638   4.710  18.466  0.00  0.00    +0.000 N 
ATOM     21  H   UNL     1       3.183   4.859  17.572  0.00  0.00    +0.000 HD
BRANCH  18  27
ATOM     22  C   UNL     1       6.966   5.083  16.806  0.00  0.00    +0.000 A 
ATOM     23  C   UNL     1       7.493   5.013  15.505  0.00  0.00    +0.000 A 
ATOM     24  C   UNL     1       6.730   4.525  14.441  0.00  0.00    +0.000 A 
ATOM     25  C   UNL     1       5.442   4.075  14.667  0.00  0.00    +0.000 A 
ATOM     26  C   UNL     1       4.927   4.085  15.963  0.00  0.00    +0.000 A 
ATOM     27  C   UNL     1       5.678   4.559  17.057  0.00  0.00    +0.000 A 
BRANCH  22  29
ATOM     28  C   UNL     1       7.674   7.036  17.927  0.00  0.00    +0.000 C 
ATOM     29  O   UNL     1       7.680   5.608  17.860  0.00  0.00    +0.000 OA
ENDBRANCH  22  29
ENDBRANCH  18  27
ENDBRANCH  16  20
ENDBRANCH   1  16
TORSDOF 6
ENDMDL
MODEL 6
REMARK VINA RESULT:      -7.2      3.616      8.483
REMARK  Name = 
REMARK  7 active torsions:
REMARK  status: ('A' for Active; 'I' for Inactive)
REMARK    1  A    between atoms: C_1  and  O_2
REMARK    2  A    between atoms: O_2  and  C_3
REMARK    3  A    between atoms: C_8  and  C_9
REMARK    4  A    between atoms: N_11  and  C_12
REMARK    5  A    between atoms: C_12  and  N_14
REMARK    6  A    between atoms: N_14  and  C_15
REMARK    7  A    between atoms: C_18  and  N_19
REMARK                            x       y       z     vdW  Elec       q    Type
REMARK                         _______ _______ _______ _____ _____    ______ ____
ROOT
ATOM      1  N   UNL     1       2.364   5.983  20.560  0.00  0.00    +0.000 N 
ATOM      2  H   UNL     1       3.099   5.924  21.257  0.00  0.00    +0.000 HD
ENDROOT
BRANCH   1   3
ATOM      3  C   UNL     1       1.795   7.254  20.374  0.00  0.00    +0.000 A 
ATOM      4  C   UNL     1       0.980   7.766  21.372  0.00  0.00    +0.000 A 
ATOM      5  C   UNL     1       0.431   9.046  21.237  0.00  0.00    +0.000 A 
ATOM      6  C   UNL     1       0.702   9.871  20.126  0.00  0.00    +0.000 A 
ATOM      7  C   UNL     1       1.540   9.315  19.130  0.00  0.00    +0.000 A 
ATOM      8 CL   UNL     1       1.885  10.092  17.615  0.00  0.00    +0.000 Cl
ATOM      9  C   UNL     1       2.086   8.033  19.260  0.00  0.00    +0.000 A 
BRANCH   6  10
ATOM     10  N   UNL     1       0.141  11.137  20.053  0.00  0.00    +0.000 N 
ATOM     11  C   UNL     1      -1.228  11.366  19.589  0.00  0.00    +0.000 C 
ATOM     12  C   UNL     1      -1.196  12.501  18.565  0.00  0.00    +0.000 C 
ATOM     13  C   UNL     1      -0.509  13.753  19.111  0.00  0.00    +0.000 C 
ATOM     14  C   UNL     1       0.856  13.430  19.730  0.00  0.00    +0.000 C 
ATOM     15  C   UNL     1       0.742  12.286  20.737  0.00  0.00    +0.000 C 
ENDBRANCH   6  10
ENDBRANCH   1   3
BRANCH   1  16
ATOM     16  C   UNL     1       2.279   4.886  19.738  0.00  0.00    +0.000 C 
ATOM     17  S   UNL     1       1.083   3.778  20.094  0.00  0.00    +0.000 S 
BRANCH  16  20
ATOM     18  C   UNL     1       4.520   5.108  18.619  0.00  0.00    +0.000 C 
ATOM     19  O   UNL     1       5.171   5.452  19.604  0.00  0.00    +0.000 OA
ATOM     20  N   UNL     1       3.150   4.894  18.652  0.00  0.00    +0.000 N 
ATOM     21  H   UNL     1       2.748   4.595  17.770  0.00  0.00    +0.000 HD
BRANCH  18  27
ATOM     22  C   UNL     1       6.103   5.941  16.743  0.00  0.00    +0.000 A 
ATOM     23  C   UNL     1       6.776   5.634  15.549  0.00  0.00    +0.000 A 
ATOM     24  C   UNL     1       6.538   4.434  14.873  0.00  0.00    +0.000 A 
ATOM     25  C   UNL     1       5.646   3.515  15.396  0.00  0.00    +0.000 A 
ATOM     26  C   UNL     1       5.013   3.784  16.610  0.00  0.00    +0.000 A 
ATOM     27  C   UNL     1       5.245   4.978  17.319  0.00  0.00    +0.000 A 
BRANCH  22  29
ATOM     28  C   UNL     1       7.645   7.455  17.694  0.00  0.00    +0.000 C 
ATOM     29  O   UNL     1       6.283   7.140  17.398  0.00  0.00    +0.000 OA
ENDBRANCH  22  29
ENDBRANCH  18  27
ENDBRANCH  16  20
ENDBRANCH   1  16
TORSDOF 6
ENDMDL
MODEL 7
REMARK VINA RESULT:      -7.2      1.449      2.330
REMARK  Name = 
REMARK  7 active torsions:
REMARK  status: ('A' for Active; 'I' for Inactive)
REMARK    1  A    between atoms: C_1  and  O_2
REMARK    2  A    between atoms: O_2  and  C_3
REMARK    3  A    between atoms: C_8  and  C_9
REMARK    4  A    between atoms: N_11  and  C_12
REMARK    5  A    between atoms: C_12  and  N_14
REMARK    6  A    between atoms: N_14  and  C_15
REMARK    7  A    between atoms: C_18  and  N_19
REMARK                            x       y       z     vdW  Elec       q    Type
REMARK                         _______ _______ _______ _____ _____    ______ ____
ROOT
ATOM      1  N   UNL     1       1.247   9.581  19.400  0.00  0.00    +0.000 N 
ATOM      2  H   UNL     1       1.814  10.321  19.000  0.00  0.00    +0.000 HD
ENDROOT
BRANCH   1   3
ATOM      3  C   UNL     1       1.702   8.270  19.179  0.00  0.00    +0.000 A 
ATOM      4  C   UNL     1       2.263   7.964  17.949  0.00  0.00    +0.000 A 
ATOM      5  C   UNL     1       2.764   6.679  17.710  0.00  0.00    +0.000 A 
ATOM      6  C   UNL     1       2.757   5.671  18.696  0.00  0.00    +0.000 A 
ATOM      7  C   UNL     1       2.179   6.022  19.940  0.00  0.00    +0.000 A 
ATOM      8 CL   UNL     1       1.931   4.898  21.241  0.00  0.00    +0.000 Cl
ATOM      9  C   UNL     1       1.673   7.305  20.178  0.00  0.00    +0.000 A 
BRANCH   6  10
ATOM     10  N   UNL     1       3.281   4.420  18.408  0.00  0.00    +0.000 N 
ATOM     11  C   UNL     1       2.835   3.625  17.263  0.00  0.00    +0.000 C 
ATOM     12  C   UNL     1       2.561   2.203  17.754  0.00  0.00    +0.000 C 
ATOM     13  C   UNL     1       3.758   1.606  18.494  0.00  0.00    +0.000 C 
ATOM     14  C   UNL     1       4.286   2.551  19.580  0.00  0.00    +0.000 C 
ATOM     15  C   UNL     1       4.530   3.950  19.014  0.00  0.00    +0.000 C 
ENDBRANCH   6  10
ENDBRANCH   1   3
BRANCH   1  16
ATOM     16  C   UNL     1       0.323  10.015  20.319  0.00  0.00    +0.000 C 
ATOM     17  S   UNL     1       0.846  10.146  21.898  0.00  0.00    +0.000 S 
BRANCH  16  20
ATOM     18  C   UNL     1      -1.212  11.341  18.833  0.00  0.00    +0.000 C 
ATOM     19  O   UNL     1      -0.380  12.128  18.383  0.00  0.00    +0.000 OA
ATOM     20  N   UNL     1      -0.911  10.381  19.787  0.00  0.00    +0.000 N 
ATOM     21  H   UNL     1      -1.691   9.789  20.051  0.00  0.00    +0.000 HD
BRANCH  18  27
ATOM     22  C   UNL     1      -3.120  11.122  17.092  0.00  0.00    +0.000 A 
ATOM     23  C   UNL     1      -4.496  11.243  16.833  0.00  0.00    +0.000 A 
ATOM     24  C   UNL     1      -5.363  11.802  17.776  0.00  0.00    +0.000 A 
ATOM     25  C   UNL     1      -4.872  12.222  18.998  0.00  0.00    +0.000 A 
ATOM     26  C   UNL     1      -3.518  12.055  19.290  0.00  0.00    +0.000 A 
ATOM     27  C   UNL     1      -2.624  11.483  18.365  0.00  0.00    +0.000 A 
BRANCH  22  29
ATOM     28  C   UNL     1      -2.852  10.162  14.952  0.00  0.00    +0.000 C 
ATOM     29  O   UNL     1      -2.239  10.623  16.158  0.00  0.00    +0.000 OA
ENDBRANCH  22  29
ENDBRANCH  18  27
ENDBRANCH  16  20
ENDBRANCH   1  16
TORSDOF 6
ENDMDL
MODEL 8
REMARK VINA RESULT:      -7.2      1.453      1.755
REMARK  Name = 
REMARK  7 active torsions:
REMARK  status: ('A' for Active; 'I' for Inactive)
REMARK    1  A    between atoms: C_1  and  O_2
REMARK    2  A    between atoms: O_2  and  C_3
REMARK    3  A    between atoms: C_8  and  C_9
REMARK    4  A    between atoms: N_11  and  C_12
REMARK    5  A    between atoms: C_12  and  N_14
REMARK    6  A    between atoms: N_14  and  C_15
REMARK    7  A    between atoms: C_18  and  N_19
REMARK                            x       y       z     vdW  Elec       q    Type
REMARK                         _______ _______ _______ _____ _____    ______ ____
ROOT
ATOM      1  N   UNL     1       1.040   9.991  20.555  0.00  0.00    +0.000 N 
ATOM      2  H   UNL     1       1.766  10.535  21.010  0.00  0.00    +0.000 HD
ENDROOT
BRANCH   1   3
ATOM      3  C   UNL     1       1.453   8.784  19.968  0.00  0.00    +0.000 A 
ATOM      4  C   UNL     1       1.778   8.781  18.621  0.00  0.00    +0.000 A 
ATOM      5  C   UNL     1       2.234   7.605  18.014  0.00  0.00    +0.000 A 
ATOM      6  C   UNL     1       2.415   6.406  18.733  0.00  0.00    +0.000 A 
ATOM      7  C   UNL     1       2.075   6.448  20.107  0.00  0.00    +0.000 A 
ATOM      8 CL   UNL     1       2.079   5.056  21.145  0.00  0.00    +0.000 Cl
ATOM      9  C   UNL     1       1.615   7.622  20.714  0.00  0.00    +0.000 A 
BRANCH   6  10
ATOM     10  N   UNL     1       2.883   5.275  18.082  0.00  0.00    +0.000 N 
ATOM     11  C   UNL     1       1.988   4.276  17.497  0.00  0.00    +0.000 C 
ATOM     12  C   UNL     1       2.464   2.894  17.946  0.00  0.00    +0.000 C 
ATOM     13  C   UNL     1       3.942   2.662  17.631  0.00  0.00    +0.000 C 
ATOM     14  C   UNL     1       4.819   3.817  18.127  0.00  0.00    +0.000 C 
ATOM     15  C   UNL     1       4.277   5.161  17.642  0.00  0.00    +0.000 C 
ENDBRANCH   6  10
ENDBRANCH   1   3
BRANCH   1  16
ATOM     16  C   UNL     1      -0.238  10.394  20.859  0.00  0.00    +0.000 C 
ATOM     17  S   UNL     1      -0.501  10.929  22.418  0.00  0.00    +0.000 S 
BRANCH  16  20
ATOM     18  C   UNL     1      -1.702  11.455  19.112  0.00  0.00    +0.000 C 
ATOM     19  O   UNL     1      -1.576  12.625  19.469  0.00  0.00    +0.000 OA
ATOM     20  N   UNL     1      -1.128  10.389  19.788  0.00  0.00    +0.000 N 
ATOM     21  H   UNL     1      -1.300   9.482  19.369  0.00  0.00    +0.000 HD
BRANCH  18  27
ATOM     22  C   UNL     1      -3.911  11.594  17.762  0.00  0.00    +0.000 A 
ATOM     23  C   UNL     1      -4.567  11.325  16.549  0.00  0.00    +0.000 A 
ATOM     24  C   UNL     1      -3.950  10.575  15.544  0.00  0.00    +0.000 A 
ATOM     25  C   UNL     1      -2.662  10.108  15.726  0.00  0.00    +0.000 A 
ATOM     26  C   UNL     1      -1.978  10.416  16.903  0.00  0.00    +0.000 A 
ATOM     27  C   UNL     1      -2.570  11.181  17.927  0.00  0.00    +0.000 A 
BRANCH  22  29
ATOM     28  C   UNL     1      -5.657  11.631  19.351  0.00  0.00    +0.000 C 
ATOM     29  O   UNL     1      -4.519  12.285  18.787  0.00  0.00    +0.000 OA
ENDBRANCH  22  29
ENDBRANCH  18  27
ENDBRANCH  16  20
ENDBRANCH   1  16
TORSDOF 6
ENDMDL
MODEL 9
REMARK VINA RESULT:      -7.0      3.726      8.868
REMARK  Name = 
REMARK  7 active torsions:
REMARK  status: ('A' for Active; 'I' for Inactive)
REMARK    1  A    between atoms: C_1  and  O_2
REMARK    2  A    between atoms: O_2  and  C_3
REMARK    3  A    between atoms: C_8  and  C_9
REMARK    4  A    between atoms: N_11  and  C_12
REMARK    5  A    between atoms: C_12  and  N_14
REMARK    6  A    between atoms: N_14  and  C_15
REMARK    7  A    between atoms: C_18  and  N_19
REMARK                            x       y       z     vdW  Elec       q    Type
REMARK                         _______ _______ _______ _____ _____    ______ ____
ROOT
ATOM      1  N   UNL     1       2.637   6.848  20.347  0.00  0.00    +0.000 N 
ATOM      2  H   UNL     1       3.526   6.996  20.812  0.00  0.00    +0.000 HD
ENDROOT
BRANCH   1   3
ATOM      3  C   UNL     1       1.775   7.957  20.304  0.00  0.00    +0.000 A 
ATOM      4  C   UNL     1       1.687   8.681  19.125  0.00  0.00    +0.000 A 
ATOM      5  C   UNL     1       0.806   9.765  19.035  0.00  0.00    +0.000 A 
ATOM      6  C   UNL     1      -0.039  10.141  20.099  0.00  0.00    +0.000 A 
ATOM      7  C   UNL     1       0.078   9.378  21.285  0.00  0.00    +0.000 A 
ATOM      8 CL   UNL     1      -0.755   9.755  22.762  0.00  0.00    +0.000 Cl
ATOM      9  C   UNL     1       0.961   8.296  21.379  0.00  0.00    +0.000 A 
BRANCH   6  10
ATOM     10  N   UNL     1      -0.902  11.216  19.948  0.00  0.00    +0.000 N 
ATOM     11  C   UNL     1      -0.893  12.366  20.853  0.00  0.00    +0.000 C 
ATOM     12  C   UNL     1      -2.337  12.654  21.264  0.00  0.00    +0.000 C 
ATOM     13  C   UNL     1      -3.259  12.823  20.056  0.00  0.00    +0.000 C 
ATOM     14  C   UNL     1      -3.111  11.668  19.060  0.00  0.00    +0.000 C 
ATOM     15  C   UNL     1      -1.643  11.439  18.703  0.00  0.00    +0.000 C 
ENDBRANCH   6  10
ENDBRANCH   1   3
BRANCH   1  16
ATOM     16  C   UNL     1       2.576   5.697  19.600  0.00  0.00    +0.000 C 
ATOM     17  S   UNL     1       1.347   4.631  19.971  0.00  0.00    +0.000 S 
BRANCH  16  20
ATOM     18  C   UNL     1       4.519   4.700  18.352  0.00  0.00    +0.000 C 
ATOM     19  O   UNL     1       4.829   3.840  19.176  0.00  0.00    +0.000 OA
ATOM     20  N   UNL     1       3.501   5.619  18.561  0.00  0.00    +0.000 N 
ATOM     21  H   UNL     1       3.343   6.256  17.789  0.00  0.00    +0.000 HD
BRANCH  18  27
ATOM     22  C   UNL     1       6.205   5.834  16.743  0.00  0.00    +0.000 A 
ATOM     23  C   UNL     1       6.960   5.727  15.563  0.00  0.00    +0.000 A 
ATOM     24  C   UNL     1       6.786   4.649  14.690  0.00  0.00    +0.000 A 
ATOM     25  C   UNL     1       5.878   3.653  14.998  0.00  0.00    +0.000 A 
ATOM     26  C   UNL     1       5.164   3.719  16.195  0.00  0.00    +0.000 A 
ATOM     27  C   UNL     1       5.329   4.786  17.100  0.00  0.00    +0.000 A 
BRANCH  22  29
ATOM     28  C   UNL     1       7.606   7.542  17.578  0.00  0.00    +0.000 C 
ATOM     29  O   UNL     1       6.322   6.913  17.592  0.00  0.00    +0.000 OA
ENDBRANCH  22  29
ENDBRANCH  18  27
ENDBRANCH  16  20
ENDBRANCH   1  16
TORSDOF 6
ENDMDL
