MODEL 1
REMARK VINA RESULT:      -9.2      0.000      0.000
REMARK  Name = 
REMARK  3 active torsions:
REMARK  status: ('A' for Active; 'I' for Inactive)
REMARK    1  A    between atoms: C_1  and  N_2
REMARK    2  A    between atoms: C_11  and  C_12
REMARK    3  A    between atoms: C_13  and  C_14
REMARK                            x       y       z     vdW  Elec       q    Type
REMARK                         _______ _______ _______ _____ _____    ______ ____
ROOT
ATOM      1  C   UNL     1       1.251   2.938  20.402  0.00  0.00    +0.000 C 
ATOM      2  N   UNL     1       1.881   3.799  19.402  0.00  0.00    +0.000 NA
ATOM      3  C   UNL     1       2.704   2.989  18.473  0.00  0.00    +0.000 C 
ATOM      4  C   UNL     1       3.493   3.844  17.453  0.00  0.00    +0.000 C 
ATOM      5  N   UNL     1       4.307   4.823  18.179  0.00  0.00    +0.000 N 
ATOM      6  C   UNL     1       5.359   5.416  17.505  0.00  0.00    +0.000 A 
ATOM      7  N   UNL     1       5.676   4.979  16.289  0.00  0.00    +0.000 NA
ATOM      8  C   UNL     1       6.736   5.531  15.720  0.00  0.00    +0.000 A 
ATOM      9  N   UNL     1       7.062   5.110  14.446  0.00  0.00    +0.000 N 
ATOM     10  N   UNL     1       7.526   6.422  16.286  0.00  0.00    +0.000 NA
ATOM     11  C   UNL     1       7.139   6.795  17.501  0.00  0.00    +0.000 A 
ATOM     12  N   UNL     1       6.069   6.343  18.142  0.00  0.00    +0.000 NA
ATOM     13  C   UNL     1       3.527   5.690  19.068  0.00  0.00    +0.000 C 
ATOM     14  C   UNL     1       2.733   4.815  20.065  0.00  0.00    +0.000 C 
ATOM     15  H   UNL     1       6.682   4.190  14.273  0.00  0.00    +0.000 HD
ATOM     16  H   UNL     1       8.047   5.249  14.267  0.00  0.00    +0.000 HD
ENDROOT
BRANCH  11  17
ATOM     17  C   UNL     1       7.986   7.796  18.156  0.00  0.00    +0.000 C 
ATOM     18  C   UNL     1       8.089   9.088  17.800  0.00  0.00    +0.000 C 
BRANCH  18  19
ATOM     19  C   UNL     1       8.983  10.052  18.464  0.00  0.00    +0.000 A 
ATOM     20  C   UNL     1       9.062  10.157  19.863  0.00  0.00    +0.000 A 
ATOM     21  C   UNL     1       9.940  11.061  20.470  0.00  0.00    +0.000 A 
ATOM     22  C   UNL     1      10.764  11.859  19.684  0.00  0.00    +0.000 A 
ATOM     23  C   UNL     1      10.705  11.743  18.301  0.00  0.00    +0.000 A 
ATOM     24  F   UNL     1      11.507  12.504  17.544  0.00  0.00    +0.000 F 
ATOM     25  C   UNL     1       9.831  10.849  17.686  0.00  0.00    +0.000 A 
ENDBRANCH  18  19
ENDBRANCH  11  17
TORSDOF 2
ENDMDL
MODEL 2
REMARK VINA RESULT:      -9.0      1.064      1.458
REMARK  Name = 
REMARK  3 active torsions:
REMARK  status: ('A' for Active; 'I' for Inactive)
REMARK    1  A    between atoms: C_1  and  N_2
REMARK    2  A    between atoms: C_11  and  C_12
REMARK    3  A    between atoms: C_13  and  C_14
REMARK                            x       y       z     vdW  Elec       q    Type
REMARK                         _______ _______ _______ _____ _____    ______ ____
ROOT
ATOM      1  C   UNL     1       1.573   2.602  20.265  0.00  0.00    +0.000 C 
ATOM      2  N   UNL     1       2.174   3.513  19.292  0.00  0.00    +0.000 NA
ATOM      3  C   UNL     1       3.050   2.764  18.361  0.00  0.00    +0.000 C 
ATOM      4  C   UNL     1       3.811   3.678  17.371  0.00  0.00    +0.000 C 
ATOM      5  N   UNL     1       4.565   4.680  18.129  0.00  0.00    +0.000 N 
ATOM      6  C   UNL     1       5.596   5.338  17.484  0.00  0.00    +0.000 A 
ATOM      7  N   UNL     1       5.953   4.944  16.264  0.00  0.00    +0.000 NA
ATOM      8  C   UNL     1       6.992   5.558  15.724  0.00  0.00    +0.000 A 
ATOM      9  N   UNL     1       7.358   5.181  14.447  0.00  0.00    +0.000 N 
ATOM     10  N   UNL     1       7.729   6.475  16.320  0.00  0.00    +0.000 NA
ATOM     11  C   UNL     1       7.306   6.803  17.536  0.00  0.00    +0.000 A 
ATOM     12  N   UNL     1       6.250   6.286  18.151  0.00  0.00    +0.000 NA
ATOM     13  C   UNL     1       3.730   5.489  19.023  0.00  0.00    +0.000 C 
ATOM     14  C   UNL     1       2.965   4.556  19.990  0.00  0.00    +0.000 C 
ATOM     15  H   UNL     1       7.026   4.247  14.249  0.00  0.00    +0.000 HD
ATOM     16  H   UNL     1       8.337   5.372  14.286  0.00  0.00    +0.000 HD
ENDROOT
BRANCH  11  17
ATOM     17  C   UNL     1       8.092   7.830  18.224  0.00  0.00    +0.000 C 
ATOM     18  C   UNL     1       8.254   9.100  17.812  0.00  0.00    +0.000 C 
BRANCH  18  19
ATOM     19  C   UNL     1       9.085  10.090  18.517  0.00  0.00    +0.000 A 
ATOM     20  C   UNL     1      10.016  10.899  17.844  0.00  0.00    +0.000 A 
ATOM     21  C   UNL     1      10.774  11.853  18.532  0.00  0.00    +0.000 A 
ATOM     22  C   UNL     1      10.597  12.021  19.901  0.00  0.00    +0.000 A 
ATOM     23  C   UNL     1       9.661  11.238  20.566  0.00  0.00    +0.000 A 
ATOM     24  F   UNL     1       9.482  11.409  21.884  0.00  0.00    +0.000 F 
ATOM     25  C   UNL     1       8.905  10.283  19.892  0.00  0.00    +0.000 A 
ENDBRANCH  18  19
ENDBRANCH  11  17
TORSDOF 2
ENDMDL
MODEL 3
REMARK VINA RESULT:      -8.1      5.095      6.777
REMARK  Name = 
REMARK  3 active torsions:
REMARK  status: ('A' for Active; 'I' for Inactive)
REMARK    1  A    between atoms: C_1  and  N_2
REMARK    2  A    between atoms: C_11  and  C_12
REMARK    3  A    between atoms: C_13  and  C_14
REMARK                            x       y       z     vdW  Elec       q    Type
REMARK                         _______ _______ _______ _____ _____    ______ ____
ROOT
ATOM      1  C   UNL     1       0.674  10.978  21.216  0.00  0.00    +0.000 C 
ATOM      2  N   UNL     1       0.704   9.636  20.635  0.00  0.00    +0.000 NA
ATOM      3  C   UNL     1       1.368   8.690  21.564  0.00  0.00    +0.000 C 
ATOM      4  C   UNL     1       1.538   7.272  20.971  0.00  0.00    +0.000 C 
ATOM      5  N   UNL     1       2.257   7.369  19.698  0.00  0.00    +0.000 N 
ATOM      6  C   UNL     1       2.846   6.223  19.198  0.00  0.00    +0.000 A 
ATOM      7  N   UNL     1       2.859   5.123  19.947  0.00  0.00    +0.000 NA
ATOM      8  C   UNL     1       3.500   4.076  19.451  0.00  0.00    +0.000 A 
ATOM      9  N   UNL     1       3.499   2.918  20.202  0.00  0.00    +0.000 N 
ATOM     10  N   UNL     1       4.169   4.062  18.314  0.00  0.00    +0.000 NA
ATOM     11  C   UNL     1       4.108   5.203  17.636  0.00  0.00    +0.000 A 
ATOM     12  N   UNL     1       3.456   6.293  18.017  0.00  0.00    +0.000 NA
ATOM     13  C   UNL     1       1.606   8.249  18.722  0.00  0.00    +0.000 C 
ATOM     14  C   UNL     1       1.428   9.655  19.342  0.00  0.00    +0.000 C 
ATOM     15  H   UNL     1       3.336   3.133  21.176  0.00  0.00    +0.000 HD
ATOM     16  H   UNL     1       4.303   2.348  19.978  0.00  0.00    +0.000 HD
ENDROOT
BRANCH  11  17
ATOM     17  C   UNL     1       4.829   5.220  16.360  0.00  0.00    +0.000 C 
ATOM     18  C   UNL     1       5.212   4.136  15.662  0.00  0.00    +0.000 C 
BRANCH  18  19
ATOM     19  C   UNL     1       5.968   4.199  14.401  0.00  0.00    +0.000 A 
ATOM     20  C   UNL     1       5.577   3.485  13.257  0.00  0.00    +0.000 A 
ATOM     21  C   UNL     1       6.297   3.584  12.061  0.00  0.00    +0.000 A 
ATOM     22  C   UNL     1       7.410   4.415  11.991  0.00  0.00    +0.000 A 
ATOM     23  C   UNL     1       7.788   5.141  13.114  0.00  0.00    +0.000 A 
ATOM     24  F   UNL     1       8.853   5.951  13.043  0.00  0.00    +0.000 F 
ATOM     25  C   UNL     1       7.080   5.046  14.310  0.00  0.00    +0.000 A 
ENDBRANCH  18  19
ENDBRANCH  11  17
TORSDOF 2
ENDMDL
MODEL 4
REMARK VINA RESULT:      -8.0      5.105      7.857
REMARK  Name = 
REMARK  3 active torsions:
REMARK  status: ('A' for Active; 'I' for Inactive)
REMARK    1  A    between atoms: C_1  and  N_2
REMARK    2  A    between atoms: C_11  and  C_12
REMARK    3  A    between atoms: C_13  and  C_14
REMARK                            x       y       z     vdW  Elec       q    Type
REMARK                         _______ _______ _______ _____ _____    ______ ____
ROOT
ATOM      1  C   UNL     1       6.758   4.621  14.414  0.00  0.00    +0.000 C 
ATOM      2  N   UNL     1       6.392   4.731  15.826  0.00  0.00    +0.000 NA
ATOM      3  C   UNL     1       5.393   3.695  16.179  0.00  0.00    +0.000 C 
ATOM      4  C   UNL     1       4.873   3.819  17.631  0.00  0.00    +0.000 C 
ATOM      5  N   UNL     1       4.340   5.169  17.833  0.00  0.00    +0.000 N 
ATOM      6  C   UNL     1       3.492   5.376  18.905  0.00  0.00    +0.000 A 
ATOM      7  N   UNL     1       3.084   4.329  19.619  0.00  0.00    +0.000 NA
ATOM      8  C   UNL     1       2.216   4.575  20.587  0.00  0.00    +0.000 A 
ATOM      9  N   UNL     1       1.804   3.504  21.356  0.00  0.00    +0.000 N 
ATOM     10  N   UNL     1       1.685   5.752  20.853  0.00  0.00    +0.000 NA
ATOM     11  C   UNL     1       2.143   6.737  20.088  0.00  0.00    +0.000 A 
ATOM     12  N   UNL     1       3.047   6.610  19.125  0.00  0.00    +0.000 NA
ATOM     13  C   UNL     1       5.312   6.231  17.553  0.00  0.00    +0.000 C 
ATOM     14  C   UNL     1       5.833   6.076  16.105  0.00  0.00    +0.000 C 
ATOM     15  H   UNL     1       1.928   2.640  20.847  0.00  0.00    +0.000 HD
ATOM     16  H   UNL     1       0.894   3.683  21.757  0.00  0.00    +0.000 HD
ENDROOT
BRANCH  11  17
ATOM     17  C   UNL     1       1.586   8.065  20.364  0.00  0.00    +0.000 C 
ATOM     18  C   UNL     1       0.999   8.444  21.512  0.00  0.00    +0.000 C 
BRANCH  18  19
ATOM     19  C   UNL     1       0.418   9.779  21.733  0.00  0.00    +0.000 A 
ATOM     20  C   UNL     1       0.847  10.909  21.017  0.00  0.00    +0.000 A 
ATOM     21  C   UNL     1       0.259  12.162  21.224  0.00  0.00    +0.000 A 
ATOM     22  C   UNL     1      -0.778  12.295  22.140  0.00  0.00    +0.000 A 
ATOM     23  C   UNL     1      -1.221  11.176  22.834  0.00  0.00    +0.000 A 
ATOM     24  F   UNL     1      -2.230  11.303  23.708  0.00  0.00    +0.000 F 
ATOM     25  C   UNL     1      -0.640   9.925  22.638  0.00  0.00    +0.000 A 
ENDBRANCH  18  19
ENDBRANCH  11  17
TORSDOF 2
ENDMDL
MODEL 5
REMARK VINA RESULT:      -7.9      4.553      7.552
REMARK  Name = 
REMARK  3 active torsions:
REMARK  status: ('A' for Active; 'I' for Inactive)
REMARK    1  A    between atoms: C_1  and  N_2
REMARK    2  A    between atoms: C_11  and  C_12
REMARK    3  A    between atoms: C_13  and  C_14
REMARK                            x       y       z     vdW  Elec       q    Type
REMARK                         _______ _______ _______ _____ _____    ______ ____
ROOT
ATOM      1  C   UNL     1       6.940   4.770  14.188  0.00  0.00    +0.000 C 
ATOM      2  N   UNL     1       6.575   4.811  15.603  0.00  0.00    +0.000 NA
ATOM      3  C   UNL     1       5.608   3.732  15.914  0.00  0.00    +0.000 C 
ATOM      4  C   UNL     1       5.089   3.780  17.371  0.00  0.00    +0.000 C 
ATOM      5  N   UNL     1       4.518   5.104  17.631  0.00  0.00    +0.000 N 
ATOM      6  C   UNL     1       3.668   5.242  18.713  0.00  0.00    +0.000 A 
ATOM      7  N   UNL     1       3.293   4.155  19.383  0.00  0.00    +0.000 NA
ATOM      8  C   UNL     1       2.421   4.334  20.362  0.00  0.00    +0.000 A 
ATOM      9  N   UNL     1       2.042   3.221  21.085  0.00  0.00    +0.000 N 
ATOM     10  N   UNL     1       1.858   5.484  20.678  0.00  0.00    +0.000 NA
ATOM     11  C   UNL     1       2.285   6.513  19.955  0.00  0.00    +0.000 A 
ATOM     12  N   UNL     1       3.189   6.453  18.985  0.00  0.00    +0.000 NA
ATOM     13  C   UNL     1       5.459   6.204  17.395  0.00  0.00    +0.000 C 
ATOM     14  C   UNL     1       5.980   6.126  15.941  0.00  0.00    +0.000 C 
ATOM     15  H   UNL     1       2.189   2.383  20.540  0.00  0.00    +0.000 HD
ATOM     16  H   UNL     1       1.128   3.357  21.495  0.00  0.00    +0.000 HD
ENDROOT
BRANCH  11  17
ATOM     17  C   UNL     1       1.691   7.811  20.287  0.00  0.00    +0.000 C 
ATOM     18  C   UNL     1       0.860   8.052  21.317  0.00  0.00    +0.000 C 
BRANCH  18  19
ATOM     19  C   UNL     1       0.256   9.365  21.592  0.00  0.00    +0.000 A 
ATOM     20  C   UNL     1      -0.444   9.633  22.780  0.00  0.00    +0.000 A 
ATOM     21  C   UNL     1      -0.984  10.899  23.031  0.00  0.00    +0.000 A 
ATOM     22  C   UNL     1      -0.816  11.919  22.101  0.00  0.00    +0.000 A 
ATOM     23  C   UNL     1      -0.105  11.665  20.935  0.00  0.00    +0.000 A 
ATOM     24  F   UNL     1       0.068  12.652  20.045  0.00  0.00    +0.000 F 
ATOM     25  C   UNL     1       0.434  10.408  20.674  0.00  0.00    +0.000 A 
ENDBRANCH  18  19
ENDBRANCH  11  17
TORSDOF 2
ENDMDL
MODEL 6
REMARK VINA RESULT:      -7.8      5.468      7.122
REMARK  Name = 
REMARK  3 active torsions:
REMARK  status: ('A' for Active; 'I' for Inactive)
REMARK    1  A    between atoms: C_1  and  N_2
REMARK    2  A    between atoms: C_11  and  C_12
REMARK    3  A    between atoms: C_13  and  C_14
REMARK                            x       y       z     vdW  Elec       q    Type
REMARK                         _______ _______ _______ _____ _____    ______ ____
ROOT
ATOM      1  C   UNL     1       1.030  11.179  20.207  0.00  0.00    +0.000 C 
ATOM      2  N   UNL     1       0.937   9.752  19.903  0.00  0.00    +0.000 NA
ATOM      3  C   UNL     1       1.527   8.954  21.005  0.00  0.00    +0.000 C 
ATOM      4  C   UNL     1       1.567   7.437  20.705  0.00  0.00    +0.000 C 
ATOM      5  N   UNL     1       2.279   7.218  19.443  0.00  0.00    +0.000 N 
ATOM      6  C   UNL     1       2.761   5.949  19.183  0.00  0.00    +0.000 A 
ATOM      7  N   UNL     1       2.687   5.022  20.135  0.00  0.00    +0.000 NA
ATOM      8  C   UNL     1       3.230   3.846  19.860  0.00  0.00    +0.000 A 
ATOM      9  N   UNL     1       3.136   2.864  20.826  0.00  0.00    +0.000 N 
ATOM     10  N   UNL     1       3.883   3.550  18.753  0.00  0.00    +0.000 NA
ATOM     11  C   UNL     1       3.913   4.535  17.862  0.00  0.00    +0.000 A 
ATOM     12  N   UNL     1       3.362   5.732  18.016  0.00  0.00    +0.000 NA
ATOM     13  C   UNL     1       1.696   7.941  18.308  0.00  0.00    +0.000 C 
ATOM     14  C   UNL     1       1.647   9.452  18.637  0.00  0.00    +0.000 C 
ATOM     15  H   UNL     1       3.003   3.280  21.736  0.00  0.00    +0.000 HD
ATOM     16  H   UNL     1       3.886   2.193  20.724  0.00  0.00    +0.000 HD
ENDROOT
BRANCH  11  17
ATOM     17  C   UNL     1       4.619   4.237  16.613  0.00  0.00    +0.000 C 
ATOM     18  C   UNL     1       5.278   5.130  15.854  0.00  0.00    +0.000 C 
BRANCH  18  19
ATOM     19  C   UNL     1       5.943   4.793  14.584  0.00  0.00    +0.000 A 
ATOM     20  C   UNL     1       7.175   5.356  14.212  0.00  0.00    +0.000 A 
ATOM     21  C   UNL     1       7.801   4.997  13.013  0.00  0.00    +0.000 A 
ATOM     22  C   UNL     1       7.207   4.058  12.177  0.00  0.00    +0.000 A 
ATOM     23  C   UNL     1       5.999   3.483  12.551  0.00  0.00    +0.000 A 
ATOM     24  F   UNL     1       5.433   2.568  11.752  0.00  0.00    +0.000 F 
ATOM     25  C   UNL     1       5.366   3.835  13.741  0.00  0.00    +0.000 A 
ENDBRANCH  18  19
ENDBRANCH  11  17
TORSDOF 2
ENDMDL
MODEL 7
REMARK VINA RESULT:      -7.5      4.961      8.953
REMARK  Name = 
REMARK  3 active torsions:
REMARK  status: ('A' for Active; 'I' for Inactive)
REMARK    1  A    between atoms: C_1  and  N_2
REMARK    2  A    between atoms: C_11  and  C_12
REMARK    3  A    between atoms: C_13  and  C_14
REMARK                            x       y       z     vdW  Elec       q    Type
REMARK                         _______ _______ _______ _____ _____    ______ ____
ROOT
ATOM      1  C   UNL     1       7.787  15.906  24.043  0.00  0.00    +0.000 C 
ATOM      2  N   UNL     1       8.711  15.067  23.279  0.00  0.00    +0.000 NA
ATOM      3  C   UNL     1       8.911  15.630  21.923  0.00  0.00    +0.000 C 
ATOM      4  C   UNL     1       9.790  14.736  21.016  0.00  0.00    +0.000 C 
ATOM      5  N   UNL     1       9.207  13.393  20.959  0.00  0.00    +0.000 N 
ATOM      6  C   UNL     1       9.597  12.561  19.926  0.00  0.00    +0.000 A 
ATOM      7  N   UNL     1      10.367  13.050  18.957  0.00  0.00    +0.000 NA
ATOM      8  C   UNL     1      10.649  12.232  17.956  0.00  0.00    +0.000 A 
ATOM      9  N   UNL     1      11.470  12.715  16.956  0.00  0.00    +0.000 N 
ATOM     10  N   UNL     1      10.182  11.007  17.819  0.00  0.00    +0.000 NA
ATOM     11  C   UNL     1       9.417  10.604  18.828  0.00  0.00    +0.000 A 
ATOM     12  N   UNL     1       9.111  11.323  19.900  0.00  0.00    +0.000 NA
ATOM     13  C   UNL     1       9.044  12.769  22.277  0.00  0.00    +0.000 C 
ATOM     14  C   UNL     1       8.179  13.688  23.172  0.00  0.00    +0.000 C 
ATOM     15  H   UNL     1      11.438  13.724  16.933  0.00  0.00    +0.000 HD
ATOM     16  H   UNL     1      11.303  12.222  16.090  0.00  0.00    +0.000 HD
ENDROOT
BRANCH  11  17
ATOM     17  C   UNL     1       8.890   9.241  18.717  0.00  0.00    +0.000 C 
ATOM     18  C   UNL     1       7.969   8.827  17.829  0.00  0.00    +0.000 C 
BRANCH  18  19
ATOM     19  C   UNL     1       7.439   7.455  17.778  0.00  0.00    +0.000 A 
ATOM     20  C   UNL     1       7.946   6.426  18.589  0.00  0.00    +0.000 A 
ATOM     21  C   UNL     1       7.405   5.136  18.543  0.00  0.00    +0.000 A 
ATOM     22  C   UNL     1       6.338   4.864  17.694  0.00  0.00    +0.000 A 
ATOM     23  C   UNL     1       5.819   5.883  16.906  0.00  0.00    +0.000 A 
ATOM     24  F   UNL     1       4.783   5.623  16.097  0.00  0.00    +0.000 F 
ATOM     25  C   UNL     1       6.352   7.170  16.942  0.00  0.00    +0.000 A 
ENDBRANCH  18  19
ENDBRANCH  11  17
TORSDOF 2
ENDMDL
MODEL 8
REMARK VINA RESULT:      -7.4      6.335      8.605
REMARK  Name = 
REMARK  3 active torsions:
REMARK  status: ('A' for Active; 'I' for Inactive)
REMARK    1  A    between atoms: C_1  and  N_2
REMARK    2  A    between atoms: C_11  and  C_12
REMARK    3  A    between atoms: C_13  and  C_14
REMARK                            x       y       z     vdW  Elec       q    Type
REMARK                         _______ _______ _______ _____ _____    ______ ____
ROOT
ATOM      1  C   UNL     1      -3.122  12.301  23.822  0.00  0.00    +0.000 C 
ATOM      2  N   UNL     1      -1.808  12.192  23.189  0.00  0.00    +0.000 NA
ATOM      3  C   UNL     1      -1.795  12.930  21.904  0.00  0.00    +0.000 C 
ATOM      4  C   UNL     1      -0.471  12.768  21.121  0.00  0.00    +0.000 C 
ATOM      5  N   UNL     1      -0.204  11.340  20.924  0.00  0.00    +0.000 N 
ATOM      6  C   UNL     1       0.699  10.980  19.940  0.00  0.00    +0.000 A 
ATOM      7  N   UNL     1       1.176  11.918  19.126  0.00  0.00    +0.000 NA
ATOM      8  C   UNL     1       1.978  11.508  18.156  0.00  0.00    +0.000 A 
ATOM      9  N   UNL     1       2.506  12.472  17.320  0.00  0.00    +0.000 N 
ATOM     10  N   UNL     1       2.285  10.251  17.903  0.00  0.00    +0.000 NA
ATOM     11  C   UNL     1       1.759   9.382  18.760  0.00  0.00    +0.000 A 
ATOM     12  N   UNL     1       0.984   9.689  19.792  0.00  0.00    +0.000 NA
ATOM     13  C   UNL     1      -0.147  10.577  22.175  0.00  0.00    +0.000 C 
ATOM     14  C   UNL     1      -1.472  10.768  22.950  0.00  0.00    +0.000 C 
ATOM     15  H   UNL     1       1.924  13.298  17.327  0.00  0.00    +0.000 HD
ATOM     16  H   UNL     1       2.740  12.074  16.421  0.00  0.00    +0.000 HD
ENDROOT
BRANCH  11  17
ATOM     17  C   UNL     1       2.090   7.975  18.517  0.00  0.00    +0.000 C 
ATOM     18  C   UNL     1       3.206   7.525  17.918  0.00  0.00    +0.000 C 
BRANCH  18  19
ATOM     19  C   UNL     1       3.480   6.101  17.661  0.00  0.00    +0.000 A 
ATOM     20  C   UNL     1       2.660   5.079  18.168  0.00  0.00    +0.000 A 
ATOM     21  C   UNL     1       2.925   3.734  17.885  0.00  0.00    +0.000 A 
ATOM     22  C   UNL     1       4.006   3.397  17.077  0.00  0.00    +0.000 A 
ATOM     23  C   UNL     1       4.806   4.407  16.556  0.00  0.00    +0.000 A 
ATOM     24  F   UNL     1       5.840   4.082  15.767  0.00  0.00    +0.000 F 
ATOM     25  C   UNL     1       4.553   5.748  16.834  0.00  0.00    +0.000 A 
ENDBRANCH  18  19
ENDBRANCH  11  17
TORSDOF 2
ENDMDL
MODEL 9
REMARK VINA RESULT:      -7.3      5.085      7.552
REMARK  Name = 
REMARK  3 active torsions:
REMARK  status: ('A' for Active; 'I' for Inactive)
REMARK    1  A    between atoms: C_1  and  N_2
REMARK    2  A    between atoms: C_11  and  C_12
REMARK    3  A    between atoms: C_13  and  C_14
REMARK                            x       y       z     vdW  Elec       q    Type
REMARK                         _______ _______ _______ _____ _____    ______ ____
ROOT
ATOM      1  C   UNL     1       6.687   4.327  14.048  0.00  0.00    +0.000 C 
ATOM      2  N   UNL     1       6.390   4.703  15.429  0.00  0.00    +0.000 NA
ATOM      3  C   UNL     1       5.519   3.684  16.062  0.00  0.00    +0.000 C 
ATOM      4  C   UNL     1       5.070   4.069  17.492  0.00  0.00    +0.000 C 
ATOM      5  N   UNL     1       4.419   5.382  17.451  0.00  0.00    +0.000 N 
ATOM      6  C   UNL     1       3.616   5.739  18.517  0.00  0.00    +0.000 A 
ATOM      7  N   UNL     1       3.352   4.837  19.460  0.00  0.00    +0.000 NA
ATOM      8  C   UNL     1       2.519   5.209  20.418  0.00  0.00    +0.000 A 
ATOM      9  N   UNL     1       2.257   4.295  21.419  0.00  0.00    +0.000 N 
ATOM     10  N   UNL     1       1.891   6.367  20.474  0.00  0.00    +0.000 NA
ATOM     11  C   UNL     1       2.207   7.202  19.491  0.00  0.00    +0.000 A 
ATOM     12  N   UNL     1       3.065   6.951  18.510  0.00  0.00    +0.000 NA
ATOM     13  C   UNL     1       5.266   6.438  16.886  0.00  0.00    +0.000 C 
ATOM     14  C   UNL     1       5.719   6.024  15.467  0.00  0.00    +0.000 C 
ATOM     15  H   UNL     1       2.437   3.356  21.092  0.00  0.00    +0.000 HD
ATOM     16  H   UNL     1       1.357   4.478  21.842  0.00  0.00    +0.000 HD
ENDROOT
BRANCH  11  17
ATOM     17  C   UNL     1       1.539   8.506  19.528  0.00  0.00    +0.000 C 
ATOM     18  C   UNL     1       1.133   9.209  18.456  0.00  0.00    +0.000 C 
BRANCH  18  19
ATOM     19  C   UNL     1       0.499  10.535  18.538  0.00  0.00    +0.000 A 
ATOM     20  C   UNL     1       1.232  11.698  18.826  0.00  0.00    +0.000 A 
ATOM     21  C   UNL     1       0.610  12.951  18.870  0.00  0.00    +0.000 A 
ATOM     22  C   UNL     1      -0.751  13.057  18.609  0.00  0.00    +0.000 A 
ATOM     23  C   UNL     1      -1.476  11.912  18.302  0.00  0.00    +0.000 A 
ATOM     24  F   UNL     1      -2.786  12.016  18.038  0.00  0.00    +0.000 F 
ATOM     25  C   UNL     1      -0.868  10.660  18.259  0.00  0.00    +0.000 A 
ENDBRANCH  18  19
ENDBRANCH  11  17
TORSDOF 2
ENDMDL
