MODEL 1
REMARK VINA RESULT:      -7.0      0.000      0.000
REMARK  Name = 
REMARK  6 active torsions:
REMARK  status: ('A' for Active; 'I' for Inactive)
REMARK    1  A    between atoms: N_1  and  S_2
REMARK    2  A    between atoms: S_2  and  C_5
REMARK    3  A    between atoms: C_8  and  C_9
REMARK    4  A    between atoms: C_9  and  N_10
REMARK    5  A    between atoms: C_11  and  C_13
REMARK    6  A    between atoms: C_13  and  C_14
REMARK                            x       y       z     vdW  Elec       q    Type
REMARK                         _______ _______ _______ _____ _____    ______ ____
ROOT
ATOM      1  C   UNL     1       1.432   8.715  19.780  0.00  0.00    +0.000 A 
ATOM      2  C   UNL     1       1.835   9.125  18.507  0.00  0.00    +0.000 A 
ATOM      3  C   UNL     1       2.650   8.282  17.742  0.00  0.00    +0.000 A 
ATOM      4  C   UNL     1       3.057   7.034  18.241  0.00  0.00    +0.000 A 
ATOM      5  C   UNL     1       2.679   6.662  19.535  0.00  0.00    +0.000 A 
ATOM      6  C   UNL     1       1.864   7.496  20.307  0.00  0.00    +0.000 A 
ENDROOT
BRANCH   1   7
ATOM      7  S   UNL     1       0.310   9.713  20.711  0.00  0.00    +0.000 S 
ATOM      8  O   UNL     1      -0.736  10.179  19.830  0.00  0.00    +0.000 OA
ATOM      9  O   UNL     1       1.057  10.604  21.568  0.00  0.00    +0.000 OA
BRANCH   7  10
ATOM     10  N   UNL     1      -0.394   8.594  21.745  0.00  0.00    +0.000 NA
ATOM     11  H   UNL     1      -1.265   8.256  21.336  0.00  0.00    +0.000 HD
ATOM     12  H   UNL     1      -0.504   8.997  22.674  0.00  0.00    +0.000 HD
ENDBRANCH   7  10
ENDBRANCH   1   7
BRANCH   4  13
ATOM     13  C   UNL     1       3.855   6.087  17.378  0.00  0.00    +0.000 C 
BRANCH  13  14
ATOM     14  N   UNL     1       3.392   4.723  17.457  0.00  0.00    +0.000 N 
ATOM     15  C   UNL     1       4.220   3.754  17.987  0.00  0.00    +0.000 C 
ATOM     16  O   UNL     1       5.368   3.995  18.347  0.00  0.00    +0.000 OA
ATOM     17  H   UNL     1       2.417   4.518  17.273  0.00  0.00    +0.000 HD
BRANCH  15  18
ATOM     18  C   UNL     1       3.582   2.378  18.069  0.00  0.00    +0.000 C 
BRANCH  18  19
ATOM     19  C   UNL     1       2.586   2.230  19.225  0.00  0.00    +0.000 C 
ATOM     20  C   UNL     1       3.067   2.801  20.561  0.00  0.00    +0.000 C 
ATOM     21  C   UNL     1       1.788   2.912  21.380  0.00  0.00    +0.000 C 
ATOM     22  C   UNL     1       0.682   3.220  20.373  0.00  0.00    +0.000 C 
ATOM     23  C   UNL     1       1.296   3.020  18.988  0.00  0.00    +0.000 C 
ENDBRANCH  18  19
ENDBRANCH  15  18
ENDBRANCH  13  14
ENDBRANCH   4  13
TORSDOF 6
ENDMDL
MODEL 2
REMARK VINA RESULT:      -6.9      0.846      1.032
REMARK  Name = 
REMARK  6 active torsions:
REMARK  status: ('A' for Active; 'I' for Inactive)
REMARK    1  A    between atoms: N_1  and  S_2
REMARK    2  A    between atoms: S_2  and  C_5
REMARK    3  A    between atoms: C_8  and  C_9
REMARK    4  A    between atoms: C_9  and  N_10
REMARK    5  A    between atoms: C_11  and  C_13
REMARK    6  A    between atoms: C_13  and  C_14
REMARK                            x       y       z     vdW  Elec       q    Type
REMARK                         _______ _______ _______ _____ _____    ______ ____
ROOT
ATOM      1  C   UNL     1       1.199   8.850  19.848  0.00  0.00    +0.000 A 
ATOM      2  C   UNL     1       1.563   9.234  18.556  0.00  0.00    +0.000 A 
ATOM      3  C   UNL     1       2.398   8.399  17.803  0.00  0.00    +0.000 A 
ATOM      4  C   UNL     1       2.862   7.184  18.335  0.00  0.00    +0.000 A 
ATOM      5  C   UNL     1       2.522   6.841  19.647  0.00  0.00    +0.000 A 
ATOM      6  C   UNL     1       1.688   7.668  20.406  0.00  0.00    +0.000 A 
ENDROOT
BRANCH   1   7
ATOM      7  S   UNL     1       0.054   9.834  20.767  0.00  0.00    +0.000 S 
ATOM      8  O   UNL     1      -0.457   9.048  21.866  0.00  0.00    +0.000 OA
ATOM      9  O   UNL     1      -0.810  10.545  19.853  0.00  0.00    +0.000 OA
BRANCH   7  10
ATOM     10  N   UNL     1       1.047  11.009  21.438  0.00  0.00    +0.000 NA
ATOM     11  H   UNL     1       1.421  10.672  22.325  0.00  0.00    +0.000 HD
ATOM     12  H   UNL     1       0.544  11.892  21.513  0.00  0.00    +0.000 HD
ENDBRANCH   7  10
ENDBRANCH   1   7
BRANCH   4  13
ATOM     13  C   UNL     1       3.682   6.242  17.488  0.00  0.00    +0.000 C 
BRANCH  13  14
ATOM     14  N   UNL     1       3.199   4.882  17.525  0.00  0.00    +0.000 N 
ATOM     15  C   UNL     1       4.071   3.860  17.841  0.00  0.00    +0.000 C 
ATOM     16  O   UNL     1       5.266   4.053  18.039  0.00  0.00    +0.000 OA
ATOM     17  H   UNL     1       2.203   4.709  17.478  0.00  0.00    +0.000 HD
BRANCH  15  18
ATOM     18  C   UNL     1       3.415   2.492  17.908  0.00  0.00    +0.000 C 
BRANCH  18  19
ATOM     19  C   UNL     1       2.624   2.251  19.198  0.00  0.00    +0.000 C 
ATOM     20  C   UNL     1       3.304   2.761  20.471  0.00  0.00    +0.000 C 
ATOM     21  C   UNL     1       2.174   2.790  21.490  0.00  0.00    +0.000 C 
ATOM     22  C   UNL     1       0.913   3.121  20.695  0.00  0.00    +0.000 C 
ATOM     23  C   UNL     1       1.297   3.016  19.220  0.00  0.00    +0.000 C 
ENDBRANCH  18  19
ENDBRANCH  15  18
ENDBRANCH  13  14
ENDBRANCH   4  13
TORSDOF 6
ENDMDL
MODEL 3
REMARK VINA RESULT:      -6.8      5.164      7.628
REMARK  Name = 
REMARK  6 active torsions:
REMARK  status: ('A' for Active; 'I' for Inactive)
REMARK    1  A    between atoms: N_1  and  S_2
REMARK    2  A    between atoms: S_2  and  C_5
REMARK    3  A    between atoms: C_8  and  C_9
REMARK    4  A    between atoms: C_9  and  N_10
REMARK    5  A    between atoms: C_11  and  C_13
REMARK    6  A    between atoms: C_13  and  C_14
REMARK                            x       y       z     vdW  Elec       q    Type
REMARK                         _______ _______ _______ _____ _____    ______ ____
ROOT
ATOM      1  C   UNL     1       3.469   4.425  17.799  0.00  0.00    +0.000 A 
ATOM      2  C   UNL     1       3.771   5.738  18.162  0.00  0.00    +0.000 A 
ATOM      3  C   UNL     1       5.007   6.284  17.793  0.00  0.00    +0.000 A 
ATOM      4  C   UNL     1       5.934   5.526  17.060  0.00  0.00    +0.000 A 
ATOM      5  C   UNL     1       5.629   4.197  16.745  0.00  0.00    +0.000 A 
ATOM      6  C   UNL     1       4.397   3.644  17.108  0.00  0.00    +0.000 A 
ENDROOT
BRANCH   1   7
ATOM      7  S   UNL     1       1.871   3.760  18.155  0.00  0.00    +0.000 S 
ATOM      8  O   UNL     1       2.008   2.352  18.446  0.00  0.00    +0.000 OA
ATOM      9  O   UNL     1       0.916   4.264  17.194  0.00  0.00    +0.000 OA
BRANCH   7  10
ATOM     10  N   UNL     1       1.481   4.515  19.602  0.00  0.00    +0.000 NA
ATOM     11  H   UNL     1       0.480   4.424  19.773  0.00  0.00    +0.000 HD
ATOM     12  H   UNL     1       1.811   5.479  19.594  0.00  0.00    +0.000 HD
ENDBRANCH   7  10
ENDBRANCH   1   7
BRANCH   4  13
ATOM     13  C   UNL     1       7.223   6.147  16.580  0.00  0.00    +0.000 C 
BRANCH  13  14
ATOM     14  N   UNL     1       7.307   7.560  16.858  0.00  0.00    +0.000 N 
ATOM     15  C   UNL     1       8.003   7.994  17.969  0.00  0.00    +0.000 C 
ATOM     16  O   UNL     1       8.511   7.218  18.771  0.00  0.00    +0.000 OA
ATOM     17  H   UNL     1       6.996   8.223  16.158  0.00  0.00    +0.000 HD
BRANCH  15  18
ATOM     18  C   UNL     1       8.066   9.506  18.102  0.00  0.00    +0.000 C 
BRANCH  18  19
ATOM     19  C   UNL     1       9.386  10.018  18.688  0.00  0.00    +0.000 C 
ATOM     20  C   UNL     1      10.018  11.182  17.922  0.00  0.00    +0.000 C 
ATOM     21  C   UNL     1      11.028  11.750  18.910  0.00  0.00    +0.000 C 
ATOM     22  C   UNL     1      10.418  11.530  20.292  0.00  0.00    +0.000 C 
ATOM     23  C   UNL     1       9.210  10.617  20.086  0.00  0.00    +0.000 C 
ENDBRANCH  18  19
ENDBRANCH  15  18
ENDBRANCH  13  14
ENDBRANCH   4  13
TORSDOF 6
ENDMDL
MODEL 4
REMARK VINA RESULT:      -6.8      5.159      7.703
REMARK  Name = 
REMARK  6 active torsions:
REMARK  status: ('A' for Active; 'I' for Inactive)
REMARK    1  A    between atoms: N_1  and  S_2
REMARK    2  A    between atoms: S_2  and  C_5
REMARK    3  A    between atoms: C_8  and  C_9
REMARK    4  A    between atoms: C_9  and  N_10
REMARK    5  A    between atoms: C_11  and  C_13
REMARK    6  A    between atoms: C_13  and  C_14
REMARK                            x       y       z     vdW  Elec       q    Type
REMARK                         _______ _______ _______ _____ _____    ______ ____
ROOT
ATOM      1  C   UNL     1       3.465   4.291  17.629  0.00  0.00    +0.000 A 
ATOM      2  C   UNL     1       4.229   3.783  16.577  0.00  0.00    +0.000 A 
ATOM      3  C   UNL     1       5.467   4.369  16.284  0.00  0.00    +0.000 A 
ATOM      4  C   UNL     1       5.943   5.452  17.041  0.00  0.00    +0.000 A 
ATOM      5  C   UNL     1       5.141   5.973  18.062  0.00  0.00    +0.000 A 
ATOM      6  C   UNL     1       3.904   5.394  18.363  0.00  0.00    +0.000 A 
ENDROOT
BRANCH   1   7
ATOM      7  S   UNL     1       1.957   3.490  18.086  0.00  0.00    +0.000 S 
ATOM      8  O   UNL     1       2.202   2.072  18.205  0.00  0.00    +0.000 OA
ATOM      9  O   UNL     1       0.871   4.027  17.299  0.00  0.00    +0.000 OA
BRANCH   7  10
ATOM     10  N   UNL     1       1.701   4.067  19.641  0.00  0.00    +0.000 NA
ATOM     11  H   UNL     1       2.526   3.884  20.211  0.00  0.00    +0.000 HD
ATOM     12  H   UNL     1       0.842   3.674  20.023  0.00  0.00    +0.000 HD
ENDBRANCH   7  10
ENDBRANCH   1   7
BRANCH   4  13
ATOM     13  C   UNL     1       7.318   6.019  16.786  0.00  0.00    +0.000 C 
BRANCH  13  14
ATOM     14  N   UNL     1       7.367   7.457  16.902  0.00  0.00    +0.000 N 
ATOM     15  C   UNL     1       7.998   8.030  17.987  0.00  0.00    +0.000 C 
ATOM     16  O   UNL     1       8.476   7.362  18.898  0.00  0.00    +0.000 OA
ATOM     17  H   UNL     1       7.082   8.028  16.115  0.00  0.00    +0.000 HD
BRANCH  15  18
ATOM     18  C   UNL     1       8.032   9.548  17.947  0.00  0.00    +0.000 C 
BRANCH  18  19
ATOM     19  C   UNL     1       9.317  10.151  18.525  0.00  0.00    +0.000 C 
ATOM     20  C   UNL     1       9.710  11.507  17.935  0.00  0.00    +0.000 C 
ATOM     21  C   UNL     1      10.718  12.052  18.938  0.00  0.00    +0.000 C 
ATOM     22  C   UNL     1      10.272  11.518  20.298  0.00  0.00    +0.000 C 
ATOM     23  C   UNL     1       9.188  10.479  20.016  0.00  0.00    +0.000 C 
ENDBRANCH  18  19
ENDBRANCH  15  18
ENDBRANCH  13  14
ENDBRANCH   4  13
TORSDOF 6
ENDMDL
MODEL 5
REMARK VINA RESULT:      -6.8      0.683      1.277
REMARK  Name = 
REMARK  6 active torsions:
REMARK  status: ('A' for Active; 'I' for Inactive)
REMARK    1  A    between atoms: N_1  and  S_2
REMARK    2  A    between atoms: S_2  and  C_5
REMARK    3  A    between atoms: C_8  and  C_9
REMARK    4  A    between atoms: C_9  and  N_10
REMARK    5  A    between atoms: C_11  and  C_13
REMARK    6  A    between atoms: C_13  and  C_14
REMARK                            x       y       z     vdW  Elec       q    Type
REMARK                         _______ _______ _______ _____ _____    ______ ____
ROOT
ATOM      1  C   UNL     1       1.539   8.847  19.497  0.00  0.00    +0.000 A 
ATOM      2  C   UNL     1       1.859   7.654  20.148  0.00  0.00    +0.000 A 
ATOM      3  C   UNL     1       2.654   6.707  19.489  0.00  0.00    +0.000 A 
ATOM      4  C   UNL     1       3.131   6.952  18.191  0.00  0.00    +0.000 A 
ATOM      5  C   UNL     1       2.760   8.133  17.541  0.00  0.00    +0.000 A 
ATOM      6  C   UNL     1       1.969   9.086  18.191  0.00  0.00    +0.000 A 
ENDROOT
BRANCH   1   7
ATOM      7  S   UNL     1       0.637  10.102  20.355  0.00  0.00    +0.000 S 
ATOM      8  O   UNL     1      -0.766   9.759  20.337  0.00  0.00    +0.000 OA
ATOM      9  O   UNL     1       1.124  11.402  19.956  0.00  0.00    +0.000 OA
BRANCH   7  10
ATOM     10  N   UNL     1       1.161   9.902  21.937  0.00  0.00    +0.000 NA
ATOM     11  H   UNL     1       0.423  10.193  22.578  0.00  0.00    +0.000 HD
ATOM     12  H   UNL     1       2.044  10.390  22.078  0.00  0.00    +0.000 HD
ENDBRANCH   7  10
ENDBRANCH   1   7
BRANCH   4  13
ATOM     13  C   UNL     1       4.064   5.973  17.521  0.00  0.00    +0.000 C 
BRANCH  13  14
ATOM     14  N   UNL     1       3.601   4.608  17.595  0.00  0.00    +0.000 N 
ATOM     15  C   UNL     1       4.351   3.673  18.280  0.00  0.00    +0.000 C 
ATOM     16  O   UNL     1       5.434   3.943  18.788  0.00  0.00    +0.000 OA
ATOM     17  H   UNL     1       2.664   4.385  17.284  0.00  0.00    +0.000 HD
BRANCH  15  18
ATOM     18  C   UNL     1       3.714   2.295  18.333  0.00  0.00    +0.000 C 
BRANCH  18  19
ATOM     19  C   UNL     1       2.597   2.173  19.376  0.00  0.00    +0.000 C 
ATOM     20  C   UNL     1       2.927   2.781  20.741  0.00  0.00    +0.000 C 
ATOM     21  C   UNL     1       1.566   2.909  21.412  0.00  0.00    +0.000 C 
ATOM     22  C   UNL     1       0.577   3.184  20.281  0.00  0.00    +0.000 C 
ATOM     23  C   UNL     1       1.340   2.951  18.978  0.00  0.00    +0.000 C 
ENDBRANCH  18  19
ENDBRANCH  15  18
ENDBRANCH  13  14
ENDBRANCH   4  13
TORSDOF 6
ENDMDL
MODEL 6
REMARK VINA RESULT:      -6.8      1.155      1.176
REMARK  Name = 
REMARK  6 active torsions:
REMARK  status: ('A' for Active; 'I' for Inactive)
REMARK    1  A    between atoms: N_1  and  S_2
REMARK    2  A    between atoms: S_2  and  C_5
REMARK    3  A    between atoms: C_8  and  C_9
REMARK    4  A    between atoms: C_9  and  N_10
REMARK    5  A    between atoms: C_11  and  C_13
REMARK    6  A    between atoms: C_13  and  C_14
REMARK                            x       y       z     vdW  Elec       q    Type
REMARK                         _______ _______ _______ _____ _____    ______ ____
ROOT
ATOM      1  C   UNL     1       1.357   8.484  20.136  0.00  0.00    +0.000 A 
ATOM      2  C   UNL     1       1.666   8.939  18.853  0.00  0.00    +0.000 A 
ATOM      3  C   UNL     1       2.394   8.111  17.990  0.00  0.00    +0.000 A 
ATOM      4  C   UNL     1       2.806   6.833  18.402  0.00  0.00    +0.000 A 
ATOM      5  C   UNL     1       2.524   6.415  19.706  0.00  0.00    +0.000 A 
ATOM      6  C   UNL     1       1.796   7.234  20.575  0.00  0.00    +0.000 A 
ENDROOT
BRANCH   1   7
ATOM      7  S   UNL     1       0.341   9.467  21.197  0.00  0.00    +0.000 S 
ATOM      8  O   UNL     1      -0.488  10.324  20.381  0.00  0.00    +0.000 OA
ATOM      9  O   UNL     1       1.136   9.970  22.293  0.00  0.00    +0.000 OA
BRANCH   7  10
ATOM     10  N   UNL     1      -0.678   8.322  21.881  0.00  0.00    +0.000 NA
ATOM     11  H   UNL     1      -1.644   8.539  21.637  0.00  0.00    +0.000 HD
ATOM     12  H   UNL     1      -0.511   8.260  22.884  0.00  0.00    +0.000 HD
ENDBRANCH   7  10
ENDBRANCH   1   7
BRANCH   4  13
ATOM     13  C   UNL     1       3.506   5.907  17.438  0.00  0.00    +0.000 C 
BRANCH  13  14
ATOM     14  N   UNL     1       3.505   4.531  17.874  0.00  0.00    +0.000 N 
ATOM     15  C   UNL     1       2.466   3.701  17.502  0.00  0.00    +0.000 C 
ATOM     16  O   UNL     1       1.504   4.101  16.856  0.00  0.00    +0.000 OA
ATOM     17  H   UNL     1       4.335   4.149  18.309  0.00  0.00    +0.000 HD
BRANCH  15  18
ATOM     18  C   UNL     1       2.627   2.267  17.975  0.00  0.00    +0.000 C 
BRANCH  18  19
ATOM     19  C   UNL     1       2.269   2.061  19.451  0.00  0.00    +0.000 C 
ATOM     20  C   UNL     1       3.304   2.598  20.442  0.00  0.00    +0.000 C 
ATOM     21  C   UNL     1       2.539   2.657  21.757  0.00  0.00    +0.000 C 
ATOM     22  C   UNL     1       1.095   2.975  21.377  0.00  0.00    +0.000 C 
ATOM     23  C   UNL     1       1.010   2.833  19.858  0.00  0.00    +0.000 C 
ENDBRANCH  18  19
ENDBRANCH  15  18
ENDBRANCH  13  14
ENDBRANCH   4  13
TORSDOF 6
ENDMDL
MODEL 7
REMARK VINA RESULT:      -6.8      0.853      1.484
REMARK  Name = 
REMARK  6 active torsions:
REMARK  status: ('A' for Active; 'I' for Inactive)
REMARK    1  A    between atoms: N_1  and  S_2
REMARK    2  A    between atoms: S_2  and  C_5
REMARK    3  A    between atoms: C_8  and  C_9
REMARK    4  A    between atoms: C_9  and  N_10
REMARK    5  A    between atoms: C_11  and  C_13
REMARK    6  A    between atoms: C_13  and  C_14
REMARK                            x       y       z     vdW  Elec       q    Type
REMARK                         _______ _______ _______ _____ _____    ______ ____
ROOT
ATOM      1  C   UNL     1       1.249   8.817  19.947  0.00  0.00    +0.000 A 
ATOM      2  C   UNL     1       1.709   7.599  20.451  0.00  0.00    +0.000 A 
ATOM      3  C   UNL     1       2.522   6.789  19.649  0.00  0.00    +0.000 A 
ATOM      4  C   UNL     1       2.879   7.194  18.352  0.00  0.00    +0.000 A 
ATOM      5  C   UNL     1       2.370   8.396  17.850  0.00  0.00    +0.000 A 
ATOM      6  C   UNL     1       1.560   9.213  18.645  0.00  0.00    +0.000 A 
ENDROOT
BRANCH   1   7
ATOM      7  S   UNL     1       0.321   9.904  20.986  0.00  0.00    +0.000 S 
ATOM      8  O   UNL     1       1.190  10.962  21.445  0.00  0.00    +0.000 OA
ATOM      9  O   UNL     1      -0.496   9.125  21.888  0.00  0.00    +0.000 OA
BRANCH   7  10
ATOM     10  N   UNL     1      -0.757  10.601  19.905  0.00  0.00    +0.000 NA
ATOM     11  H   UNL     1      -0.673  10.142  18.998  0.00  0.00    +0.000 HD
ATOM     12  H   UNL     1      -0.616  11.609  19.871  0.00  0.00    +0.000 HD
ENDBRANCH   7  10
ENDBRANCH   1   7
BRANCH   4  13
ATOM     13  C   UNL     1       3.832   6.365  17.526  0.00  0.00    +0.000 C 
BRANCH  13  14
ATOM     14  N   UNL     1       3.470   4.969  17.474  0.00  0.00    +0.000 N 
ATOM     15  C   UNL     1       4.321   4.026  18.012  0.00  0.00    +0.000 C 
ATOM     16  O   UNL     1       5.413   4.321  18.488  0.00  0.00    +0.000 OA
ATOM     17  H   UNL     1       2.532   4.711  17.191  0.00  0.00    +0.000 HD
BRANCH  15  18
ATOM     18  C   UNL     1       3.785   2.606  17.947  0.00  0.00    +0.000 C 
BRANCH  18  19
ATOM     19  C   UNL     1       2.744   2.292  19.027  0.00  0.00    +0.000 C 
ATOM     20  C   UNL     1       3.070   2.853  20.413  0.00  0.00    +0.000 C 
ATOM     21  C   UNL     1       1.739   2.779  21.148  0.00  0.00    +0.000 C 
ATOM     22  C   UNL     1       0.669   3.002  20.082  0.00  0.00    +0.000 C 
ATOM     23  C   UNL     1       1.387   2.938  18.734  0.00  0.00    +0.000 C 
ENDBRANCH  18  19
ENDBRANCH  15  18
ENDBRANCH  13  14
ENDBRANCH   4  13
TORSDOF 6
ENDMDL
MODEL 8
REMARK VINA RESULT:      -6.8      4.407      6.462
REMARK  Name = 
REMARK  6 active torsions:
REMARK  status: ('A' for Active; 'I' for Inactive)
REMARK    1  A    between atoms: N_1  and  S_2
REMARK    2  A    between atoms: S_2  and  C_5
REMARK    3  A    between atoms: C_8  and  C_9
REMARK    4  A    between atoms: C_9  and  N_10
REMARK    5  A    between atoms: C_11  and  C_13
REMARK    6  A    between atoms: C_13  and  C_14
REMARK                            x       y       z     vdW  Elec       q    Type
REMARK                         _______ _______ _______ _____ _____    ______ ____
ROOT
ATOM      1  C   UNL     1       2.691   3.746  18.541  0.00  0.00    +0.000 A 
ATOM      2  C   UNL     1       3.116   4.895  19.213  0.00  0.00    +0.000 A 
ATOM      3  C   UNL     1       4.121   5.687  18.645  0.00  0.00    +0.000 A 
ATOM      4  C   UNL     1       4.696   5.340  17.412  0.00  0.00    +0.000 A 
ATOM      5  C   UNL     1       4.287   4.162  16.778  0.00  0.00    +0.000 A 
ATOM      6  C   UNL     1       3.283   3.365  17.336  0.00  0.00    +0.000 A 
ENDROOT
BRANCH   1   7
ATOM      7  S   UNL     1       1.344   2.800  19.184  0.00  0.00    +0.000 S 
ATOM      8  O   UNL     1       1.876   1.663  19.900  0.00  0.00    +0.000 OA
ATOM      9  O   UNL     1       0.322   2.670  18.172  0.00  0.00    +0.000 OA
BRANCH   7  10
ATOM     10  N   UNL     1       0.696   3.834  20.336  0.00  0.00    +0.000 NA
ATOM     11  H   UNL     1       1.140   3.660  21.237  0.00  0.00    +0.000 HD
ATOM     12  H   UNL     1      -0.319   3.745  20.354  0.00  0.00    +0.000 HD
ENDBRANCH   7  10
ENDBRANCH   1   7
BRANCH   4  13
ATOM     13  C   UNL     1       5.709   6.246  16.757  0.00  0.00    +0.000 C 
BRANCH  13  14
ATOM     14  N   UNL     1       5.953   5.917  15.373  0.00  0.00    +0.000 N 
ATOM     15  C   UNL     1       6.969   5.040  15.053  0.00  0.00    +0.000 C 
ATOM     16  O   UNL     1       7.720   4.565  15.899  0.00  0.00    +0.000 OA
ATOM     17  H   UNL     1       5.283   6.203  14.670  0.00  0.00    +0.000 HD
BRANCH  15  18
ATOM     18  C   UNL     1       7.070   4.733  13.568  0.00  0.00    +0.000 C 
BRANCH  18  19
ATOM     19  C   UNL     1       6.082   3.661  13.093  0.00  0.00    +0.000 C 
ATOM     20  C   UNL     1       4.911   4.194  12.264  0.00  0.00    +0.000 C 
ATOM     21  C   UNL     1       4.359   2.946  11.588  0.00  0.00    +0.000 C 
ATOM     22  C   UNL     1       5.565   2.039  11.355  0.00  0.00    +0.000 C 
ATOM     23  C   UNL     1       6.726   2.662  12.127  0.00  0.00    +0.000 C 
ENDBRANCH  18  19
ENDBRANCH  15  18
ENDBRANCH  13  14
ENDBRANCH   4  13
TORSDOF 6
ENDMDL
MODEL 9
REMARK VINA RESULT:      -6.6      4.698      6.680
REMARK  Name = 
REMARK  6 active torsions:
REMARK  status: ('A' for Active; 'I' for Inactive)
REMARK    1  A    between atoms: N_1  and  S_2
REMARK    2  A    between atoms: S_2  and  C_5
REMARK    3  A    between atoms: C_8  and  C_9
REMARK    4  A    between atoms: C_9  and  N_10
REMARK    5  A    between atoms: C_11  and  C_13
REMARK    6  A    between atoms: C_13  and  C_14
REMARK                            x       y       z     vdW  Elec       q    Type
REMARK                         _______ _______ _______ _____ _____    ______ ____
ROOT
ATOM      1  C   UNL     1       2.662   3.471  18.879  0.00  0.00    +0.000 A 
ATOM      2  C   UNL     1       3.821   3.799  19.585  0.00  0.00    +0.000 A 
ATOM      3  C   UNL     1       5.001   4.066  18.880  0.00  0.00    +0.000 A 
ATOM      4  C   UNL     1       5.023   4.013  17.476  0.00  0.00    +0.000 A 
ATOM      5  C   UNL     1       3.863   3.638  16.791  0.00  0.00    +0.000 A 
ATOM      6  C   UNL     1       2.679   3.371  17.487  0.00  0.00    +0.000 A 
ENDROOT
BRANCH   1   7
ATOM      7  S   UNL     1       1.139   3.245  19.746  0.00  0.00    +0.000 S 
ATOM      8  O   UNL     1       0.262   2.430  18.938  0.00  0.00    +0.000 OA
ATOM      9  O   UNL     1       0.721   4.504  20.317  0.00  0.00    +0.000 OA
BRANCH   7  10
ATOM     10  N   UNL     1       1.605   2.301  21.053  0.00  0.00    +0.000 NA
ATOM     11  H   UNL     1       0.853   1.655  21.289  0.00  0.00    +0.000 HD
ATOM     12  H   UNL     1       1.896   2.895  21.828  0.00  0.00    +0.000 HD
ENDBRANCH   7  10
ENDBRANCH   1   7
BRANCH   4  13
ATOM     13  C   UNL     1       6.269   4.395  16.715  0.00  0.00    +0.000 C 
BRANCH  13  14
ATOM     14  N   UNL     1       6.098   4.334  15.283  0.00  0.00    +0.000 N 
ATOM     15  C   UNL     1       6.992   4.994  14.464  0.00  0.00    +0.000 C 
ATOM     16  O   UNL     1       7.904   5.684  14.907  0.00  0.00    +0.000 OA
ATOM     17  H   UNL     1       5.426   3.686  14.891  0.00  0.00    +0.000 HD
BRANCH  15  18
ATOM     18  C   UNL     1       6.731   4.792  12.981  0.00  0.00    +0.000 C 
BRANCH  18  19
ATOM     19  C   UNL     1       6.129   3.423  12.644  0.00  0.00    +0.000 C 
ATOM     20  C   UNL     1       4.848   3.476  11.809  0.00  0.00    +0.000 C 
ATOM     21  C   UNL     1       4.714   2.056  11.274  0.00  0.00    +0.000 C 
ATOM     22  C   UNL     1       6.144   1.553  11.087  0.00  0.00    +0.000 C 
ATOM     23  C   UNL     1       7.052   2.583  11.756  0.00  0.00    +0.000 C 
ENDBRANCH  18  19
ENDBRANCH  15  18
ENDBRANCH  13  14
ENDBRANCH   4  13
TORSDOF 6
ENDMDL
