MODEL 1
REMARK VINA RESULT:      -7.0      0.000      0.000
REMARK  Name = 
REMARK  5 active torsions:
REMARK  status: ('A' for Active; 'I' for Inactive)
REMARK    1  A    between atoms: C_2  and  C_18
REMARK    2  A    between atoms: N_3  and  C_4
REMARK    3  A    between atoms: C_4  and  C_5
REMARK    4  A    between atoms: C_5  and  N_6
REMARK    5  A    between atoms: C_9  and  N_10
REMARK                            x       y       z     vdW  Elec       q    Type
REMARK                         _______ _______ _______ _____ _____    ______ ____
ROOT
ATOM      1  N   UNL     1       6.479   6.431  17.891  0.00  0.00    +0.000 N 
ATOM      2  C   UNL     1       5.508   6.932  16.965  0.00  0.00    +0.000 C 
ATOM      3  C   UNL     1       4.301   6.047  17.171  0.00  0.00    +0.000 C 
ATOM      4  C   UNL     1       4.828   4.701  17.710  0.00  0.00    +0.000 C 
ATOM      5  C   UNL     1       6.274   5.072  18.135  0.00  0.00    +0.000 C 
ATOM      6  O   UNL     1       7.117   4.311  18.581  0.00  0.00    +0.000 OA
ENDROOT
BRANCH   4   7
ATOM      7  N   UNL     1       4.020   4.232  18.863  0.00  0.00    +0.000 NA
ATOM      8  C   UNL     1       4.122   2.779  19.126  0.00  0.00    +0.000 C 
ATOM      9  C   UNL     1       3.253   1.909  18.205  0.00  0.00    +0.000 C 
ATOM     10  O   UNL     1       1.874   2.286  18.300  0.00  0.00    +0.000 OA
ATOM     11  C   UNL     1       1.705   3.660  17.949  0.00  0.00    +0.000 C 
ATOM     12  C   UNL     1       2.584   4.586  18.807  0.00  0.00    +0.000 C 
ENDBRANCH   4   7
BRANCH   1  13
ATOM     13  C   UNL     1       7.781   7.069  18.080  0.00  0.00    +0.000 C 
BRANCH  13  14
ATOM     14  C   UNL     1       7.748   8.577  17.799  0.00  0.00    +0.000 C 
BRANCH  14  17
ATOM     15  O   UNL     1       8.140  11.327  17.590  0.00  0.00    +0.000 OA
ATOM     16  C   UNL     1       8.996  10.664  18.166  0.00  0.00    +0.000 C 
ATOM     17  N   UNL     1       8.907   9.293  18.288  0.00  0.00    +0.000 N 
ATOM     18  H   UNL     1       9.605   8.780  18.805  0.00  0.00    +0.000 HD
BRANCH  16  19
ATOM     19  C   UNL     1      10.156  11.287  18.786  0.00  0.00    +0.000 A 
ATOM     20  C   UNL     1      10.319  11.583  20.173  0.00  0.00    +0.000 A 
ATOM     21  C   UNL     1      11.552  12.171  20.313  0.00  0.00    +0.000 A 
ATOM     22  O   UNL     1      12.170  12.258  19.109  0.00  0.00    +0.000 OA
ATOM     23  C   UNL     1      11.322  11.726  18.190  0.00  0.00    +0.000 A 
ENDBRANCH  16  19
ENDBRANCH  14  17
ENDBRANCH  13  14
ENDBRANCH   1  13
TORSDOF 5
ENDMDL
MODEL 2
REMARK VINA RESULT:      -6.9      1.437      1.623
REMARK  Name = 
REMARK  5 active torsions:
REMARK  status: ('A' for Active; 'I' for Inactive)
REMARK    1  A    between atoms: C_2  and  C_18
REMARK    2  A    between atoms: N_3  and  C_4
REMARK    3  A    between atoms: C_4  and  C_5
REMARK    4  A    between atoms: C_5  and  N_6
REMARK    5  A    between atoms: C_9  and  N_10
REMARK                            x       y       z     vdW  Elec       q    Type
REMARK                         _______ _______ _______ _____ _____    ______ ____
ROOT
ATOM      1  N   UNL     1       6.116   6.520  17.519  0.00  0.00    +0.000 N 
ATOM      2  C   UNL     1       4.858   7.028  17.058  0.00  0.00    +0.000 C 
ATOM      3  C   UNL     1       3.828   6.191  17.780  0.00  0.00    +0.000 C 
ATOM      4  C   UNL     1       4.505   4.843  18.106  0.00  0.00    +0.000 C 
ATOM      5  C   UNL     1       6.004   5.176  17.880  0.00  0.00    +0.000 C 
ATOM      6  O   UNL     1       6.941   4.399  17.968  0.00  0.00    +0.000 OA
ENDROOT
BRANCH   4   7
ATOM      7  N   UNL     1       4.238   4.435  19.508  0.00  0.00    +0.000 NA
ATOM      8  C   UNL     1       4.316   2.976  19.742  0.00  0.00    +0.000 C 
ATOM      9  C   UNL     1       3.062   2.200  19.312  0.00  0.00    +0.000 C 
ATOM     10  O   UNL     1       1.899   2.699  19.983  0.00  0.00    +0.000 OA
ATOM     11  C   UNL     1       1.715   4.087  19.701  0.00  0.00    +0.000 C 
ATOM     12  C   UNL     1       2.956   4.919  20.068  0.00  0.00    +0.000 C 
ENDBRANCH   4   7
BRANCH   1  13
ATOM     13  C   UNL     1       7.391   7.118  17.127  0.00  0.00    +0.000 C 
BRANCH  13  14
ATOM     14  C   UNL     1       8.020   7.960  18.245  0.00  0.00    +0.000 C 
BRANCH  14  17
ATOM     15  O   UNL     1       9.169   9.882  19.901  0.00  0.00    +0.000 OA
ATOM     16  C   UNL     1       9.050  10.144  18.709  0.00  0.00    +0.000 C 
ATOM     17  N   UNL     1       8.462   9.271  17.819  0.00  0.00    +0.000 N 
ATOM     18  H   UNL     1       8.416   9.496  16.836  0.00  0.00    +0.000 HD
BRANCH  16  19
ATOM     19  C   UNL     1       9.549  11.390  18.147  0.00  0.00    +0.000 A 
ATOM     20  C   UNL     1      10.916  11.717  17.891  0.00  0.00    +0.000 A 
ATOM     21  C   UNL     1      10.930  12.988  17.369  0.00  0.00    +0.000 A 
ATOM     22  O   UNL     1       9.667  13.472  17.279  0.00  0.00    +0.000 OA
ATOM     23  C   UNL     1       8.837  12.505  17.752  0.00  0.00    +0.000 A 
ENDBRANCH  16  19
ENDBRANCH  14  17
ENDBRANCH  13  14
ENDBRANCH   1  13
TORSDOF 5
ENDMDL
MODEL 3
REMARK VINA RESULT:      -6.9      4.936      7.049
REMARK  Name = 
REMARK  5 active torsions:
REMARK  status: ('A' for Active; 'I' for Inactive)
REMARK    1  A    between atoms: C_2  and  C_18
REMARK    2  A    between atoms: N_3  and  C_4
REMARK    3  A    between atoms: C_4  and  C_5
REMARK    4  A    between atoms: C_5  and  N_6
REMARK    5  A    between atoms: C_9  and  N_10
REMARK                            x       y       z     vdW  Elec       q    Type
REMARK                         _______ _______ _______ _____ _____    ______ ____
ROOT
ATOM      1  N   UNL     1       6.059   4.608  17.998  0.00  0.00    +0.000 N 
ATOM      2  C   UNL     1       5.786   5.705  18.878  0.00  0.00    +0.000 C 
ATOM      3  C   UNL     1       4.548   5.282  19.633  0.00  0.00    +0.000 C 
ATOM      4  C   UNL     1       3.796   4.287  18.725  0.00  0.00    +0.000 C 
ATOM      5  C   UNL     1       4.882   3.928  17.677  0.00  0.00    +0.000 C 
ATOM      6  O   UNL     1       4.743   3.200  16.707  0.00  0.00    +0.000 OA
ENDROOT
BRANCH   4   7
ATOM      7  N   UNL     1       3.355   3.093  19.489  0.00  0.00    +0.000 NA
ATOM      8  C   UNL     1       2.478   2.175  18.729  0.00  0.00    +0.000 C 
ATOM      9  C   UNL     1       1.011   2.626  18.649  0.00  0.00    +0.000 C 
ATOM     10  O   UNL     1       0.457   2.791  19.960  0.00  0.00    +0.000 OA
ATOM     11  C   UNL     1       1.207   3.754  20.703  0.00  0.00    +0.000 C 
ATOM     12  C   UNL     1       2.698   3.385  20.783  0.00  0.00    +0.000 C 
ENDBRANCH   4   7
BRANCH   1  13
ATOM     13  C   UNL     1       7.241   4.571  17.138  0.00  0.00    +0.000 C 
BRANCH  13  14
ATOM     14  C   UNL     1       7.032   5.314  15.812  0.00  0.00    +0.000 C 
BRANCH  14  17
ATOM     15  O   UNL     1       7.718   5.287  13.113  0.00  0.00    +0.000 OA
ATOM     16  C   UNL     1       6.806   4.556  13.484  0.00  0.00    +0.000 C 
ATOM     17  N   UNL     1       6.372   4.526  14.792  0.00  0.00    +0.000 N 
ATOM     18  H   UNL     1       5.648   3.883  15.076  0.00  0.00    +0.000 HD
BRANCH  16  19
ATOM     19  C   UNL     1       6.137   3.645  12.568  0.00  0.00    +0.000 A 
ATOM     20  C   UNL     1       4.754   3.665  12.211  0.00  0.00    +0.000 A 
ATOM     21  C   UNL     1       4.555   2.630  11.330  0.00  0.00    +0.000 A 
ATOM     22  O   UNL     1       5.719   1.970  11.110  0.00  0.00    +0.000 OA
ATOM     23  C   UNL     1       6.670   2.584  11.861  0.00  0.00    +0.000 A 
ENDBRANCH  16  19
ENDBRANCH  14  17
ENDBRANCH  13  14
ENDBRANCH   1  13
TORSDOF 5
ENDMDL
MODEL 4
REMARK VINA RESULT:      -6.9      4.330      7.386
REMARK  Name = 
REMARK  5 active torsions:
REMARK  status: ('A' for Active; 'I' for Inactive)
REMARK    1  A    between atoms: C_2  and  C_18
REMARK    2  A    between atoms: N_3  and  C_4
REMARK    3  A    between atoms: C_4  and  C_5
REMARK    4  A    between atoms: C_5  and  N_6
REMARK    5  A    between atoms: C_9  and  N_10
REMARK                            x       y       z     vdW  Elec       q    Type
REMARK                         _______ _______ _______ _____ _____    ______ ____
ROOT
ATOM      1  N   UNL     1       3.015   2.748  18.923  0.00  0.00    +0.000 N 
ATOM      2  C   UNL     1       4.227   2.555  19.662  0.00  0.00    +0.000 C 
ATOM      3  C   UNL     1       5.222   3.479  19.000  0.00  0.00    +0.000 C 
ATOM      4  C   UNL     1       4.749   3.666  17.544  0.00  0.00    +0.000 C 
ATOM      5  C   UNL     1       3.293   3.132  17.610  0.00  0.00    +0.000 C 
ATOM      6  O   UNL     1       2.515   3.028  16.676  0.00  0.00    +0.000 OA
ENDROOT
BRANCH   4   7
ATOM      7  N   UNL     1       4.792   5.095  17.145  0.00  0.00    +0.000 NA
ATOM      8  C   UNL     1       5.126   5.319  15.721  0.00  0.00    +0.000 C 
ATOM      9  C   UNL     1       6.625   5.219  15.401  0.00  0.00    +0.000 C 
ATOM     10  O   UNL     1       7.378   6.149  16.189  0.00  0.00    +0.000 OA
ATOM     11  C   UNL     1       7.175   5.905  17.581  0.00  0.00    +0.000 C 
ATOM     12  C   UNL     1       5.685   5.947  17.963  0.00  0.00    +0.000 C 
ENDBRANCH   4   7
BRANCH   1  13
ATOM     13  C   UNL     1       1.760   2.096  19.295  0.00  0.00    +0.000 C 
BRANCH  13  14
ATOM     14  C   UNL     1       0.933   2.926  20.286  0.00  0.00    +0.000 C 
BRANCH  14  17
ATOM     15  O   UNL     1       2.485   4.806  21.633  0.00  0.00    +0.000 OA
ATOM     16  C   UNL     1       1.771   5.197  20.716  0.00  0.00    +0.000 C 
ATOM     17  N   UNL     1       0.942   4.348  20.014  0.00  0.00    +0.000 N 
ATOM     18  H   UNL     1       0.398   4.691  19.237  0.00  0.00    +0.000 HD
BRANCH  16  19
ATOM     19  C   UNL     1       1.773   6.587  20.287  0.00  0.00    +0.000 A 
ATOM     20  C   UNL     1       1.214   7.694  20.996  0.00  0.00    +0.000 A 
ATOM     21  C   UNL     1       1.435   8.811  20.227  0.00  0.00    +0.000 A 
ATOM     22  O   UNL     1       2.095   8.477  19.092  0.00  0.00    +0.000 OA
ATOM     23  C   UNL     1       2.295   7.133  19.130  0.00  0.00    +0.000 A 
ENDBRANCH  16  19
ENDBRANCH  14  17
ENDBRANCH  13  14
ENDBRANCH   1  13
TORSDOF 5
ENDMDL
MODEL 5
REMARK VINA RESULT:      -6.8      1.663      2.225
REMARK  Name = 
REMARK  5 active torsions:
REMARK  status: ('A' for Active; 'I' for Inactive)
REMARK    1  A    between atoms: C_2  and  C_18
REMARK    2  A    between atoms: N_3  and  C_4
REMARK    3  A    between atoms: C_4  and  C_5
REMARK    4  A    between atoms: C_5  and  N_6
REMARK    5  A    between atoms: C_9  and  N_10
REMARK                            x       y       z     vdW  Elec       q    Type
REMARK                         _______ _______ _______ _____ _____    ______ ____
ROOT
ATOM      1  N   UNL     1       6.154   6.305  17.745  0.00  0.00    +0.000 N 
ATOM      2  C   UNL     1       6.601   5.529  18.863  0.00  0.00    +0.000 C 
ATOM      3  C   UNL     1       5.498   4.522  19.086  0.00  0.00    +0.000 C 
ATOM      4  C   UNL     1       4.203   5.155  18.536  0.00  0.00    +0.000 C 
ATOM      5  C   UNL     1       4.759   6.329  17.686  0.00  0.00    +0.000 C 
ATOM      6  O   UNL     1       4.103   7.164  17.084  0.00  0.00    +0.000 OA
ENDROOT
BRANCH   4   7
ATOM      7  N   UNL     1       3.444   4.188  17.705  0.00  0.00    +0.000 NA
ATOM      8  C   UNL     1       1.975   4.363  17.758  0.00  0.00    +0.000 C 
ATOM      9  C   UNL     1       1.313   3.761  19.007  0.00  0.00    +0.000 C 
ATOM     10  O   UNL     1       1.601   2.361  19.112  0.00  0.00    +0.000 OA
ATOM     11  C   UNL     1       3.012   2.144  19.174  0.00  0.00    +0.000 C 
ATOM     12  C   UNL     1       3.744   2.763  17.972  0.00  0.00    +0.000 C 
ENDBRANCH   4   7
BRANCH   1  13
ATOM     13  C   UNL     1       6.978   7.350  17.139  0.00  0.00    +0.000 C 
BRANCH  13  14
ATOM     14  C   UNL     1       7.963   7.978  18.133  0.00  0.00    +0.000 C 
BRANCH  14  17
ATOM     15  O   UNL     1       9.170   9.807  19.852  0.00  0.00    +0.000 OA
ATOM     16  C   UNL     1       9.034  10.124  18.675  0.00  0.00    +0.000 C 
ATOM     17  N   UNL     1       8.418   9.300  17.758  0.00  0.00    +0.000 N 
ATOM     18  H   UNL     1       8.359   9.569  16.787  0.00  0.00    +0.000 HD
BRANCH  16  19
ATOM     19  C   UNL     1       9.543  11.386  18.160  0.00  0.00    +0.000 A 
ATOM     20  C   UNL     1       8.813  12.607  18.035  0.00  0.00    +0.000 A 
ATOM     21  C   UNL     1       9.675  13.534  17.501  0.00  0.00    +0.000 A 
ATOM     22  O   UNL     1      10.892  12.975  17.289  0.00  0.00    +0.000 OA
ATOM     23  C   UNL     1      10.807  11.678  17.685  0.00  0.00    +0.000 A 
ENDBRANCH  16  19
ENDBRANCH  14  17
ENDBRANCH  13  14
ENDBRANCH   1  13
TORSDOF 5
ENDMDL
MODEL 6
REMARK VINA RESULT:      -6.8      1.026      1.153
REMARK  Name = 
REMARK  5 active torsions:
REMARK  status: ('A' for Active; 'I' for Inactive)
REMARK    1  A    between atoms: C_2  and  C_18
REMARK    2  A    between atoms: N_3  and  C_4
REMARK    3  A    between atoms: C_4  and  C_5
REMARK    4  A    between atoms: C_5  and  N_6
REMARK    5  A    between atoms: C_9  and  N_10
REMARK                            x       y       z     vdW  Elec       q    Type
REMARK                         _______ _______ _______ _____ _____    ______ ____
ROOT
ATOM      1  N   UNL     1       6.641   6.516  17.823  0.00  0.00    +0.000 N 
ATOM      2  C   UNL     1       6.109   6.241  16.522  0.00  0.00    +0.000 C 
ATOM      3  C   UNL     1       4.777   5.582  16.792  0.00  0.00    +0.000 C 
ATOM      4  C   UNL     1       4.885   4.923  18.183  0.00  0.00    +0.000 C 
ATOM      5  C   UNL     1       6.157   5.600  18.759  0.00  0.00    +0.000 C 
ATOM      6  O   UNL     1       6.682   5.362  19.834  0.00  0.00    +0.000 OA
ENDROOT
BRANCH   4   7
ATOM      7  N   UNL     1       3.686   5.215  19.009  0.00  0.00    +0.000 NA
ATOM      8  C   UNL     1       3.356   4.160  19.993  0.00  0.00    +0.000 C 
ATOM      9  C   UNL     1       2.613   2.954  19.400  0.00  0.00    +0.000 C 
ATOM     10  O   UNL     1       1.399   3.367  18.761  0.00  0.00    +0.000 OA
ATOM     11  C   UNL     1       1.674   4.309  17.723  0.00  0.00    +0.000 C 
ATOM     12  C   UNL     1       2.458   5.526  18.242  0.00  0.00    +0.000 C 
ENDBRANCH   4   7
BRANCH   1  13
ATOM     13  C   UNL     1       7.897   7.240  18.017  0.00  0.00    +0.000 C 
BRANCH  13  14
ATOM     14  C   UNL     1       7.757   8.747  17.766  0.00  0.00    +0.000 C 
BRANCH  14  17
ATOM     15  O   UNL     1       8.080  11.495  17.451  0.00  0.00    +0.000 OA
ATOM     16  C   UNL     1       8.821  10.913  18.236  0.00  0.00    +0.000 C 
ATOM     17  N   UNL     1       8.760   9.550  18.433  0.00  0.00    +0.000 N 
ATOM     18  H   UNL     1       9.354   9.106  19.117  0.00  0.00    +0.000 HD
BRANCH  16  19
ATOM     19  C   UNL     1       9.800  11.632  19.038  0.00  0.00    +0.000 A 
ATOM     20  C   UNL     1      11.162  11.259  19.249  0.00  0.00    +0.000 A 
ATOM     21  C   UNL     1      11.714  12.212  20.070  0.00  0.00    +0.000 A 
ATOM     22  O   UNL     1      10.791  13.155  20.381  0.00  0.00    +0.000 OA
ATOM     23  C   UNL     1       9.636  12.800  19.758  0.00  0.00    +0.000 A 
ENDBRANCH  16  19
ENDBRANCH  14  17
ENDBRANCH  13  14
ENDBRANCH   1  13
TORSDOF 5
ENDMDL
MODEL 7
REMARK VINA RESULT:      -6.8      0.756      1.036
REMARK  Name = 
REMARK  5 active torsions:
REMARK  status: ('A' for Active; 'I' for Inactive)
REMARK    1  A    between atoms: C_2  and  C_18
REMARK    2  A    between atoms: N_3  and  C_4
REMARK    3  A    between atoms: C_4  and  C_5
REMARK    4  A    between atoms: C_5  and  N_6
REMARK    5  A    between atoms: C_9  and  N_10
REMARK                            x       y       z     vdW  Elec       q    Type
REMARK                         _______ _______ _______ _____ _____    ______ ____
ROOT
ATOM      1  N   UNL     1       6.520   6.243  17.601  0.00  0.00    +0.000 N 
ATOM      2  C   UNL     1       5.388   6.448  16.747  0.00  0.00    +0.000 C 
ATOM      3  C   UNL     1       4.340   5.498  17.277  0.00  0.00    +0.000 C 
ATOM      4  C   UNL     1       5.099   4.347  17.970  0.00  0.00    +0.000 C 
ATOM      5  C   UNL     1       6.524   4.945  18.112  0.00  0.00    +0.000 C 
ATOM      6  O   UNL     1       7.506   4.379  18.564  0.00  0.00    +0.000 OA
ENDROOT
BRANCH   4   7
ATOM      7  N   UNL     1       4.502   4.031  19.292  0.00  0.00    +0.000 NA
ATOM      8  C   UNL     1       4.009   2.641  19.418  0.00  0.00    +0.000 C 
ATOM      9  C   UNL     1       2.636   2.397  18.776  0.00  0.00    +0.000 C 
ATOM     10  O   UNL     1       1.649   3.274  19.333  0.00  0.00    +0.000 OA
ATOM     11  C   UNL     1       2.026   4.638  19.140  0.00  0.00    +0.000 C 
ATOM     12  C   UNL     1       3.416   4.940  19.723  0.00  0.00    +0.000 C 
ENDBRANCH   4   7
BRANCH   1  13
ATOM     13  C   UNL     1       7.741   7.040  17.485  0.00  0.00    +0.000 C 
BRANCH  13  14
ATOM     14  C   UNL     1       7.508   8.527  17.782  0.00  0.00    +0.000 C 
BRANCH  14  17
ATOM     15  O   UNL     1       8.060  11.246  17.538  0.00  0.00    +0.000 OA
ATOM     16  C   UNL     1       8.825  10.559  18.208  0.00  0.00    +0.000 C 
ATOM     17  N   UNL     1       8.653   9.200  18.357  0.00  0.00    +0.000 N 
ATOM     18  H   UNL     1       9.274   8.668  18.949  0.00  0.00    +0.000 HD
BRANCH  16  19
ATOM     19  C   UNL     1       9.953  11.143  18.916  0.00  0.00    +0.000 A 
ATOM     20  C   UNL     1      11.236  11.446  18.366  0.00  0.00    +0.000 A 
ATOM     21  C   UNL     1      11.992  11.974  19.384  0.00  0.00    +0.000 A 
ATOM     22  O   UNL     1      11.268  12.025  20.529  0.00  0.00    +0.000 OA
ATOM     23  C   UNL     1      10.039  11.520  20.243  0.00  0.00    +0.000 A 
ENDBRANCH  16  19
ENDBRANCH  14  17
ENDBRANCH  13  14
ENDBRANCH   1  13
TORSDOF 5
ENDMDL
MODEL 8
REMARK VINA RESULT:      -6.7      4.847      6.662
REMARK  Name = 
REMARK  5 active torsions:
REMARK  status: ('A' for Active; 'I' for Inactive)
REMARK    1  A    between atoms: C_2  and  C_18
REMARK    2  A    between atoms: N_3  and  C_4
REMARK    3  A    between atoms: C_4  and  C_5
REMARK    4  A    between atoms: C_5  and  N_6
REMARK    5  A    between atoms: C_9  and  N_10
REMARK                            x       y       z     vdW  Elec       q    Type
REMARK                         _______ _______ _______ _____ _____    ______ ____
ROOT
ATOM      1  N   UNL     1       4.221   5.168  18.400  0.00  0.00    +0.000 N 
ATOM      2  C   UNL     1       3.488   6.126  19.174  0.00  0.00    +0.000 C 
ATOM      3  C   UNL     1       2.251   5.381  19.619  0.00  0.00    +0.000 C 
ATOM      4  C   UNL     1       2.002   4.275  18.573  0.00  0.00    +0.000 C 
ATOM      5  C   UNL     1       3.358   4.239  17.818  0.00  0.00    +0.000 C 
ATOM      6  O   UNL     1       3.633   3.543  16.854  0.00  0.00    +0.000 OA
ENDROOT
BRANCH   4   7
ATOM      7  N   UNL     1       1.703   2.976  19.227  0.00  0.00    +0.000 NA
ATOM      8  C   UNL     1       0.990   3.097  20.519  0.00  0.00    +0.000 C 
ATOM      9  C   UNL     1       1.895   3.451  21.708  0.00  0.00    +0.000 C 
ATOM     10  O   UNL     1       2.938   2.481  21.862  0.00  0.00    +0.000 OA
ATOM     11  C   UNL     1       3.728   2.404  20.675  0.00  0.00    +0.000 C 
ATOM     12  C   UNL     1       2.875   2.095  19.433  0.00  0.00    +0.000 C 
ENDBRANCH   4   7
BRANCH   1  13
ATOM     13  C   UNL     1       5.543   5.459  17.846  0.00  0.00    +0.000 C 
BRANCH  13  14
ATOM     14  C   UNL     1       5.478   6.319  16.577  0.00  0.00    +0.000 C 
BRANCH  14  17
ATOM     15  O   UNL     1       7.654   5.461  15.066  0.00  0.00    +0.000 OA
ATOM     16  C   UNL     1       6.530   5.147  14.689  0.00  0.00    +0.000 C 
ATOM     17  N   UNL     1       5.392   5.554  15.351  0.00  0.00    +0.000 N 
ATOM     18  H   UNL     1       4.483   5.244  15.042  0.00  0.00    +0.000 HD
BRANCH  16  19
ATOM     19  C   UNL     1       6.325   4.296  13.527  0.00  0.00    +0.000 A 
ATOM     20  C   UNL     1       5.102   3.669  13.141  0.00  0.00    +0.000 A 
ATOM     21  C   UNL     1       5.364   2.958  11.994  0.00  0.00    +0.000 A 
ATOM     22  O   UNL     1       6.664   3.104  11.638  0.00  0.00    +0.000 OA
ATOM     23  C   UNL     1       7.241   3.910  12.568  0.00  0.00    +0.000 A 
ENDBRANCH  16  19
ENDBRANCH  14  17
ENDBRANCH  13  14
ENDBRANCH   1  13
TORSDOF 5
ENDMDL
MODEL 9
REMARK VINA RESULT:      -6.6      4.208      5.875
REMARK  Name = 
REMARK  5 active torsions:
REMARK  status: ('A' for Active; 'I' for Inactive)
REMARK    1  A    between atoms: C_2  and  C_18
REMARK    2  A    between atoms: N_3  and  C_4
REMARK    3  A    between atoms: C_4  and  C_5
REMARK    4  A    between atoms: C_5  and  N_6
REMARK    5  A    between atoms: C_9  and  N_10
REMARK                            x       y       z     vdW  Elec       q    Type
REMARK                         _______ _______ _______ _____ _____    ______ ____
ROOT
ATOM      1  N   UNL     1       5.770   5.819  18.627  0.00  0.00    +0.000 N 
ATOM      2  C   UNL     1       4.731   6.701  18.185  0.00  0.00    +0.000 C 
ATOM      3  C   UNL     1       3.471   6.129  18.791  0.00  0.00    +0.000 C 
ATOM      4  C   UNL     1       3.726   4.622  18.998  0.00  0.00    +0.000 C 
ATOM      5  C   UNL     1       5.268   4.535  18.848  0.00  0.00    +0.000 C 
ATOM      6  O   UNL     1       5.945   3.521  18.883  0.00  0.00    +0.000 OA
ENDROOT
BRANCH   4   7
ATOM      7  N   UNL     1       3.280   4.183  20.344  0.00  0.00    +0.000 NA
ATOM      8  C   UNL     1       3.119   2.718  20.484  0.00  0.00    +0.000 C 
ATOM      9  C   UNL     1       1.806   2.170  19.906  0.00  0.00    +0.000 C 
ATOM     10  O   UNL     1       0.675   2.805  20.516  0.00  0.00    +0.000 OA
ATOM     11  C   UNL     1       0.726   4.218  20.316  0.00  0.00    +0.000 C 
ATOM     12  C   UNL     1       2.040   4.827  20.834  0.00  0.00    +0.000 C 
ENDBRANCH   4   7
BRANCH   1  13
ATOM     13  C   UNL     1       7.181   6.064  18.332  0.00  0.00    +0.000 C 
BRANCH  13  14
ATOM     14  C   UNL     1       7.392   6.754  16.978  0.00  0.00    +0.000 C 
BRANCH  14  17
ATOM     15  O   UNL     1       5.290   6.333  15.200  0.00  0.00    +0.000 OA
ATOM     16  C   UNL     1       6.339   5.728  15.007  0.00  0.00    +0.000 C 
ATOM     17  N   UNL     1       7.422   5.844  15.852  0.00  0.00    +0.000 N 
ATOM     18  H   UNL     1       8.286   5.367  15.644  0.00  0.00    +0.000 HD
BRANCH  16  19
ATOM     19  C   UNL     1       6.520   4.863  13.851  0.00  0.00    +0.000 A 
ATOM     20  C   UNL     1       5.713   3.739  13.497  0.00  0.00    +0.000 A 
ATOM     21  C   UNL     1       6.243   3.215  12.344  0.00  0.00    +0.000 A 
ATOM     22  O   UNL     1       7.322   3.937  11.953  0.00  0.00    +0.000 OA
ATOM     23  C   UNL     1       7.487   4.929  12.867  0.00  0.00    +0.000 A 
ENDBRANCH  16  19
ENDBRANCH  14  17
ENDBRANCH  13  14
ENDBRANCH   1  13
TORSDOF 5
ENDMDL
