MODEL 1
REMARK VINA RESULT:      -7.7      0.000      0.000
REMARK  Name = 
REMARK  11 active torsions:
REMARK  status: ('A' for Active; 'I' for Inactive)
REMARK    1  A    between atoms: C_1  and  O_2
REMARK    2  A    between atoms: O_2  and  C_3
REMARK    3  A    between atoms: C_4  and  C_5
REMARK    4  A    between atoms: C_4  and  C_9
REMARK    5  A    between atoms: C_5  and  O_7
REMARK    6  A    between atoms: O_7  and  C_8
REMARK    7  A    between atoms: C_9  and  C_10
REMARK    8  A    between atoms: C_11  and  C_12
REMARK    9  A    between atoms: C_11  and  O_24
REMARK   10  A    between atoms: C_13  and  C_14
REMARK   11  A    between atoms: O_24  and  C_25
REMARK                            x       y       z     vdW  Elec       q    Type
REMARK                         _______ _______ _______ _____ _____    ______ ____
ROOT
ATOM      1  C   UNL     1       3.928   4.540  17.449  0.00  0.00    +0.000 C 
ATOM      2  C   UNL     1       4.781   3.728  16.502  0.00  0.00    +0.000 C 
ATOM      3  C   UNL     1       4.061   5.888  17.459  0.00  0.00    +0.000 C 
ENDROOT
BRANCH   1   5
ATOM      4  C   UNL     1       3.516   2.925  19.294  0.00  0.00    +0.000 C 
ATOM      5  C   UNL     1       3.063   3.758  18.335  0.00  0.00    +0.000 C 
BRANCH   4   7
ATOM      6  C   UNL     1       5.023   1.744  20.600  0.00  0.00    +0.000 C 
ATOM      7  O   UNL     1       4.847   2.709  19.564  0.00  0.00    +0.000 OA
ENDBRANCH   4   7
BRANCH   5   8
ATOM      8  C   UNL     1       1.570   3.723  18.183  0.00  0.00    +0.000 C 
ATOM      9  O   UNL     1       0.974   4.069  17.172  0.00  0.00    +0.000 OA
BRANCH   8  10
ATOM     10  O   UNL     1       0.981   3.341  19.347  0.00  0.00    +0.000 OA
ATOM     11  C   UNL     1       0.866   4.350  20.357  0.00  0.00    +0.000 C 
ENDBRANCH   8  10
ENDBRANCH   5   8
ENDBRANCH   1   5
BRANCH   3  12
ATOM     12  C   UNL     1       3.354   6.784  18.363  0.00  0.00    +0.000 C 
ATOM     13  C   UNL     1       2.432   7.656  17.927  0.00  0.00    +0.000 C 
BRANCH  13  14
ATOM     14  C   UNL     1       1.715   8.601  18.783  0.00  0.00    +0.000 A 
ATOM     15  C   UNL     1       1.074   9.700  18.210  0.00  0.00    +0.000 A 
ATOM     16  C   UNL     1       0.297  10.553  19.000  0.00  0.00    +0.000 A 
ATOM     17  C   UNL     1       0.140  10.316  20.373  0.00  0.00    +0.000 A 
ATOM     18  C   UNL     1      -0.663  11.149  21.170  0.00  0.00    +0.000 A 
ATOM     19  C   UNL     1      -0.839  10.883  22.530  0.00  0.00    +0.000 A 
ATOM     20  C   UNL     1      -0.211   9.785  23.108  0.00  0.00    +0.000 A 
ATOM     21  C   UNL     1       0.602   8.955  22.332  0.00  0.00    +0.000 A 
ATOM     22  C   UNL     1       0.790   9.207  20.961  0.00  0.00    +0.000 A 
ATOM     23  C   UNL     1       1.586   8.368  20.157  0.00  0.00    +0.000 A 
ENDBRANCH  13  14
ENDBRANCH   3  12
BRANCH   3  24
ATOM     24  O   UNL     1       5.058   6.454  16.668  0.00  0.00    +0.000 OA
ATOM     25  C   UNL     1       6.186   6.996  17.349  0.00  0.00    +0.000 C 
ENDBRANCH   3  24
TORSDOF 7
ENDMDL
MODEL 2
REMARK VINA RESULT:      -7.6      1.646      3.803
REMARK  Name = 
REMARK  11 active torsions:
REMARK  status: ('A' for Active; 'I' for Inactive)
REMARK    1  A    between atoms: C_1  and  O_2
REMARK    2  A    between atoms: O_2  and  C_3
REMARK    3  A    between atoms: C_4  and  C_5
REMARK    4  A    between atoms: C_4  and  C_9
REMARK    5  A    between atoms: C_5  and  O_7
REMARK    6  A    between atoms: O_7  and  C_8
REMARK    7  A    between atoms: C_9  and  C_10
REMARK    8  A    between atoms: C_11  and  C_12
REMARK    9  A    between atoms: C_11  and  O_24
REMARK   10  A    between atoms: C_13  and  C_14
REMARK   11  A    between atoms: O_24  and  C_25
REMARK                            x       y       z     vdW  Elec       q    Type
REMARK                         _______ _______ _______ _____ _____    ______ ____
ROOT
ATOM      1  C   UNL     1       3.792   3.336  17.795  0.00  0.00    +0.000 C 
ATOM      2  C   UNL     1       3.959   1.835  17.744  0.00  0.00    +0.000 C 
ATOM      3  C   UNL     1       2.547   3.854  17.908  0.00  0.00    +0.000 C 
ENDROOT
BRANCH   1   5
ATOM      4  C   UNL     1       5.565   4.458  16.459  0.00  0.00    +0.000 C 
ATOM      5  C   UNL     1       5.030   4.105  17.646  0.00  0.00    +0.000 C 
BRANCH   4   7
ATOM      6  C   UNL     1       6.006   4.058  14.221  0.00  0.00    +0.000 C 
ATOM      7  O   UNL     1       5.012   4.146  15.240  0.00  0.00    +0.000 OA
ENDBRANCH   4   7
BRANCH   5   8
ATOM      8  C   UNL     1       5.894   4.482  18.816  0.00  0.00    +0.000 C 
ATOM      9  O   UNL     1       5.476   4.639  19.955  0.00  0.00    +0.000 OA
BRANCH   8  10
ATOM     10  O   UNL     1       7.172   4.707  18.411  0.00  0.00    +0.000 OA
ATOM     11  C   UNL     1       7.820   5.852  18.976  0.00  0.00    +0.000 C 
ENDBRANCH   8  10
ENDBRANCH   5   8
ENDBRANCH   1   5
BRANCH   3  12
ATOM     12  C   UNL     1       2.237   5.278  17.901  0.00  0.00    +0.000 C 
ATOM     13  C   UNL     1       2.416   6.052  18.983  0.00  0.00    +0.000 C 
BRANCH  13  14
ATOM     14  C   UNL     1       2.092   7.477  19.045  0.00  0.00    +0.000 A 
ATOM     15  C   UNL     1       2.223   8.263  17.900  0.00  0.00    +0.000 A 
ATOM     16  C   UNL     1       1.819   9.602  17.915  0.00  0.00    +0.000 A 
ATOM     17  C   UNL     1       1.268  10.173  19.072  0.00  0.00    +0.000 A 
ATOM     18  C   UNL     1       0.830  11.508  19.088  0.00  0.00    +0.000 A 
ATOM     19  C   UNL     1       0.254  12.056  20.235  0.00  0.00    +0.000 A 
ATOM     20  C   UNL     1       0.111  11.278  21.379  0.00  0.00    +0.000 A 
ATOM     21  C   UNL     1       0.554   9.953  21.383  0.00  0.00    +0.000 A 
ATOM     22  C   UNL     1       1.137   9.383  20.237  0.00  0.00    +0.000 A 
ATOM     23  C   UNL     1       1.568   8.043  20.213  0.00  0.00    +0.000 A 
ENDBRANCH  13  14
ENDBRANCH   3  12
BRANCH   3  24
ATOM     24  O   UNL     1       1.465   2.978  17.864  0.00  0.00    +0.000 OA
ATOM     25  C   UNL     1       0.776   2.748  19.089  0.00  0.00    +0.000 C 
ENDBRANCH   3  24
TORSDOF 7
ENDMDL
MODEL 3
REMARK VINA RESULT:      -7.3      1.667      3.569
REMARK  Name = 
REMARK  11 active torsions:
REMARK  status: ('A' for Active; 'I' for Inactive)
REMARK    1  A    between atoms: C_1  and  O_2
REMARK    2  A    between atoms: O_2  and  C_3
REMARK    3  A    between atoms: C_4  and  C_5
REMARK    4  A    between atoms: C_4  and  C_9
REMARK    5  A    between atoms: C_5  and  O_7
REMARK    6  A    between atoms: O_7  and  C_8
REMARK    7  A    between atoms: C_9  and  C_10
REMARK    8  A    between atoms: C_11  and  C_12
REMARK    9  A    between atoms: C_11  and  O_24
REMARK   10  A    between atoms: C_13  and  C_14
REMARK   11  A    between atoms: O_24  and  C_25
REMARK                            x       y       z     vdW  Elec       q    Type
REMARK                         _______ _______ _______ _____ _____    ______ ____
ROOT
ATOM      1  C   UNL     1       4.093   3.324  19.160  0.00  0.00    +0.000 C 
ATOM      2  C   UNL     1       4.582   1.953  19.567  0.00  0.00    +0.000 C 
ATOM      3  C   UNL     1       2.943   3.796  19.696  0.00  0.00    +0.000 C 
ENDROOT
BRANCH   1   5
ATOM      4  C   UNL     1       5.944   4.813  18.425  0.00  0.00    +0.000 C 
ATOM      5  C   UNL     1       4.906   3.999  18.145  0.00  0.00    +0.000 C 
BRANCH   4   7
ATOM      6  C   UNL     1       7.706   5.618  19.697  0.00  0.00    +0.000 C 
ATOM      7  O   UNL     1       6.373   5.108  19.697  0.00  0.00    +0.000 OA
ENDBRANCH   4   7
BRANCH   5   8
ATOM      8  C   UNL     1       4.586   3.936  16.680  0.00  0.00    +0.000 C 
ATOM      9  O   UNL     1       3.452   3.852  16.227  0.00  0.00    +0.000 OA
BRANCH   8  10
ATOM     10  O   UNL     1       5.728   3.897  15.944  0.00  0.00    +0.000 OA
ATOM     11  C   UNL     1       5.669   4.515  14.653  0.00  0.00    +0.000 C 
ENDBRANCH   8  10
ENDBRANCH   5   8
ENDBRANCH   1   5
BRANCH   3  12
ATOM     12  C   UNL     1       2.324   5.067  19.343  0.00  0.00    +0.000 C 
ATOM     13  C   UNL     1       2.725   6.230  19.883  0.00  0.00    +0.000 C 
BRANCH  13  14
ATOM     14  C   UNL     1       2.121   7.529  19.592  0.00  0.00    +0.000 A 
ATOM     15  C   UNL     1       2.190   8.047  18.299  0.00  0.00    +0.000 A 
ATOM     16  C   UNL     1       1.529   9.237  17.980  0.00  0.00    +0.000 A 
ATOM     17  C   UNL     1       0.779   9.924  18.947  0.00  0.00    +0.000 A 
ATOM     18  C   UNL     1       0.085  11.103  18.629  0.00  0.00    +0.000 A 
ATOM     19  C   UNL     1      -0.685  11.760  19.592  0.00  0.00    +0.000 A 
ATOM     20  C   UNL     1      -0.767  11.247  20.882  0.00  0.00    +0.000 A 
ATOM     21  C   UNL     1      -0.071  10.082  21.217  0.00  0.00    +0.000 A 
ATOM     22  C   UNL     1       0.709   9.407  20.261  0.00  0.00    +0.000 A 
ATOM     23  C   UNL     1       1.397   8.218  20.573  0.00  0.00    +0.000 A 
ENDBRANCH  13  14
ENDBRANCH   3  12
BRANCH   3  24
ATOM     24  O   UNL     1       2.205   2.948  20.519  0.00  0.00    +0.000 OA
ATOM     25  C   UNL     1       2.163   3.276  21.904  0.00  0.00    +0.000 C 
ENDBRANCH   3  24
TORSDOF 7
ENDMDL
MODEL 4
REMARK VINA RESULT:      -7.2      1.530      3.552
REMARK  Name = 
REMARK  11 active torsions:
REMARK  status: ('A' for Active; 'I' for Inactive)
REMARK    1  A    between atoms: C_1  and  O_2
REMARK    2  A    between atoms: O_2  and  C_3
REMARK    3  A    between atoms: C_4  and  C_5
REMARK    4  A    between atoms: C_4  and  C_9
REMARK    5  A    between atoms: C_5  and  O_7
REMARK    6  A    between atoms: O_7  and  C_8
REMARK    7  A    between atoms: C_9  and  C_10
REMARK    8  A    between atoms: C_11  and  C_12
REMARK    9  A    between atoms: C_11  and  O_24
REMARK   10  A    between atoms: C_13  and  C_14
REMARK   11  A    between atoms: O_24  and  C_25
REMARK                            x       y       z     vdW  Elec       q    Type
REMARK                         _______ _______ _______ _____ _____    ______ ____
ROOT
ATOM      1  C   UNL     1       4.462   4.497  17.262  0.00  0.00    +0.000 C 
ATOM      2  C   UNL     1       4.874   3.092  16.886  0.00  0.00    +0.000 C 
ATOM      3  C   UNL     1       3.204   4.713  17.713  0.00  0.00    +0.000 C 
ENDROOT
BRANCH   1   5
ATOM      4  C   UNL     1       6.274   6.034  17.995  0.00  0.00    +0.000 C 
ATOM      5  C   UNL     1       5.479   5.526  17.032  0.00  0.00    +0.000 C 
BRANCH   4   7
ATOM      6  C   UNL     1       7.546   5.459  19.845  0.00  0.00    +0.000 C 
ATOM      7  O   UNL     1       6.235   5.646  19.313  0.00  0.00    +0.000 OA
ENDBRANCH   4   7
BRANCH   5   8
ATOM      8  C   UNL     1       5.657   6.205  15.704  0.00  0.00    +0.000 C 
ATOM      9  O   UNL     1       4.846   6.979  15.214  0.00  0.00    +0.000 OA
BRANCH   8  10
ATOM     10  O   UNL     1       6.792   5.770  15.095  0.00  0.00    +0.000 OA
ATOM     11  C   UNL     1       6.626   4.744  14.110  0.00  0.00    +0.000 C 
ENDBRANCH   8  10
ENDBRANCH   5   8
ENDBRANCH   1   5
BRANCH   3  12
ATOM     12  C   UNL     1       2.656   6.020  18.046  0.00  0.00    +0.000 C 
ATOM     13  C   UNL     1       2.485   6.421  19.316  0.00  0.00    +0.000 C 
BRANCH  13  14
ATOM     14  C   UNL     1       1.910   7.706  19.710  0.00  0.00    +0.000 A 
ATOM     15  C   UNL     1       1.817   8.735  18.772  0.00  0.00    +0.000 A 
ATOM     16  C   UNL     1       1.176   9.933  19.102  0.00  0.00    +0.000 A 
ATOM     17  C   UNL     1       0.608  10.118  20.372  0.00  0.00    +0.000 A 
ATOM     18  C   UNL     1      -0.066  11.306  20.704  0.00  0.00    +0.000 A 
ATOM     19  C   UNL     1      -0.656  11.465  21.959  0.00  0.00    +0.000 A 
ATOM     20  C   UNL     1      -0.576  10.441  22.897  0.00  0.00    +0.000 A 
ATOM     21  C   UNL     1       0.103   9.260  22.588  0.00  0.00    +0.000 A 
ATOM     22  C   UNL     1       0.703   9.081  21.328  0.00  0.00    +0.000 A 
ATOM     23  C   UNL     1       1.370   7.888  20.988  0.00  0.00    +0.000 A 
ENDBRANCH  13  14
ENDBRANCH   3  12
BRANCH   3  24
ATOM     24  O   UNL     1       2.312   3.643  17.707  0.00  0.00    +0.000 OA
ATOM     25  C   UNL     1       2.087   2.990  18.953  0.00  0.00    +0.000 C 
ENDBRANCH   3  24
TORSDOF 7
ENDMDL
MODEL 5
REMARK VINA RESULT:      -7.0      2.282      3.924
REMARK  Name = 
REMARK  11 active torsions:
REMARK  status: ('A' for Active; 'I' for Inactive)
REMARK    1  A    between atoms: C_1  and  O_2
REMARK    2  A    between atoms: O_2  and  C_3
REMARK    3  A    between atoms: C_4  and  C_5
REMARK    4  A    between atoms: C_4  and  C_9
REMARK    5  A    between atoms: C_5  and  O_7
REMARK    6  A    between atoms: O_7  and  C_8
REMARK    7  A    between atoms: C_9  and  C_10
REMARK    8  A    between atoms: C_11  and  C_12
REMARK    9  A    between atoms: C_11  and  O_24
REMARK   10  A    between atoms: C_13  and  C_14
REMARK   11  A    between atoms: O_24  and  C_25
REMARK                            x       y       z     vdW  Elec       q    Type
REMARK                         _______ _______ _______ _____ _____    ______ ____
ROOT
ATOM      1  C   UNL     1       6.629   5.737  16.746  0.00  0.00    +0.000 C 
ATOM      2  C   UNL     1       7.491   4.780  15.956  0.00  0.00    +0.000 C 
ATOM      3  C   UNL     1       5.503   6.228  16.176  0.00  0.00    +0.000 C 
ENDROOT
BRANCH   1   5
ATOM      4  C   UNL     1       7.860   7.218  18.318  0.00  0.00    +0.000 C 
ATOM      5  C   UNL     1       7.150   6.099  18.066  0.00  0.00    +0.000 C 
BRANCH   4   7
ATOM      6  C   UNL     1       8.307   9.460  17.944  0.00  0.00    +0.000 C 
ATOM      7  O   UNL     1       8.180   8.160  17.370  0.00  0.00    +0.000 OA
ENDBRANCH   4   7
BRANCH   5   8
ATOM      8  C   UNL     1       7.037   5.193  19.257  0.00  0.00    +0.000 C 
ATOM      9  O   UNL     1       7.636   5.365  20.311  0.00  0.00    +0.000 OA
BRANCH   8  10
ATOM     10  O   UNL     1       6.255   4.120  18.967  0.00  0.00    +0.000 OA
ATOM     11  C   UNL     1       4.930   4.140  19.509  0.00  0.00    +0.000 C 
ENDBRANCH   8  10
ENDBRANCH   5   8
ENDBRANCH   1   5
BRANCH   3  12
ATOM     12  C   UNL     1       4.619   7.205  16.796  0.00  0.00    +0.000 C 
ATOM     13  C   UNL     1       3.677   6.853  17.686  0.00  0.00    +0.000 C 
BRANCH  13  14
ATOM     14  C   UNL     1       2.742   7.785  18.315  0.00  0.00    +0.000 A 
ATOM     15  C   UNL     1       2.186   8.818  17.560  0.00  0.00    +0.000 A 
ATOM     16  C   UNL     1       1.212   9.653  18.117  0.00  0.00    +0.000 A 
ATOM     17  C   UNL     1       0.770   9.461  19.434  0.00  0.00    +0.000 A 
ATOM     18  C   UNL     1      -0.231  10.274  19.993  0.00  0.00    +0.000 A 
ATOM     19  C   UNL     1      -0.686  10.052  21.295  0.00  0.00    +0.000 A 
ATOM     20  C   UNL     1      -0.145   9.019  22.052  0.00  0.00    +0.000 A 
ATOM     21  C   UNL     1       0.860   8.211  21.515  0.00  0.00    +0.000 A 
ATOM     22  C   UNL     1       1.332   8.419  20.206  0.00  0.00    +0.000 A 
ATOM     23  C   UNL     1       2.327   7.599  19.639  0.00  0.00    +0.000 A 
ENDBRANCH  13  14
ENDBRANCH   3  12
BRANCH   3  24
ATOM     24  O   UNL     1       5.248   5.908  14.845  0.00  0.00    +0.000 OA
ATOM     25  C   UNL     1       4.998   4.537  14.551  0.00  0.00    +0.000 C 
ENDBRANCH   3  24
TORSDOF 7
ENDMDL
MODEL 6
REMARK VINA RESULT:      -7.0      1.513      3.814
REMARK  Name = 
REMARK  11 active torsions:
REMARK  status: ('A' for Active; 'I' for Inactive)
REMARK    1  A    between atoms: C_1  and  O_2
REMARK    2  A    between atoms: O_2  and  C_3
REMARK    3  A    between atoms: C_4  and  C_5
REMARK    4  A    between atoms: C_4  and  C_9
REMARK    5  A    between atoms: C_5  and  O_7
REMARK    6  A    between atoms: O_7  and  C_8
REMARK    7  A    between atoms: C_9  and  C_10
REMARK    8  A    between atoms: C_11  and  C_12
REMARK    9  A    between atoms: C_11  and  O_24
REMARK   10  A    between atoms: C_13  and  C_14
REMARK   11  A    between atoms: O_24  and  C_25
REMARK                            x       y       z     vdW  Elec       q    Type
REMARK                         _______ _______ _______ _____ _____    ______ ____
ROOT
ATOM      1  C   UNL     1       3.937   3.410  19.670  0.00  0.00    +0.000 C 
ATOM      2  C   UNL     1       4.567   2.108  20.107  0.00  0.00    +0.000 C 
ATOM      3  C   UNL     1       2.982   3.971  20.449  0.00  0.00    +0.000 C 
ENDROOT
BRANCH   1   5
ATOM      4  C   UNL     1       3.652   3.876  17.243  0.00  0.00    +0.000 C 
ATOM      5  C   UNL     1       4.390   3.917  18.372  0.00  0.00    +0.000 C 
BRANCH   4   7
ATOM      6  C   UNL     1       2.367   1.958  17.433  0.00  0.00    +0.000 C 
ATOM      7  O   UNL     1       2.381   3.360  17.170  0.00  0.00    +0.000 OA
ENDBRANCH   4   7
BRANCH   5   8
ATOM      8  C   UNL     1       5.781   4.434  18.147  0.00  0.00    +0.000 C 
ATOM      9  O   UNL     1       6.515   4.841  19.038  0.00  0.00    +0.000 OA
BRANCH   8  10
ATOM     10  O   UNL     1       6.068   4.467  16.818  0.00  0.00    +0.000 OA
ATOM     11  C   UNL     1       6.731   5.645  16.345  0.00  0.00    +0.000 C 
ENDBRANCH   8  10
ENDBRANCH   5   8
ENDBRANCH   1   5
BRANCH   3  12
ATOM     12  C   UNL     1       2.247   5.183  20.116  0.00  0.00    +0.000 C 
ATOM     13  C   UNL     1       2.864   6.356  19.899  0.00  0.00    +0.000 C 
BRANCH  13  14
ATOM     14  C   UNL     1       2.178   7.610  19.595  0.00  0.00    +0.000 A 
ATOM     15  C   UNL     1       2.173   8.093  18.286  0.00  0.00    +0.000 A 
ATOM     16  C   UNL     1       1.434   9.234  17.958  0.00  0.00    +0.000 A 
ATOM     17  C   UNL     1       0.679   9.905  18.932  0.00  0.00    +0.000 A 
ATOM     18  C   UNL     1      -0.092  11.034  18.607  0.00  0.00    +0.000 A 
ATOM     19  C   UNL     1      -0.866  11.673  19.578  0.00  0.00    +0.000 A 
ATOM     20  C   UNL     1      -0.875  11.194  20.883  0.00  0.00    +0.000 A 
ATOM     21  C   UNL     1      -0.103  10.081  21.225  0.00  0.00    +0.000 A 
ATOM     22  C   UNL     1       0.682   9.423  20.261  0.00  0.00    +0.000 A 
ATOM     23  C   UNL     1       1.448   8.285  20.581  0.00  0.00    +0.000 A 
ENDBRANCH  13  14
ENDBRANCH   3  12
BRANCH   3  24
ATOM     24  O   UNL     1       2.549   3.263  21.568  0.00  0.00    +0.000 OA
ATOM     25  C   UNL     1       1.256   2.670  21.490  0.00  0.00    +0.000 C 
ENDBRANCH   3  24
TORSDOF 7
ENDMDL
MODEL 7
REMARK VINA RESULT:      -7.0      1.560      3.508
REMARK  Name = 
REMARK  11 active torsions:
REMARK  status: ('A' for Active; 'I' for Inactive)
REMARK    1  A    between atoms: C_1  and  O_2
REMARK    2  A    between atoms: O_2  and  C_3
REMARK    3  A    between atoms: C_4  and  C_5
REMARK    4  A    between atoms: C_4  and  C_9
REMARK    5  A    between atoms: C_5  and  O_7
REMARK    6  A    between atoms: O_7  and  C_8
REMARK    7  A    between atoms: C_9  and  C_10
REMARK    8  A    between atoms: C_11  and  C_12
REMARK    9  A    between atoms: C_11  and  O_24
REMARK   10  A    between atoms: C_13  and  C_14
REMARK   11  A    between atoms: O_24  and  C_25
REMARK                            x       y       z     vdW  Elec       q    Type
REMARK                         _______ _______ _______ _____ _____    ______ ____
ROOT
ATOM      1  C   UNL     1       4.276   4.050  18.532  0.00  0.00    +0.000 C 
ATOM      2  C   UNL     1       4.696   2.617  18.761  0.00  0.00    +0.000 C 
ATOM      3  C   UNL     1       3.049   4.448  18.943  0.00  0.00    +0.000 C 
ENDROOT
BRANCH   1   5
ATOM      4  C   UNL     1       6.318   5.460  18.374  0.00  0.00    +0.000 C 
ATOM      5  C   UNL     1       5.245   4.874  17.805  0.00  0.00    +0.000 C 
BRANCH   4   7
ATOM      6  C   UNL     1       8.033   5.567  19.928  0.00  0.00    +0.000 C 
ATOM      7  O   UNL     1       6.640   5.354  19.706  0.00  0.00    +0.000 OA
ENDBRANCH   4   7
BRANCH   5   8
ATOM      8  C   UNL     1       5.072   5.241  16.359  0.00  0.00    +0.000 C 
ATOM      9  O   UNL     1       4.891   6.383  15.958  0.00  0.00    +0.000 OA
BRANCH   8  10
ATOM     10  O   UNL     1       5.056   4.126  15.583  0.00  0.00    +0.000 OA
ATOM     11  C   UNL     1       6.079   4.038  14.585  0.00  0.00    +0.000 C 
ENDBRANCH   8  10
ENDBRANCH   5   8
ENDBRANCH   1   5
BRANCH   3  12
ATOM     12  C   UNL     1       2.492   5.777  18.726  0.00  0.00    +0.000 C 
ATOM     13  C   UNL     1       2.435   6.695  19.704  0.00  0.00    +0.000 C 
BRANCH  13  14
ATOM     14  C   UNL     1       1.859   8.031  19.554  0.00  0.00    +0.000 A 
ATOM     15  C   UNL     1       1.938   8.681  18.323  0.00  0.00    +0.000 A 
ATOM     16  C   UNL     1       1.303   9.911  18.133  0.00  0.00    +0.000 A 
ATOM     17  C   UNL     1       0.568  10.507  19.169  0.00  0.00    +0.000 A 
ATOM     18  C   UNL     1      -0.101  11.729  18.980  0.00  0.00    +0.000 A 
ATOM     19  C   UNL     1      -0.856  12.296  20.008  0.00  0.00    +0.000 A 
ATOM     20  C   UNL     1      -0.949  11.651  21.237  0.00  0.00    +0.000 A 
ATOM     21  C   UNL     1      -0.278  10.443  21.445  0.00  0.00    +0.000 A 
ATOM     22  C   UNL     1       0.487   9.856  20.421  0.00  0.00    +0.000 A 
ATOM     23  C   UNL     1       1.151   8.627  20.604  0.00  0.00    +0.000 A 
ENDBRANCH  13  14
ENDBRANCH   3  12
BRANCH   3  24
ATOM     24  O   UNL     1       2.187   3.486  19.465  0.00  0.00    +0.000 OA
ATOM     25  C   UNL     1       1.092   3.093  18.643  0.00  0.00    +0.000 C 
ENDBRANCH   3  24
TORSDOF 7
ENDMDL
MODEL 8
REMARK VINA RESULT:      -7.0      3.116      7.659
REMARK  Name = 
REMARK  11 active torsions:
REMARK  status: ('A' for Active; 'I' for Inactive)
REMARK    1  A    between atoms: C_1  and  O_2
REMARK    2  A    between atoms: O_2  and  C_3
REMARK    3  A    between atoms: C_4  and  C_5
REMARK    4  A    between atoms: C_4  and  C_9
REMARK    5  A    between atoms: C_5  and  O_7
REMARK    6  A    between atoms: O_7  and  C_8
REMARK    7  A    between atoms: C_9  and  C_10
REMARK    8  A    between atoms: C_11  and  C_12
REMARK    9  A    between atoms: C_11  and  O_24
REMARK   10  A    between atoms: C_13  and  C_14
REMARK   11  A    between atoms: O_24  and  C_25
REMARK                            x       y       z     vdW  Elec       q    Type
REMARK                         _______ _______ _______ _____ _____    ______ ____
ROOT
ATOM      1  C   UNL     1      -0.056  10.826  20.346  0.00  0.00    +0.000 C 
ATOM      2  C   UNL     1      -0.195  12.243  20.851  0.00  0.00    +0.000 C 
ATOM      3  C   UNL     1       0.294   9.850  21.218  0.00  0.00    +0.000 C 
ENDROOT
BRANCH   1   5
ATOM      4  C   UNL     1       0.740  10.670  17.995  0.00  0.00    +0.000 C 
ATOM      5  C   UNL     1      -0.256  10.655  18.905  0.00  0.00    +0.000 C 
BRANCH   4   7
ATOM      6  C   UNL     1       2.476  12.198  18.136  0.00  0.00    +0.000 C 
ATOM      7  O   UNL     1       2.068  10.842  18.306  0.00  0.00    +0.000 OA
ENDBRANCH   4   7
BRANCH   5   8
ATOM      8  C   UNL     1      -1.619  10.559  18.283  0.00  0.00    +0.000 C 
ATOM      9  O   UNL     1      -2.630  11.054  18.764  0.00  0.00    +0.000 OA
BRANCH   8  10
ATOM     10  O   UNL     1      -1.582   9.776  17.172  0.00  0.00    +0.000 OA
ATOM     11  C   UNL     1      -2.582  10.039  16.182  0.00  0.00    +0.000 C 
ENDBRANCH   8  10
ENDBRANCH   5   8
ENDBRANCH   1   5
BRANCH   3  12
ATOM     12  C   UNL     1       0.528   8.459  20.855  0.00  0.00    +0.000 C 
ATOM     13  C   UNL     1       1.749   7.999  20.539  0.00  0.00    +0.000 C 
BRANCH  13  14
ATOM     14  C   UNL     1       2.038   6.623  20.137  0.00  0.00    +0.000 A 
ATOM     15  C   UNL     1       1.381   5.568  20.769  0.00  0.00    +0.000 A 
ATOM     16  C   UNL     1       1.567   4.255  20.327  0.00  0.00    +0.000 A 
ATOM     17  C   UNL     1       2.405   3.977  19.236  0.00  0.00    +0.000 A 
ATOM     18  C   UNL     1       2.574   2.664  18.763  0.00  0.00    +0.000 A 
ATOM     19  C   UNL     1       3.385   2.404  17.657  0.00  0.00    +0.000 A 
ATOM     20  C   UNL     1       4.037   3.450  17.013  0.00  0.00    +0.000 A 
ATOM     21  C   UNL     1       3.890   4.758  17.480  0.00  0.00    +0.000 A 
ATOM     22  C   UNL     1       3.077   5.041  18.593  0.00  0.00    +0.000 A 
ATOM     23  C   UNL     1       2.897   6.356  19.064  0.00  0.00    +0.000 A 
ENDBRANCH  13  14
ENDBRANCH   3  12
BRANCH   3  24
ATOM     24  O   UNL     1       0.614  10.220  22.522  0.00  0.00    +0.000 OA
ATOM     25  C   UNL     1      -0.134   9.603  23.565  0.00  0.00    +0.000 C 
ENDBRANCH   3  24
TORSDOF 7
ENDMDL
MODEL 9
REMARK VINA RESULT:      -6.9      1.504      3.772
REMARK  Name = 
REMARK  11 active torsions:
REMARK  status: ('A' for Active; 'I' for Inactive)
REMARK    1  A    between atoms: C_1  and  O_2
REMARK    2  A    between atoms: O_2  and  C_3
REMARK    3  A    between atoms: C_4  and  C_5
REMARK    4  A    between atoms: C_4  and  C_9
REMARK    5  A    between atoms: C_5  and  O_7
REMARK    6  A    between atoms: O_7  and  C_8
REMARK    7  A    between atoms: C_9  and  C_10
REMARK    8  A    between atoms: C_11  and  C_12
REMARK    9  A    between atoms: C_11  and  O_24
REMARK   10  A    between atoms: C_13  and  C_14
REMARK   11  A    between atoms: O_24  and  C_25
REMARK                            x       y       z     vdW  Elec       q    Type
REMARK                         _______ _______ _______ _____ _____    ______ ____
ROOT
ATOM      1  C   UNL     1       3.939   3.342  19.618  0.00  0.00    +0.000 C 
ATOM      2  C   UNL     1       4.475   1.946  19.842  0.00  0.00    +0.000 C 
ATOM      3  C   UNL     1       3.122   3.888  20.549  0.00  0.00    +0.000 C 
ENDROOT
BRANCH   1   5
ATOM      4  C   UNL     1       3.587   3.871  17.214  0.00  0.00    +0.000 C 
ATOM      5  C   UNL     1       4.319   3.957  18.344  0.00  0.00    +0.000 C 
BRANCH   4   7
ATOM      6  C   UNL     1       1.283   4.065  17.365  0.00  0.00    +0.000 C 
ATOM      7  O   UNL     1       2.391   3.201  17.118  0.00  0.00    +0.000 OA
ENDBRANCH   4   7
BRANCH   5   8
ATOM      8  C   UNL     1       5.632   4.657  18.143  0.00  0.00    +0.000 C 
ATOM      9  O   UNL     1       6.129   4.882  17.047  0.00  0.00    +0.000 OA
BRANCH   8  10
ATOM     10  O   UNL     1       6.221   4.918  19.340  0.00  0.00    +0.000 OA
ATOM     11  C   UNL     1       7.415   5.707  19.296  0.00  0.00    +0.000 C 
ENDBRANCH   8  10
ENDBRANCH   5   8
ENDBRANCH   1   5
BRANCH   3  12
ATOM     12  C   UNL     1       2.484   5.192  20.430  0.00  0.00    +0.000 C 
ATOM     13  C   UNL     1       2.888   6.105  19.532  0.00  0.00    +0.000 C 
BRANCH  13  14
ATOM     14  C   UNL     1       2.308   7.440  19.389  0.00  0.00    +0.000 A 
ATOM     15  C   UNL     1       2.413   8.109  18.170  0.00  0.00    +0.000 A 
ATOM     16  C   UNL     1       1.775   9.339  17.984  0.00  0.00    +0.000 A 
ATOM     17  C   UNL     1       1.011   9.915  19.011  0.00  0.00    +0.000 A 
ATOM     18  C   UNL     1       0.340  11.135  18.825  0.00  0.00    +0.000 A 
ATOM     19  C   UNL     1      -0.443  11.682  19.843  0.00  0.00    +0.000 A 
ATOM     20  C   UNL     1      -0.561  11.017  21.059  0.00  0.00    +0.000 A 
ATOM     21  C   UNL     1       0.111   9.810  21.265  0.00  0.00    +0.000 A 
ATOM     22  C   UNL     1       0.904   9.244  20.250  0.00  0.00    +0.000 A 
ATOM     23  C   UNL     1       1.570   8.016  20.430  0.00  0.00    +0.000 A 
ENDBRANCH  13  14
ENDBRANCH   3  12
BRANCH   3  24
ATOM     24  O   UNL     1       2.726   3.093  21.623  0.00  0.00    +0.000 OA
ATOM     25  C   UNL     1       1.350   2.732  21.680  0.00  0.00    +0.000 C 
ENDBRANCH   3  24
TORSDOF 7
ENDMDL
