MODEL 1
REMARK VINA RESULT:      -6.8      0.000      0.000
REMARK  Name = 
REMARK  7 active torsions:
REMARK  status: ('A' for Active; 'I' for Inactive)
REMARK    1  A    between atoms: C_1  and  C_2
REMARK    2  A    between atoms: C_3  and  C_4
REMARK    3  A    between atoms: C_11  and  S_12
REMARK    4  A    between atoms: S_12  and  N_15
REMARK    5  A    between atoms: N_15  and  C_16
REMARK    6  A    between atoms: C_23  and  C_24
REMARK    7  A    between atoms: N_25  and  C_26
REMARK                            x       y       z     vdW  Elec       q    Type
REMARK                         _______ _______ _______ _____ _____    ______ ____
ROOT
ATOM      1  C   UNL     1       4.838   1.796  20.122  0.00  0.00    +0.000 C 
ATOM      2  C   UNL     1       4.010   3.023  19.902  0.00  0.00    +0.000 A 
ATOM      3  C   UNL     1       4.340   4.251  19.326  0.00  0.00    +0.000 A 
ATOM      4  C   UNL     1       3.128   5.022  19.293  0.00  0.00    +0.000 A 
ATOM      5  C   UNL     1       2.131   4.283  19.928  0.00  0.00    +0.000 A 
ATOM      6  C   UNL     1       0.705   4.600  20.235  0.00  0.00    +0.000 C 
ATOM      7  N   UNL     1       2.686   3.072  20.281  0.00  0.00    +0.000 N 
ATOM      8  C   UNL     1       2.008   1.986  20.960  0.00  0.00    +0.000 C 
ENDROOT
BRANCH   3   9
ATOM      9  C   UNL     1       5.650   4.613  18.776  0.00  0.00    +0.000 C 
ATOM     10  O   UNL     1       6.524   5.088  19.495  0.00  0.00    +0.000 OA
ATOM     11  N   UNL     1       5.828   4.450  17.403  0.00  0.00    +0.000 N 
ATOM     12  C   UNL     1       7.084   4.770  16.762  0.00  0.00    +0.000 C 
ATOM     13  C   UNL     1       6.684   5.016  15.317  0.00  0.00    +0.000 C 
ATOM     14  C   UNL     1       5.497   4.083  15.085  0.00  0.00    +0.000 C 
ATOM     15  C   UNL     1       4.989   3.708  16.477  0.00  0.00    +0.000 C 
ENDBRANCH   3   9
BRANCH   4  16
ATOM     16  S   UNL     1       2.967   6.612  18.590  0.00  0.00    +0.000 S 
ATOM     17  O   UNL     1       4.162   6.810  17.795  0.00  0.00    +0.000 OA
ATOM     18  O   UNL     1       1.678   6.634  17.935  0.00  0.00    +0.000 OA
BRANCH  16  19
ATOM     19  N   UNL     1       2.954   7.797  19.816  0.00  0.00    +0.000 N 
ATOM     20  H   UNL     1       3.394   7.384  20.639  0.00  0.00    +0.000 HD
BRANCH  19  21
ATOM     21  C   UNL     1       1.696   8.420  20.092  0.00  0.00    +0.000 A 
ATOM     22  C   UNL     1       1.003   8.038  21.241  0.00  0.00    +0.000 A 
ATOM     23  C   UNL     1      -0.198   8.664  21.578  0.00  0.00    +0.000 A 
ATOM     24  C   UNL     1      -0.704   9.682  20.770  0.00  0.00    +0.000 A 
ATOM     25  C   UNL     1      -0.007  10.061  19.622  0.00  0.00    +0.000 A 
ATOM     26 BR   UNL     1      -0.683  11.459  18.542  0.00  0.00    +0.000 Br
ATOM     27  C   UNL     1       1.189   9.431  19.272  0.00  0.00    +0.000 A 
ENDBRANCH  19  21
ENDBRANCH  16  19
ENDBRANCH   4  16
TORSDOF 4
ENDMDL
MODEL 2
REMARK VINA RESULT:      -6.7      3.002      6.483
REMARK  Name = 
REMARK  7 active torsions:
REMARK  status: ('A' for Active; 'I' for Inactive)
REMARK    1  A    between atoms: C_1  and  C_2
REMARK    2  A    between atoms: C_3  and  C_4
REMARK    3  A    between atoms: C_11  and  S_12
REMARK    4  A    between atoms: S_12  and  N_15
REMARK    5  A    between atoms: N_15  and  C_16
REMARK    6  A    between atoms: C_23  and  C_24
REMARK    7  A    between atoms: N_25  and  C_26
REMARK                            x       y       z     vdW  Elec       q    Type
REMARK                         _______ _______ _______ _____ _____    ______ ____
ROOT
ATOM      1  C   UNL     1       1.914   5.693  21.046  0.00  0.00    +0.000 C 
ATOM      2  C   UNL     1       2.608   6.306  19.870  0.00  0.00    +0.000 A 
ATOM      3  C   UNL     1       3.693   5.852  19.117  0.00  0.00    +0.000 A 
ATOM      4  C   UNL     1       3.870   6.800  18.052  0.00  0.00    +0.000 A 
ATOM      5  C   UNL     1       2.958   7.838  18.242  0.00  0.00    +0.000 A 
ATOM      6  C   UNL     1       2.727   9.105  17.490  0.00  0.00    +0.000 C 
ATOM      7  N   UNL     1       2.199   7.513  19.346  0.00  0.00    +0.000 N 
ATOM      8  C   UNL     1       1.122   8.304  19.905  0.00  0.00    +0.000 C 
ENDROOT
BRANCH   3   9
ATOM      9  C   UNL     1       4.419   4.598  19.333  0.00  0.00    +0.000 C 
ATOM     10  O   UNL     1       5.578   4.604  19.736  0.00  0.00    +0.000 OA
ATOM     11  N   UNL     1       3.756   3.416  19.002  0.00  0.00    +0.000 N 
ATOM     12  C   UNL     1       4.380   2.125  19.184  0.00  0.00    +0.000 C 
ATOM     13  C   UNL     1       3.626   1.235  18.211  0.00  0.00    +0.000 C 
ATOM     14  C   UNL     1       2.214   1.818  18.174  0.00  0.00    +0.000 C 
ATOM     15  C   UNL     1       2.339   3.234  18.735  0.00  0.00    +0.000 C 
ENDBRANCH   3   9
BRANCH   4  16
ATOM     16  S   UNL     1       5.043   6.660  16.766  0.00  0.00    +0.000 S 
ATOM     17  O   UNL     1       4.461   7.344  15.630  0.00  0.00    +0.000 OA
ATOM     18  O   UNL     1       6.295   7.142  17.308  0.00  0.00    +0.000 OA
BRANCH  16  19
ATOM     19  N   UNL     1       5.251   5.023  16.338  0.00  0.00    +0.000 N 
ATOM     20  H   UNL     1       5.794   4.583  17.083  0.00  0.00    +0.000 HD
BRANCH  19  21
ATOM     21  C   UNL     1       5.764   4.763  15.027  0.00  0.00    +0.000 A 
ATOM     22  C   UNL     1       7.087   5.108  14.751  0.00  0.00    +0.000 A 
ATOM     23  C   UNL     1       7.643   4.817  13.505  0.00  0.00    +0.000 A 
ATOM     24  C   UNL     1       6.879   4.170  12.534  0.00  0.00    +0.000 A 
ATOM     25  C   UNL     1       5.556   3.826  12.816  0.00  0.00    +0.000 A 
ATOM     26 BR   UNL     1       4.529   2.927  11.506  0.00  0.00    +0.000 Br
ATOM     27  C   UNL     1       4.989   4.126  14.056  0.00  0.00    +0.000 A 
ENDBRANCH  19  21
ENDBRANCH  16  19
ENDBRANCH   4  16
TORSDOF 4
ENDMDL
MODEL 3
REMARK VINA RESULT:      -6.7      2.042      2.944
REMARK  Name = 
REMARK  7 active torsions:
REMARK  status: ('A' for Active; 'I' for Inactive)
REMARK    1  A    between atoms: C_1  and  C_2
REMARK    2  A    between atoms: C_3  and  C_4
REMARK    3  A    between atoms: C_11  and  S_12
REMARK    4  A    between atoms: S_12  and  N_15
REMARK    5  A    between atoms: N_15  and  C_16
REMARK    6  A    between atoms: C_23  and  C_24
REMARK    7  A    between atoms: N_25  and  C_26
REMARK                            x       y       z     vdW  Elec       q    Type
REMARK                         _______ _______ _______ _____ _____    ______ ____
ROOT
ATOM      1  C   UNL     1       5.164   3.261  16.361  0.00  0.00    +0.000 C 
ATOM      2  C   UNL     1       4.276   3.519  17.538  0.00  0.00    +0.000 A 
ATOM      3  C   UNL     1       3.922   4.716  18.164  0.00  0.00    +0.000 A 
ATOM      4  C   UNL     1       2.969   4.373  19.183  0.00  0.00    +0.000 A 
ATOM      5  C   UNL     1       2.845   2.984  19.206  0.00  0.00    +0.000 A 
ATOM      6  C   UNL     1       2.051   2.074  20.084  0.00  0.00    +0.000 C 
ATOM      7  N   UNL     1       3.641   2.489  18.196  0.00  0.00    +0.000 N 
ATOM      8  C   UNL     1       3.813   1.092  17.850  0.00  0.00    +0.000 C 
ENDROOT
BRANCH   3   9
ATOM      9  C   UNL     1       4.370   6.054  17.768  0.00  0.00    +0.000 C 
ATOM     10  O   UNL     1       3.620   6.815  17.164  0.00  0.00    +0.000 OA
ATOM     11  N   UNL     1       5.693   6.389  18.051  0.00  0.00    +0.000 N 
ATOM     12  C   UNL     1       6.233   7.686  17.709  0.00  0.00    +0.000 C 
ATOM     13  C   UNL     1       7.729   7.431  17.635  0.00  0.00    +0.000 C 
ATOM     14  C   UNL     1       7.981   6.333  18.667  0.00  0.00    +0.000 C 
ATOM     15  C   UNL     1       6.616   5.701  18.939  0.00  0.00    +0.000 C 
ENDBRANCH   3   9
BRANCH   4  16
ATOM     16  S   UNL     1       2.139   5.516  20.209  0.00  0.00    +0.000 S 
ATOM     17  O   UNL     1       0.755   5.490  19.782  0.00  0.00    +0.000 OA
ATOM     18  O   UNL     1       2.460   5.143  21.570  0.00  0.00    +0.000 OA
BRANCH  16  19
ATOM     19  N   UNL     1       2.739   7.089  19.940  0.00  0.00    +0.000 N 
ATOM     20  H   UNL     1       3.575   7.195  20.515  0.00  0.00    +0.000 HD
BRANCH  19  21
ATOM     21  C   UNL     1       1.805   8.165  20.083  0.00  0.00    +0.000 A 
ATOM     22  C   UNL     1       1.436   8.880  18.943  0.00  0.00    +0.000 A 
ATOM     23  C   UNL     1       0.484   9.896  19.030  0.00  0.00    +0.000 A 
ATOM     24  C   UNL     1      -0.110  10.193  20.257  0.00  0.00    +0.000 A 
ATOM     25  C   UNL     1       0.263   9.474  21.394  0.00  0.00    +0.000 A 
ATOM     26 BR   UNL     1      -0.560   9.863  23.051  0.00  0.00    +0.000 Br
ATOM     27  C   UNL     1       1.225   8.464  21.317  0.00  0.00    +0.000 A 
ENDBRANCH  19  21
ENDBRANCH  16  19
ENDBRANCH   4  16
TORSDOF 4
ENDMDL
MODEL 4
REMARK VINA RESULT:      -6.6      6.208      8.908
REMARK  Name = 
REMARK  7 active torsions:
REMARK  status: ('A' for Active; 'I' for Inactive)
REMARK    1  A    between atoms: C_1  and  C_2
REMARK    2  A    between atoms: C_3  and  C_4
REMARK    3  A    between atoms: C_11  and  S_12
REMARK    4  A    between atoms: S_12  and  N_15
REMARK    5  A    between atoms: N_15  and  C_16
REMARK    6  A    between atoms: C_23  and  C_24
REMARK    7  A    between atoms: N_25  and  C_26
REMARK                            x       y       z     vdW  Elec       q    Type
REMARK                         _______ _______ _______ _____ _____    ______ ____
ROOT
ATOM      1  C   UNL     1       1.371  10.208  18.573  0.00  0.00    +0.000 C 
ATOM      2  C   UNL     1       0.733  10.536  19.886  0.00  0.00    +0.000 A 
ATOM      3  C   UNL     1       0.079  11.693  20.316  0.00  0.00    +0.000 A 
ATOM      4  C   UNL     1      -0.414  11.412  21.636  0.00  0.00    +0.000 A 
ATOM      5  C   UNL     1       0.030  10.141  22.000  0.00  0.00    +0.000 A 
ATOM      6  C   UNL     1      -0.128   9.360  23.262  0.00  0.00    +0.000 C 
ATOM      7  N   UNL     1       0.716   9.627  20.921  0.00  0.00    +0.000 N 
ATOM      8  C   UNL     1       1.347   8.324  20.852  0.00  0.00    +0.000 C 
ENDROOT
BRANCH   3   9
ATOM      9  C   UNL     1      -0.136  12.901  19.514  0.00  0.00    +0.000 C 
ATOM     10  O   UNL     1      -1.079  12.976  18.732  0.00  0.00    +0.000 OA
ATOM     11  N   UNL     1       0.807  13.920  19.638  0.00  0.00    +0.000 N 
ATOM     12  C   UNL     1       0.684  15.156  18.897  0.00  0.00    +0.000 C 
ATOM     13  C   UNL     1       2.109  15.679  18.855  0.00  0.00    +0.000 C 
ATOM     14  C   UNL     1       2.732  15.198  20.164  0.00  0.00    +0.000 C 
ATOM     15  C   UNL     1       1.828  14.071  20.661  0.00  0.00    +0.000 C 
ENDBRANCH   3   9
BRANCH   4  16
ATOM     16  S   UNL     1      -1.384  12.499  22.598  0.00  0.00    +0.000 S 
ATOM     17  O   UNL     1      -2.290  11.653  23.349  0.00  0.00    +0.000 OA
ATOM     18  O   UNL     1      -0.453  13.340  23.318  0.00  0.00    +0.000 OA
BRANCH  16  19
ATOM     19  N   UNL     1      -2.323  13.499  21.586  0.00  0.00    +0.000 N 
ATOM     20  H   UNL     1      -2.139  14.465  21.862  0.00  0.00    +0.000 HD
BRANCH  19  21
ATOM     21  C   UNL     1      -3.717  13.187  21.491  0.00  0.00    +0.000 A 
ATOM     22  C   UNL     1      -4.190  12.615  20.310  0.00  0.00    +0.000 A 
ATOM     23  C   UNL     1      -5.530  12.241  20.199  0.00  0.00    +0.000 A 
ATOM     24  C   UNL     1      -6.398  12.429  21.274  0.00  0.00    +0.000 A 
ATOM     25  C   UNL     1      -5.919  13.002  22.454  0.00  0.00    +0.000 A 
ATOM     26 BR   UNL     1      -7.093  13.233  23.918  0.00  0.00    +0.000 Br
ATOM     27  C   UNL     1      -4.583  13.390  22.568  0.00  0.00    +0.000 A 
ENDBRANCH  19  21
ENDBRANCH  16  19
ENDBRANCH   4  16
TORSDOF 4
ENDMDL
MODEL 5
REMARK VINA RESULT:      -6.6      3.932      8.249
REMARK  Name = 
REMARK  7 active torsions:
REMARK  status: ('A' for Active; 'I' for Inactive)
REMARK    1  A    between atoms: C_1  and  C_2
REMARK    2  A    between atoms: C_3  and  C_4
REMARK    3  A    between atoms: C_11  and  S_12
REMARK    4  A    between atoms: S_12  and  N_15
REMARK    5  A    between atoms: N_15  and  C_16
REMARK    6  A    between atoms: C_23  and  C_24
REMARK    7  A    between atoms: N_25  and  C_26
REMARK                            x       y       z     vdW  Elec       q    Type
REMARK                         _______ _______ _______ _____ _____    ______ ____
ROOT
ATOM      1  C   UNL     1      -2.048  13.064  20.955  0.00  0.00    +0.000 C 
ATOM      2  C   UNL     1      -1.460  12.109  19.963  0.00  0.00    +0.000 A 
ATOM      3  C   UNL     1      -0.153  11.643  19.814  0.00  0.00    +0.000 A 
ATOM      4  C   UNL     1      -0.187  10.673  18.755  0.00  0.00    +0.000 A 
ATOM      5  C   UNL     1      -1.481  10.647  18.237  0.00  0.00    +0.000 A 
ATOM      6  C   UNL     1      -2.080   9.882  17.104  0.00  0.00    +0.000 C 
ATOM      7  N   UNL     1      -2.237  11.519  18.989  0.00  0.00    +0.000 N 
ATOM      8  C   UNL     1      -3.646  11.805  18.808  0.00  0.00    +0.000 C 
ENDROOT
BRANCH   3   9
ATOM      9  C   UNL     1       0.988  12.012  20.657  0.00  0.00    +0.000 C 
ATOM     10  O   UNL     1       1.300  11.328  21.627  0.00  0.00    +0.000 OA
ATOM     11  N   UNL     1       1.651  13.197  20.343  0.00  0.00    +0.000 N 
ATOM     12  C   UNL     1       2.793  13.649  21.107  0.00  0.00    +0.000 C 
ATOM     13  C   UNL     1       2.819  15.144  20.843  0.00  0.00    +0.000 C 
ATOM     14  C   UNL     1       2.273  15.291  19.423  0.00  0.00    +0.000 C 
ATOM     15  C   UNL     1       1.548  13.980  19.123  0.00  0.00    +0.000 C 
ENDBRANCH   3   9
BRANCH   4  16
ATOM     16  S   UNL     1       1.175   9.719  18.221  0.00  0.00    +0.000 S 
ATOM     17  O   UNL     1       0.650   8.820  17.213  0.00  0.00    +0.000 OA
ATOM     18  O   UNL     1       2.206  10.663  17.848  0.00  0.00    +0.000 OA
BRANCH  16  19
ATOM     19  N   UNL     1       1.769   8.772  19.508  0.00  0.00    +0.000 N 
ATOM     20  H   UNL     1       2.361   9.376  20.078  0.00  0.00    +0.000 HD
BRANCH  19  21
ATOM     21  C   UNL     1       2.388   7.530  19.157  0.00  0.00    +0.000 A 
ATOM     22  C   UNL     1       2.016   6.382  19.857  0.00  0.00    +0.000 A 
ATOM     23  C   UNL     1       2.551   5.141  19.507  0.00  0.00    +0.000 A 
ATOM     24  C   UNL     1       3.452   5.045  18.446  0.00  0.00    +0.000 A 
ATOM     25  C   UNL     1       3.820   6.197  17.749  0.00  0.00    +0.000 A 
ATOM     26 BR   UNL     1       5.024   6.060  16.297  0.00  0.00    +0.000 Br
ATOM     27  C   UNL     1       3.299   7.443  18.103  0.00  0.00    +0.000 A 
ENDBRANCH  19  21
ENDBRANCH  16  19
ENDBRANCH   4  16
TORSDOF 4
ENDMDL
MODEL 6
REMARK VINA RESULT:      -6.6      1.851      4.328
REMARK  Name = 
REMARK  7 active torsions:
REMARK  status: ('A' for Active; 'I' for Inactive)
REMARK    1  A    between atoms: C_1  and  C_2
REMARK    2  A    between atoms: C_3  and  C_4
REMARK    3  A    between atoms: C_11  and  S_12
REMARK    4  A    between atoms: S_12  and  N_15
REMARK    5  A    between atoms: N_15  and  C_16
REMARK    6  A    between atoms: C_23  and  C_24
REMARK    7  A    between atoms: N_25  and  C_26
REMARK                            x       y       z     vdW  Elec       q    Type
REMARK                         _______ _______ _______ _____ _____    ______ ____
ROOT
ATOM      1  C   UNL     1       5.642   2.940  16.032  0.00  0.00    +0.000 C 
ATOM      2  C   UNL     1       5.072   4.199  16.607  0.00  0.00    +0.000 A 
ATOM      3  C   UNL     1       3.858   4.435  17.255  0.00  0.00    +0.000 A 
ATOM      4  C   UNL     1       3.884   5.808  17.676  0.00  0.00    +0.000 A 
ATOM      5  C   UNL     1       5.060   6.383  17.196  0.00  0.00    +0.000 A 
ATOM      6  C   UNL     1       5.587   7.777  17.278  0.00  0.00    +0.000 C 
ATOM      7  N   UNL     1       5.767   5.388  16.558  0.00  0.00    +0.000 N 
ATOM      8  C   UNL     1       7.057   5.534  15.913  0.00  0.00    +0.000 C 
ENDROOT
BRANCH   3   9
ATOM      9  C   UNL     1       2.826   3.430  17.527  0.00  0.00    +0.000 C 
ATOM     10  O   UNL     1       2.074   3.044  16.637  0.00  0.00    +0.000 OA
ATOM     11  N   UNL     1       2.702   2.989  18.844  0.00  0.00    +0.000 N 
ATOM     12  C   UNL     1       1.721   1.995  19.218  0.00  0.00    +0.000 C 
ATOM     13  C   UNL     1       1.527   2.242  20.705  0.00  0.00    +0.000 C 
ATOM     14  C   UNL     1       2.889   2.731  21.192  0.00  0.00    +0.000 C 
ATOM     15  C   UNL     1       3.640   3.177  19.938  0.00  0.00    +0.000 C 
ENDBRANCH   3   9
BRANCH   4  16
ATOM     16  S   UNL     1       2.637   6.596  18.611  0.00  0.00    +0.000 S 
ATOM     17  O   UNL     1       1.383   6.072  18.108  0.00  0.00    +0.000 OA
ATOM     18  O   UNL     1       2.979   6.382  20.000  0.00  0.00    +0.000 OA
BRANCH  16  19
ATOM     19  N   UNL     1       2.657   8.275  18.317  0.00  0.00    +0.000 N 
ATOM     20  H   UNL     1       3.563   8.625  18.630  0.00  0.00    +0.000 HD
BRANCH  19  21
ATOM     21  C   UNL     1       1.547   9.027  18.819  0.00  0.00    +0.000 A 
ATOM     22  C   UNL     1       0.716   9.676  17.905  0.00  0.00    +0.000 A 
ATOM     23  C   UNL     1      -0.410  10.370  18.350  0.00  0.00    +0.000 A 
ATOM     24  C   UNL     1      -0.714  10.407  19.711  0.00  0.00    +0.000 A 
ATOM     25  C   UNL     1       0.120   9.755  20.620  0.00  0.00    +0.000 A 
ATOM     26 BR   UNL     1      -0.308   9.787  22.462  0.00  0.00    +0.000 Br
ATOM     27  C   UNL     1       1.256   9.070  20.184  0.00  0.00    +0.000 A 
ENDBRANCH  19  21
ENDBRANCH  16  19
ENDBRANCH   4  16
TORSDOF 4
ENDMDL
MODEL 7
REMARK VINA RESULT:      -6.6      1.569      4.081
REMARK  Name = 
REMARK  7 active torsions:
REMARK  status: ('A' for Active; 'I' for Inactive)
REMARK    1  A    between atoms: C_1  and  C_2
REMARK    2  A    between atoms: C_3  and  C_4
REMARK    3  A    between atoms: C_11  and  S_12
REMARK    4  A    between atoms: S_12  and  N_15
REMARK    5  A    between atoms: N_15  and  C_16
REMARK    6  A    between atoms: C_23  and  C_24
REMARK    7  A    between atoms: N_25  and  C_26
REMARK                            x       y       z     vdW  Elec       q    Type
REMARK                         _______ _______ _______ _____ _____    ______ ____
ROOT
ATOM      1  C   UNL     1       4.738   2.424  17.148  0.00  0.00    +0.000 C 
ATOM      2  C   UNL     1       4.500   3.899  17.246  0.00  0.00    +0.000 A 
ATOM      3  C   UNL     1       3.365   4.612  17.634  0.00  0.00    +0.000 A 
ATOM      4  C   UNL     1       3.737   6.000  17.628  0.00  0.00    +0.000 A 
ATOM      5  C   UNL     1       5.045   6.093  17.153  0.00  0.00    +0.000 A 
ATOM      6  C   UNL     1       5.920   7.271  16.883  0.00  0.00    +0.000 C 
ATOM      7  N   UNL     1       5.489   4.807  16.935  0.00  0.00    +0.000 N 
ATOM      8  C   UNL     1       6.799   4.427  16.445  0.00  0.00    +0.000 C 
ENDROOT
BRANCH   3   9
ATOM      9  C   UNL     1       2.090   4.026  18.059  0.00  0.00    +0.000 C 
ATOM     10  O   UNL     1       1.101   4.080  17.335  0.00  0.00    +0.000 OA
ATOM     11  N   UNL     1       2.044   3.467  19.336  0.00  0.00    +0.000 N 
ATOM     12  C   UNL     1       0.838   2.856  19.849  0.00  0.00    +0.000 C 
ATOM     13  C   UNL     1       1.025   2.930  21.355  0.00  0.00    +0.000 C 
ATOM     14  C   UNL     1       2.534   2.809  21.559  0.00  0.00    +0.000 C 
ATOM     15  C   UNL     1       3.161   3.133  20.203  0.00  0.00    +0.000 C 
ENDBRANCH   3   9
BRANCH   4  16
ATOM     16  S   UNL     1       2.705   7.320  18.120  0.00  0.00    +0.000 S 
ATOM     17  O   UNL     1       3.459   8.527  17.850  0.00  0.00    +0.000 OA
ATOM     18  O   UNL     1       1.442   7.117  17.445  0.00  0.00    +0.000 OA
BRANCH  16  19
ATOM     19  N   UNL     1       2.420   7.247  19.800  0.00  0.00    +0.000 N 
ATOM     20  H   UNL     1       2.190   6.279  20.025  0.00  0.00    +0.000 HD
BRANCH  19  21
ATOM     21  C   UNL     1       1.491   8.196  20.334  0.00  0.00    +0.000 A 
ATOM     22  C   UNL     1       0.980   7.976  21.613  0.00  0.00    +0.000 A 
ATOM     23  C   UNL     1       0.117   8.907  22.195  0.00  0.00    +0.000 A 
ATOM     24  C   UNL     1      -0.227  10.066  21.500  0.00  0.00    +0.000 A 
ATOM     25  C   UNL     1       0.287  10.281  20.220  0.00  0.00    +0.000 A 
ATOM     26 BR   UNL     1      -0.164  11.865  19.291  0.00  0.00    +0.000 Br
ATOM     27  C   UNL     1       1.140   9.348  19.628  0.00  0.00    +0.000 A 
ENDBRANCH  19  21
ENDBRANCH  16  19
ENDBRANCH   4  16
TORSDOF 4
ENDMDL
MODEL 8
REMARK VINA RESULT:      -6.6      3.869      8.332
REMARK  Name = 
REMARK  7 active torsions:
REMARK  status: ('A' for Active; 'I' for Inactive)
REMARK    1  A    between atoms: C_1  and  C_2
REMARK    2  A    between atoms: C_3  and  C_4
REMARK    3  A    between atoms: C_11  and  S_12
REMARK    4  A    between atoms: S_12  and  N_15
REMARK    5  A    between atoms: N_15  and  C_16
REMARK    6  A    between atoms: C_23  and  C_24
REMARK    7  A    between atoms: N_25  and  C_26
REMARK                            x       y       z     vdW  Elec       q    Type
REMARK                         _______ _______ _______ _____ _____    ______ ____
ROOT
ATOM      1  C   UNL     1      -2.876  13.089  20.898  0.00  0.00    +0.000 C 
ATOM      2  C   UNL     1      -1.814  12.038  20.806  0.00  0.00    +0.000 A 
ATOM      3  C   UNL     1      -1.135  11.526  19.698  0.00  0.00    +0.000 A 
ATOM      4  C   UNL     1      -0.160  10.605  20.212  0.00  0.00    +0.000 A 
ATOM      5  C   UNL     1      -0.336  10.516  21.592  0.00  0.00    +0.000 A 
ATOM      6  C   UNL     1       0.345   9.684  22.627  0.00  0.00    +0.000 C 
ATOM      7  N   UNL     1      -1.339  11.398  21.930  0.00  0.00    +0.000 N 
ATOM      8  C   UNL     1      -1.850  11.641  23.265  0.00  0.00    +0.000 C 
ENDROOT
BRANCH   3   9
ATOM      9  C   UNL     1      -1.331  11.946  18.308  0.00  0.00    +0.000 C 
ATOM     10  O   UNL     1      -0.753  12.933  17.862  0.00  0.00    +0.000 OA
ATOM     11  N   UNL     1      -2.240  11.213  17.546  0.00  0.00    +0.000 N 
ATOM     12  C   UNL     1      -2.500  11.539  16.161  0.00  0.00    +0.000 C 
ATOM     13  C   UNL     1      -3.877  10.947  15.918  0.00  0.00    +0.000 C 
ATOM     14  C   UNL     1      -3.930   9.717  16.823  0.00  0.00    +0.000 C 
ATOM     15  C   UNL     1      -2.818   9.916  17.853  0.00  0.00    +0.000 C 
ENDBRANCH   3   9
BRANCH   4  16
ATOM     16  S   UNL     1       1.018   9.748  19.248  0.00  0.00    +0.000 S 
ATOM     17  O   UNL     1       0.251   8.971  18.295  0.00  0.00    +0.000 OA
ATOM     18  O   UNL     1       1.940  10.747  18.756  0.00  0.00    +0.000 OA
BRANCH  16  19
ATOM     19  N   UNL     1       1.894   8.659  20.225  0.00  0.00    +0.000 N 
ATOM     20  H   UNL     1       2.762   9.124  20.490  0.00  0.00    +0.000 HD
BRANCH  19  21
ATOM     21  C   UNL     1       2.087   7.341  19.701  0.00  0.00    +0.000 A 
ATOM     22  C   UNL     1       2.762   7.201  18.488  0.00  0.00    +0.000 A 
ATOM     23  C   UNL     1       3.023   5.931  17.972  0.00  0.00    +0.000 A 
ATOM     24  C   UNL     1       2.619   4.796  18.675  0.00  0.00    +0.000 A 
ATOM     25  C   UNL     1       1.945   4.942  19.888  0.00  0.00    +0.000 A 
ATOM     26 BR   UNL     1       1.419   3.401  20.851  0.00  0.00    +0.000 Br
ATOM     27  C   UNL     1       1.669   6.210  20.404  0.00  0.00    +0.000 A 
ENDBRANCH  19  21
ENDBRANCH  16  19
ENDBRANCH   4  16
TORSDOF 4
ENDMDL
MODEL 9
REMARK VINA RESULT:      -6.6      5.867      9.496
REMARK  Name = 
REMARK  7 active torsions:
REMARK  status: ('A' for Active; 'I' for Inactive)
REMARK    1  A    between atoms: C_1  and  C_2
REMARK    2  A    between atoms: C_3  and  C_4
REMARK    3  A    between atoms: C_11  and  S_12
REMARK    4  A    between atoms: S_12  and  N_15
REMARK    5  A    between atoms: N_15  and  C_16
REMARK    6  A    between atoms: C_23  and  C_24
REMARK    7  A    between atoms: N_25  and  C_26
REMARK                            x       y       z     vdW  Elec       q    Type
REMARK                         _______ _______ _______ _____ _____    ______ ____
ROOT
ATOM      1  C   UNL     1      -0.353   9.812  22.929  0.00  0.00    +0.000 C 
ATOM      2  C   UNL     1       0.008  10.419  21.609  0.00  0.00    +0.000 A 
ATOM      3  C   UNL     1      -0.208  11.705  21.110  0.00  0.00    +0.000 A 
ATOM      4  C   UNL     1       0.433  11.753  19.825  0.00  0.00    +0.000 A 
ATOM      5  C   UNL     1       0.932  10.481  19.545  0.00  0.00    +0.000 A 
ATOM      6  C   UNL     1       1.634   9.933  18.348  0.00  0.00    +0.000 C 
ATOM      7  N   UNL     1       0.669   9.692  20.644  0.00  0.00    +0.000 N 
ATOM      8  C   UNL     1       1.019   8.293  20.794  0.00  0.00    +0.000 C 
ENDROOT
BRANCH   3   9
ATOM      9  C   UNL     1      -0.869  12.799  21.826  0.00  0.00    +0.000 C 
ATOM     10  O   UNL     1      -0.266  13.452  22.672  0.00  0.00    +0.000 OA
ATOM     11  N   UNL     1      -2.217  13.017  21.545  0.00  0.00    +0.000 N 
ATOM     12  C   UNL     1      -2.961  14.076  22.191  0.00  0.00    +0.000 C 
ATOM     13  C   UNL     1      -4.402  13.608  22.076  0.00  0.00    +0.000 C 
ATOM     14  C   UNL     1      -4.447  12.827  20.765  0.00  0.00    +0.000 C 
ATOM     15  C   UNL     1      -2.993  12.491  20.434  0.00  0.00    +0.000 C 
ENDBRANCH   3   9
BRANCH   4  16
ATOM     16  S   UNL     1       0.538  13.167  18.807  0.00  0.00    +0.000 S 
ATOM     17  O   UNL     1       1.802  13.052  18.108  0.00  0.00    +0.000 OA
ATOM     18  O   UNL     1      -0.687  13.201  18.038  0.00  0.00    +0.000 OA
BRANCH  16  19
ATOM     19  N   UNL     1       0.598  14.576  19.764  0.00  0.00    +0.000 N 
ATOM     20  H   UNL     1       0.275  14.320  20.698  0.00  0.00    +0.000 HD
BRANCH  19  21
ATOM     21  C   UNL     1      -0.047  15.739  19.234  0.00  0.00    +0.000 A 
ATOM     22  C   UNL     1      -1.220  16.184  19.844  0.00  0.00    +0.000 A 
ATOM     23  C   UNL     1      -1.847  17.348  19.396  0.00  0.00    +0.000 A 
ATOM     24  C   UNL     1      -1.295  18.076  18.343  0.00  0.00    +0.000 A 
ATOM     25  C   UNL     1      -0.121  17.626  17.736  0.00  0.00    +0.000 A 
ATOM     26 BR   UNL     1       0.638  18.629  16.324  0.00  0.00    +0.000 Br
ATOM     27  C   UNL     1       0.505  16.456  18.171  0.00  0.00    +0.000 A 
ENDBRANCH  19  21
ENDBRANCH  16  19
ENDBRANCH   4  16
TORSDOF 4
ENDMDL
