MODEL 1
REMARK VINA RESULT:      -7.3      0.000      0.000
REMARK  Name = 
REMARK  8 active torsions:
REMARK  status: ('A' for Active; 'I' for Inactive)
REMARK    1  A    between atoms: C_1  and  N_2
REMARK    2  A    between atoms: C_3  and  C_5
REMARK    3  A    between atoms: C_5  and  C_6
REMARK    4  A    between atoms: C_8  and  C_9
REMARK    5  A    between atoms: C_11  and  C_12
REMARK    6  A    between atoms: N_13  and  C_14
REMARK    7  A    between atoms: C_17  and  N_18
REMARK    8  A    between atoms: C_26  and  C_27
REMARK                            x       y       z     vdW  Elec       q    Type
REMARK                         _______ _______ _______ _____ _____    ______ ____
ROOT
ATOM      1  C   UNL     1       3.585   5.628  17.902  0.00  0.00    +0.000 A 
ATOM      2  C   UNL     1       2.979   4.784  18.843  0.00  0.00    +0.000 A 
ATOM      3  C   UNL     1       2.207   5.569  19.676  0.00  0.00    +0.000 A 
ATOM      4  C   UNL     1       1.254   5.065  20.712  0.00  0.00    +0.000 C 
ATOM      5  N   UNL     1       2.373   6.913  19.304  0.00  0.00    +0.000 N 
ATOM      6  C   UNL     1       3.243   6.937  18.202  0.00  0.00    +0.000 A 
ATOM      7  C   UNL     1       3.768   8.163  17.524  0.00  0.00    +0.000 C 
ENDROOT
BRANCH   5   8
ATOM      8  C   UNL     1       1.749   8.033  19.941  0.00  0.00    +0.000 A 
ATOM      9  C   UNL     1       1.666   8.095  21.333  0.00  0.00    +0.000 A 
ATOM     10  C   UNL     1       1.045   9.174  21.972  0.00  0.00    +0.000 A 
ATOM     11  C   UNL     1       0.528  10.256  21.258  0.00  0.00    +0.000 A 
ATOM     12  C   UNL     1       0.630  10.187  19.860  0.00  0.00    +0.000 A 
ATOM     13  C   UNL     1       1.210   9.088  19.204  0.00  0.00    +0.000 A 
BRANCH  11  14
ATOM     14  N   UNL     1      -0.021  11.358  21.882  0.00  0.00    +0.000 N 
ATOM     15  C   UNL     1      -1.132  11.261  22.843  0.00  0.00    +0.000 C 
ATOM     16  C   UNL     1      -2.396  11.924  22.283  0.00  0.00    +0.000 C 
ATOM     17  O   UNL     1      -2.142  13.279  21.876  0.00  0.00    +0.000 OA
ATOM     18  C   UNL     1      -1.132  13.306  20.853  0.00  0.00    +0.000 C 
ATOM     19  C   UNL     1       0.199  12.710  21.344  0.00  0.00    +0.000 C 
ENDBRANCH  11  14
ENDBRANCH   5   8
BRANCH   1  21
ATOM     20  C   UNL     1       5.722   4.973  16.886  0.00  0.00    +0.000 C 
ATOM     21  C   UNL     1       4.395   5.208  16.802  0.00  0.00    +0.000 C 
BRANCH  20  24
ATOM     22  C   UNL     1       6.322   3.741  13.361  0.00  0.00    +0.000 C 
ATOM     23  N   UNL     1       5.699   4.184  14.584  0.00  0.00    +0.000 N 
ATOM     24  C   UNL     1       6.461   4.539  15.673  0.00  0.00    +0.000 C 
ATOM     25  O   UNL     1       7.694   4.497  15.650  0.00  0.00    +0.000 OA
ATOM     26  H   UNL     1       4.684   4.202  14.612  0.00  0.00    +0.000 HD
ENDBRANCH  20  24
BRANCH  20  27
ATOM     27  C   UNL     1       6.419   5.134  18.226  0.00  0.00    +0.000 C 
ATOM     28  N   UNL     1       6.999   5.267  19.339  0.00  0.00    +0.000 NA
ENDBRANCH  20  27
ENDBRANCH   1  21
TORSDOF 5
ENDMDL
MODEL 2
REMARK VINA RESULT:      -7.3      0.522      1.091
REMARK  Name = 
REMARK  8 active torsions:
REMARK  status: ('A' for Active; 'I' for Inactive)
REMARK    1  A    between atoms: C_1  and  N_2
REMARK    2  A    between atoms: C_3  and  C_5
REMARK    3  A    between atoms: C_5  and  C_6
REMARK    4  A    between atoms: C_8  and  C_9
REMARK    5  A    between atoms: C_11  and  C_12
REMARK    6  A    between atoms: N_13  and  C_14
REMARK    7  A    between atoms: C_17  and  N_18
REMARK    8  A    between atoms: C_26  and  C_27
REMARK                            x       y       z     vdW  Elec       q    Type
REMARK                         _______ _______ _______ _____ _____    ______ ____
ROOT
ATOM      1  C   UNL     1       3.561   5.760  18.015  0.00  0.00    +0.000 A 
ATOM      2  C   UNL     1       2.956   4.962  18.996  0.00  0.00    +0.000 A 
ATOM      3  C   UNL     1       2.150   5.778  19.765  0.00  0.00    +0.000 A 
ATOM      4  C   UNL     1       1.189   5.317  20.813  0.00  0.00    +0.000 C 
ATOM      5  N   UNL     1       2.293   7.100  19.313  0.00  0.00    +0.000 N 
ATOM      6  C   UNL     1       3.184   7.076  18.227  0.00  0.00    +0.000 A 
ATOM      7  C   UNL     1       3.695   8.270  17.483  0.00  0.00    +0.000 C 
ENDROOT
BRANCH   5   8
ATOM      8  C   UNL     1       1.632   8.243  19.867  0.00  0.00    +0.000 A 
ATOM      9  C   UNL     1       1.146   9.249  19.031  0.00  0.00    +0.000 A 
ATOM     10  C   UNL     1       0.513  10.381  19.555  0.00  0.00    +0.000 A 
ATOM     11  C   UNL     1       0.292  10.534  20.925  0.00  0.00    +0.000 A 
ATOM     12  C   UNL     1       0.772   9.509  21.753  0.00  0.00    +0.000 A 
ATOM     13  C   UNL     1       1.451   8.389  21.243  0.00  0.00    +0.000 A 
BRANCH  11  14
ATOM     14  N   UNL     1      -0.397  11.611  21.446  0.00  0.00    +0.000 N 
ATOM     15  C   UNL     1      -0.798  11.695  22.859  0.00  0.00    +0.000 C 
ATOM     16  C   UNL     1      -2.324  11.650  22.996  0.00  0.00    +0.000 C 
ATOM     17  O   UNL     1      -2.954  12.659  22.189  0.00  0.00    +0.000 OA
ATOM     18  C   UNL     1      -2.623  12.460  20.804  0.00  0.00    +0.000 C 
ATOM     19  C   UNL     1      -1.106  12.546  20.557  0.00  0.00    +0.000 C 
ENDBRANCH  11  14
ENDBRANCH   5   8
BRANCH   1  21
ATOM     20  C   UNL     1       5.716   5.021  17.101  0.00  0.00    +0.000 C 
ATOM     21  C   UNL     1       4.401   5.292  16.959  0.00  0.00    +0.000 C 
BRANCH  20  24
ATOM     22  C   UNL     1       6.433   3.820  13.586  0.00  0.00    +0.000 C 
ATOM     23  N   UNL     1       5.775   4.299  14.778  0.00  0.00    +0.000 N 
ATOM     24  C   UNL     1       6.490   4.538  15.928  0.00  0.00    +0.000 C 
ATOM     25  O   UNL     1       7.709   4.359  15.990  0.00  0.00    +0.000 OA
ATOM     26  H   UNL     1       4.769   4.430  14.736  0.00  0.00    +0.000 HD
ENDBRANCH  20  24
BRANCH  20  27
ATOM     27  C   UNL     1       6.364   5.193  18.464  0.00  0.00    +0.000 C 
ATOM     28  N   UNL     1       6.903   5.336  19.596  0.00  0.00    +0.000 NA
ENDBRANCH  20  27
ENDBRANCH   1  21
TORSDOF 5
ENDMDL
MODEL 3
REMARK VINA RESULT:      -7.2      2.945      9.507
REMARK  Name = 
REMARK  8 active torsions:
REMARK  status: ('A' for Active; 'I' for Inactive)
REMARK    1  A    between atoms: C_1  and  N_2
REMARK    2  A    between atoms: C_3  and  C_5
REMARK    3  A    between atoms: C_5  and  C_6
REMARK    4  A    between atoms: C_8  and  C_9
REMARK    5  A    between atoms: C_11  and  C_12
REMARK    6  A    between atoms: N_13  and  C_14
REMARK    7  A    between atoms: C_17  and  N_18
REMARK    8  A    between atoms: C_26  and  C_27
REMARK                            x       y       z     vdW  Elec       q    Type
REMARK                         _______ _______ _______ _____ _____    ______ ____
ROOT
ATOM      1  C   UNL     1      -0.390  12.995  18.485  0.00  0.00    +0.000 A 
ATOM      2  C   UNL     1      -1.482  12.216  18.078  0.00  0.00    +0.000 A 
ATOM      3  C   UNL     1      -1.123  10.889  18.208  0.00  0.00    +0.000 A 
ATOM      4  C   UNL     1      -2.040   9.718  18.049  0.00  0.00    +0.000 C 
ATOM      5  N   UNL     1       0.212  10.827  18.638  0.00  0.00    +0.000 N 
ATOM      6  C   UNL     1       0.661  12.148  18.797  0.00  0.00    +0.000 A 
ATOM      7  C   UNL     1       2.051  12.566  19.162  0.00  0.00    +0.000 C 
ENDROOT
BRANCH   5   8
ATOM      8  C   UNL     1       0.954   9.625  18.873  0.00  0.00    +0.000 A 
ATOM      9  C   UNL     1       0.940   9.025  20.133  0.00  0.00    +0.000 A 
ATOM     10  C   UNL     1       1.672   7.859  20.386  0.00  0.00    +0.000 A 
ATOM     11  C   UNL     1       2.404   7.217  19.386  0.00  0.00    +0.000 A 
ATOM     12  C   UNL     1       2.398   7.823  18.121  0.00  0.00    +0.000 A 
ATOM     13  C   UNL     1       1.705   9.018  17.866  0.00  0.00    +0.000 A 
BRANCH  11  14
ATOM     14  N   UNL     1       3.069   6.028  19.607  0.00  0.00    +0.000 N 
ATOM     15  C   UNL     1       4.185   5.568  18.765  0.00  0.00    +0.000 C 
ATOM     16  C   UNL     1       3.797   4.303  17.989  0.00  0.00    +0.000 C 
ATOM     17  O   UNL     1       3.317   3.274  18.870  0.00  0.00    +0.000 OA
ATOM     18  C   UNL     1       2.156   3.735  19.582  0.00  0.00    +0.000 C 
ATOM     19  C   UNL     1       2.464   4.976  20.440  0.00  0.00    +0.000 C 
ENDBRANCH  11  14
ENDBRANCH   5   8
BRANCH   1  21
ATOM     20  C   UNL     1      -0.695  15.100  19.710  0.00  0.00    +0.000 C 
ATOM     21  C   UNL     1      -0.374  14.420  18.590  0.00  0.00    +0.000 C 
BRANCH  20  24
ATOM     22  C   UNL     1      -0.661  18.630  18.353  0.00  0.00    +0.000 C 
ATOM     23  N   UNL     1      -0.713  17.194  18.470  0.00  0.00    +0.000 N 
ATOM     24  C   UNL     1      -0.640  16.585  19.701  0.00  0.00    +0.000 C 
ATOM     25  O   UNL     1      -0.532  17.233  20.745  0.00  0.00    +0.000 OA
ATOM     26  H   UNL     1      -0.785  16.657  17.610  0.00  0.00    +0.000 HD
ENDBRANCH  20  24
BRANCH  20  27
ATOM     27  C   UNL     1      -1.079  14.327  20.961  0.00  0.00    +0.000 C 
ATOM     28  N   UNL     1      -1.400  13.685  21.999  0.00  0.00    +0.000 NA
ENDBRANCH  20  27
ENDBRANCH   1  21
TORSDOF 5
ENDMDL
MODEL 4
REMARK VINA RESULT:      -7.2      0.724      1.375
REMARK  Name = 
REMARK  8 active torsions:
REMARK  status: ('A' for Active; 'I' for Inactive)
REMARK    1  A    between atoms: C_1  and  N_2
REMARK    2  A    between atoms: C_3  and  C_5
REMARK    3  A    between atoms: C_5  and  C_6
REMARK    4  A    between atoms: C_8  and  C_9
REMARK    5  A    between atoms: C_11  and  C_12
REMARK    6  A    between atoms: N_13  and  C_14
REMARK    7  A    between atoms: C_17  and  N_18
REMARK    8  A    between atoms: C_26  and  C_27
REMARK                            x       y       z     vdW  Elec       q    Type
REMARK                         _______ _______ _______ _____ _____    ______ ____
ROOT
ATOM      1  C   UNL     1       3.677   5.831  18.060  0.00  0.00    +0.000 A 
ATOM      2  C   UNL     1       3.203   5.040  19.116  0.00  0.00    +0.000 A 
ATOM      3  C   UNL     1       2.316   5.803  19.849  0.00  0.00    +0.000 A 
ATOM      4  C   UNL     1       1.447   5.304  20.959  0.00  0.00    +0.000 C 
ATOM      5  N   UNL     1       2.274   7.093  19.296  0.00  0.00    +0.000 N 
ATOM      6  C   UNL     1       3.135   7.100  18.186  0.00  0.00    +0.000 A 
ATOM      7  C   UNL     1       3.468   8.289  17.340  0.00  0.00    +0.000 C 
ENDROOT
BRANCH   5   8
ATOM      8  C   UNL     1       1.482   8.180  19.786  0.00  0.00    +0.000 A 
ATOM      9  C   UNL     1       0.915   9.094  18.896  0.00  0.00    +0.000 A 
ATOM     10  C   UNL     1       0.152  10.173  19.358  0.00  0.00    +0.000 A 
ATOM     11  C   UNL     1      -0.120  10.357  20.715  0.00  0.00    +0.000 A 
ATOM     12  C   UNL     1       0.445   9.424  21.596  0.00  0.00    +0.000 A 
ATOM     13  C   UNL     1       1.251   8.362  21.150  0.00  0.00    +0.000 A 
BRANCH  11  14
ATOM     14  N   UNL     1      -0.931  11.375  21.173  0.00  0.00    +0.000 N 
ATOM     15  C   UNL     1      -1.872  12.099  20.303  0.00  0.00    +0.000 C 
ATOM     16  C   UNL     1      -1.448  13.564  20.143  0.00  0.00    +0.000 C 
ATOM     17  O   UNL     1      -1.280  14.205  21.418  0.00  0.00    +0.000 OA
ATOM     18  C   UNL     1      -0.266  13.527  22.180  0.00  0.00    +0.000 C 
ATOM     19  C   UNL     1      -0.633  12.056  22.443  0.00  0.00    +0.000 C 
ENDBRANCH  11  14
ENDBRANCH   5   8
BRANCH   1  21
ATOM     20  C   UNL     1       5.859   5.131  17.182  0.00  0.00    +0.000 C 
ATOM     21  C   UNL     1       4.546   5.395  17.014  0.00  0.00    +0.000 C 
BRANCH  20  24
ATOM     22  C   UNL     1       6.674   4.029  13.657  0.00  0.00    +0.000 C 
ATOM     23  N   UNL     1       5.983   4.473  14.843  0.00  0.00    +0.000 N 
ATOM     24  C   UNL     1       6.666   4.681  16.018  0.00  0.00    +0.000 C 
ATOM     25  O   UNL     1       7.884   4.503  16.108  0.00  0.00    +0.000 OA
ATOM     26  H   UNL     1       4.978   4.603  14.777  0.00  0.00    +0.000 HD
ENDBRANCH  20  24
BRANCH  20  27
ATOM     27  C   UNL     1       6.472   5.275  18.565  0.00  0.00    +0.000 C 
ATOM     28  N   UNL     1       6.981   5.395  19.713  0.00  0.00    +0.000 NA
ENDBRANCH  20  27
ENDBRANCH   1  21
TORSDOF 5
ENDMDL
MODEL 5
REMARK VINA RESULT:      -7.0      2.171     10.052
REMARK  Name = 
REMARK  8 active torsions:
REMARK  status: ('A' for Active; 'I' for Inactive)
REMARK    1  A    between atoms: C_1  and  N_2
REMARK    2  A    between atoms: C_3  and  C_5
REMARK    3  A    between atoms: C_5  and  C_6
REMARK    4  A    between atoms: C_8  and  C_9
REMARK    5  A    between atoms: C_11  and  C_12
REMARK    6  A    between atoms: N_13  and  C_14
REMARK    7  A    between atoms: C_17  and  N_18
REMARK    8  A    between atoms: C_26  and  C_27
REMARK                            x       y       z     vdW  Elec       q    Type
REMARK                         _______ _______ _______ _____ _____    ______ ____
ROOT
ATOM      1  C   UNL     1      -0.544  11.574  21.859  0.00  0.00    +0.000 A 
ATOM      2  C   UNL     1       0.236  12.440  21.080  0.00  0.00    +0.000 A 
ATOM      3  C   UNL     1       0.991  11.667  20.220  0.00  0.00    +0.000 A 
ATOM      4  C   UNL     1       1.833  12.182  19.097  0.00  0.00    +0.000 C 
ATOM      5  N   UNL     1       0.737  10.314  20.495  0.00  0.00    +0.000 N 
ATOM      6  C   UNL     1      -0.215  10.269  21.527  0.00  0.00    +0.000 A 
ATOM      7  C   UNL     1      -0.723   9.033  22.201  0.00  0.00    +0.000 C 
ENDROOT
BRANCH   5   8
ATOM      8  C   UNL     1       1.343   9.203  19.826  0.00  0.00    +0.000 A 
ATOM      9  C   UNL     1       1.565   9.247  18.448  0.00  0.00    +0.000 A 
ATOM     10  C   UNL     1       2.140   8.164  17.774  0.00  0.00    +0.000 A 
ATOM     11  C   UNL     1       2.563   7.017  18.447  0.00  0.00    +0.000 A 
ATOM     12  C   UNL     1       2.347   6.991  19.833  0.00  0.00    +0.000 A 
ATOM     13  C   UNL     1       1.728   8.053  20.515  0.00  0.00    +0.000 A 
BRANCH  11  14
ATOM     14  N   UNL     1       3.198   5.975  17.802  0.00  0.00    +0.000 N 
ATOM     15  C   UNL     1       2.683   4.596  17.814  0.00  0.00    +0.000 C 
ATOM     16  C   UNL     1       3.631   3.667  18.582  0.00  0.00    +0.000 C 
ATOM     17  O   UNL     1       4.972   3.746  18.070  0.00  0.00    +0.000 OA
ATOM     18  C   UNL     1       5.468   5.089  18.190  0.00  0.00    +0.000 C 
ATOM     19  C   UNL     1       4.609   6.092  17.400  0.00  0.00    +0.000 C 
ENDBRANCH  11  14
ENDBRANCH   5   8
BRANCH   1  21
ATOM     20  C   UNL     1      -2.757  12.430  22.485  0.00  0.00    +0.000 C 
ATOM     21  C   UNL     1      -1.531  11.969  22.812  0.00  0.00    +0.000 C 
BRANCH  20  24
ATOM     22  C   UNL     1      -6.000  12.708  24.412  0.00  0.00    +0.000 C 
ATOM     23  N   UNL     1      -5.003  12.384  23.422  0.00  0.00    +0.000 N 
ATOM     24  C   UNL     1      -3.703  12.811  23.566  0.00  0.00    +0.000 C 
ATOM     25  O   UNL     1      -3.337  13.476  24.538  0.00  0.00    +0.000 OA
ATOM     26  H   UNL     1      -5.304  11.852  22.611  0.00  0.00    +0.000 HD
ENDBRANCH  20  24
BRANCH  20  27
ATOM     27  C   UNL     1      -3.146  12.524  21.020  0.00  0.00    +0.000 C 
ATOM     28  N   UNL     1      -3.469  12.602  19.802  0.00  0.00    +0.000 NA
ENDBRANCH  20  27
ENDBRANCH   1  21
TORSDOF 5
ENDMDL
MODEL 6
REMARK VINA RESULT:      -6.9      2.225      9.890
REMARK  Name = 
REMARK  8 active torsions:
REMARK  status: ('A' for Active; 'I' for Inactive)
REMARK    1  A    between atoms: C_1  and  N_2
REMARK    2  A    between atoms: C_3  and  C_5
REMARK    3  A    between atoms: C_5  and  C_6
REMARK    4  A    between atoms: C_8  and  C_9
REMARK    5  A    between atoms: C_11  and  C_12
REMARK    6  A    between atoms: N_13  and  C_14
REMARK    7  A    between atoms: C_17  and  N_18
REMARK    8  A    between atoms: C_26  and  C_27
REMARK                            x       y       z     vdW  Elec       q    Type
REMARK                         _______ _______ _______ _____ _____    ______ ____
ROOT
ATOM      1  C   UNL     1      -0.329  11.661  21.357  0.00  0.00    +0.000 A 
ATOM      2  C   UNL     1       0.472  12.450  20.520  0.00  0.00    +0.000 A 
ATOM      3  C   UNL     1       1.211  11.600  19.722  0.00  0.00    +0.000 A 
ATOM      4  C   UNL     1       2.067  12.012  18.568  0.00  0.00    +0.000 C 
ATOM      5  N   UNL     1       0.926  10.276  20.095  0.00  0.00    +0.000 N 
ATOM      6  C   UNL     1      -0.029  10.328  21.123  0.00  0.00    +0.000 A 
ATOM      7  C   UNL     1      -0.566   9.157  21.884  0.00  0.00    +0.000 C 
ENDROOT
BRANCH   5   8
ATOM      8  C   UNL     1       1.508   9.106  19.510  0.00  0.00    +0.000 A 
ATOM      9  C   UNL     1       1.820   8.003  20.306  0.00  0.00    +0.000 A 
ATOM     10  C   UNL     1       2.406   6.857  19.756  0.00  0.00    +0.000 A 
ATOM     11  C   UNL     1       2.656   6.742  18.387  0.00  0.00    +0.000 A 
ATOM     12  C   UNL     1       2.324   7.852  17.597  0.00  0.00    +0.000 A 
ATOM     13  C   UNL     1       1.779   9.026  18.144  0.00  0.00    +0.000 A 
BRANCH  11  14
ATOM     14  N   UNL     1       3.164   5.589  17.825  0.00  0.00    +0.000 N 
ATOM     15  C   UNL     1       2.389   4.342  17.721  0.00  0.00    +0.000 C 
ATOM     16  C   UNL     1       2.997   3.247  18.606  0.00  0.00    +0.000 C 
ATOM     17  O   UNL     1       4.390   3.050  18.315  0.00  0.00    +0.000 OA
ATOM     18  C   UNL     1       5.119   4.267  18.546  0.00  0.00    +0.000 C 
ATOM     19  C   UNL     1       4.616   5.416  17.654  0.00  0.00    +0.000 C 
ENDBRANCH  11  14
ENDBRANCH   5   8
BRANCH   1  21
ATOM     20  C   UNL     1      -2.573  12.475  21.930  0.00  0.00    +0.000 C 
ATOM     21  C   UNL     1      -1.310  12.146  22.276  0.00  0.00    +0.000 C 
BRANCH  20  24
ATOM     22  C   UNL     1      -4.716  12.473  25.047  0.00  0.00    +0.000 C 
ATOM     23  N   UNL     1      -3.813  12.092  23.989  0.00  0.00    +0.000 N 
ATOM     24  C   UNL     1      -3.507  12.969  22.974  0.00  0.00    +0.000 C 
ATOM     25  O   UNL     1      -3.983  14.106  22.928  0.00  0.00    +0.000 OA
ATOM     26  H   UNL     1      -3.433  11.150  24.015  0.00  0.00    +0.000 HD
ENDBRANCH  20  24
BRANCH  20  27
ATOM     27  C   UNL     1      -3.013  12.306  20.486  0.00  0.00    +0.000 C 
ATOM     28  N   UNL     1      -3.378  12.166  19.286  0.00  0.00    +0.000 NA
ENDBRANCH  20  27
ENDBRANCH   1  21
TORSDOF 5
ENDMDL
MODEL 7
REMARK VINA RESULT:      -6.8      2.522      9.902
REMARK  Name = 
REMARK  8 active torsions:
REMARK  status: ('A' for Active; 'I' for Inactive)
REMARK    1  A    between atoms: C_1  and  N_2
REMARK    2  A    between atoms: C_3  and  C_5
REMARK    3  A    between atoms: C_5  and  C_6
REMARK    4  A    between atoms: C_8  and  C_9
REMARK    5  A    between atoms: C_11  and  C_12
REMARK    6  A    between atoms: N_13  and  C_14
REMARK    7  A    between atoms: C_17  and  N_18
REMARK    8  A    between atoms: C_26  and  C_27
REMARK                            x       y       z     vdW  Elec       q    Type
REMARK                         _______ _______ _______ _____ _____    ______ ____
ROOT
ATOM      1  C   UNL     1      -0.640  12.972  19.186  0.00  0.00    +0.000 A 
ATOM      2  C   UNL     1      -1.525  12.302  18.330  0.00  0.00    +0.000 A 
ATOM      3  C   UNL     1      -1.070  11.007  18.184  0.00  0.00    +0.000 A 
ATOM      4  C   UNL     1      -1.802   9.898  17.498  0.00  0.00    +0.000 C 
ATOM      5  N   UNL     1       0.133  10.873  18.895  0.00  0.00    +0.000 N 
ATOM      6  C   UNL     1       0.396  12.110  19.508  0.00  0.00    +0.000 A 
ATOM      7  C   UNL     1       1.617  12.456  20.300  0.00  0.00    +0.000 C 
ENDROOT
BRANCH   5   8
ATOM      8  C   UNL     1       0.923   9.682  18.974  0.00  0.00    +0.000 A 
ATOM      9  C   UNL     1       1.687   9.270  17.881  0.00  0.00    +0.000 A 
ATOM     10  C   UNL     1       2.451   8.099  17.934  0.00  0.00    +0.000 A 
ATOM     11  C   UNL     1       2.527   7.319  19.089  0.00  0.00    +0.000 A 
ATOM     12  C   UNL     1       1.765   7.752  20.185  0.00  0.00    +0.000 A 
ATOM     13  C   UNL     1       0.957   8.901  20.130  0.00  0.00    +0.000 A 
BRANCH  11  14
ATOM     14  N   UNL     1       3.335   6.204  19.175  0.00  0.00    +0.000 N 
ATOM     15  C   UNL     1       4.353   5.876  18.164  0.00  0.00    +0.000 C 
ATOM     16  C   UNL     1       3.984   4.588  17.417  0.00  0.00    +0.000 C 
ATOM     17  O   UNL     1       3.749   3.502  18.328  0.00  0.00    +0.000 OA
ATOM     18  C   UNL     1       2.666   3.829  19.216  0.00  0.00    +0.000 C 
ATOM     19  C   UNL     1       2.972   5.082  20.056  0.00  0.00    +0.000 C 
ENDBRANCH  11  14
ENDBRANCH   5   8
BRANCH   1  21
ATOM     20  C   UNL     1      -1.503  14.637  20.769  0.00  0.00    +0.000 C 
ATOM     21  C   UNL     1      -0.794  14.308  19.669  0.00  0.00    +0.000 C 
BRANCH  20  24
ATOM     22  C   UNL     1      -1.630  17.671  23.025  0.00  0.00    +0.000 C 
ATOM     23  N   UNL     1      -1.543  16.320  22.527  0.00  0.00    +0.000 N 
ATOM     24  C   UNL     1      -1.593  16.063  21.177  0.00  0.00    +0.000 C 
ATOM     25  O   UNL     1      -1.708  16.966  20.343  0.00  0.00    +0.000 OA
ATOM     26  H   UNL     1      -1.466  15.573  23.211  0.00  0.00    +0.000 HD
ENDBRANCH  20  24
BRANCH  20  27
ATOM     27  C   UNL     1      -2.169  13.537  21.578  0.00  0.00    +0.000 C 
ATOM     28  N   UNL     1      -2.721  12.622  22.250  0.00  0.00    +0.000 NA
ENDBRANCH  20  27
ENDBRANCH   1  21
TORSDOF 5
ENDMDL
MODEL 8
REMARK VINA RESULT:      -6.8      2.460      9.913
REMARK  Name = 
REMARK  8 active torsions:
REMARK  status: ('A' for Active; 'I' for Inactive)
REMARK    1  A    between atoms: C_1  and  N_2
REMARK    2  A    between atoms: C_3  and  C_5
REMARK    3  A    between atoms: C_5  and  C_6
REMARK    4  A    between atoms: C_8  and  C_9
REMARK    5  A    between atoms: C_11  and  C_12
REMARK    6  A    between atoms: N_13  and  C_14
REMARK    7  A    between atoms: C_17  and  N_18
REMARK    8  A    between atoms: C_26  and  C_27
REMARK                            x       y       z     vdW  Elec       q    Type
REMARK                         _______ _______ _______ _____ _____    ______ ____
ROOT
ATOM      1  C   UNL     1      -0.901  12.864  19.713  0.00  0.00    +0.000 A 
ATOM      2  C   UNL     1      -1.762  12.231  18.805  0.00  0.00    +0.000 A 
ATOM      3  C   UNL     1      -1.236  10.986  18.526  0.00  0.00    +0.000 A 
ATOM      4  C   UNL     1      -1.915   9.909  17.741  0.00  0.00    +0.000 C 
ATOM      5  N   UNL     1      -0.015  10.854  19.205  0.00  0.00    +0.000 N 
ATOM      6  C   UNL     1       0.188  12.036  19.934  0.00  0.00    +0.000 A 
ATOM      7  C   UNL     1       1.402  12.374  20.742  0.00  0.00    +0.000 C 
ENDROOT
BRANCH   5   8
ATOM      8  C   UNL     1       0.843   9.708  19.155  0.00  0.00    +0.000 A 
ATOM      9  C   UNL     1       0.963   8.870  20.265  0.00  0.00    +0.000 A 
ATOM     10  C   UNL     1       1.809   7.756  20.241  0.00  0.00    +0.000 A 
ATOM     11  C   UNL     1       2.529   7.401  19.098  0.00  0.00    +0.000 A 
ATOM     12  C   UNL     1       2.388   8.244  17.986  0.00  0.00    +0.000 A 
ATOM     13  C   UNL     1       1.577   9.391  18.012  0.00  0.00    +0.000 A 
BRANCH  11  14
ATOM     14  N   UNL     1       3.308   6.264  19.041  0.00  0.00    +0.000 N 
ATOM     15  C   UNL     1       4.087   5.889  17.850  0.00  0.00    +0.000 C 
ATOM     16  C   UNL     1       3.540   4.601  17.224  0.00  0.00    +0.000 C 
ATOM     17  O   UNL     1       3.469   3.537  18.187  0.00  0.00    +0.000 OA
ATOM     18  C   UNL     1       2.601   3.910  19.271  0.00  0.00    +0.000 C 
ATOM     19  C   UNL     1       3.105   5.168  20.003  0.00  0.00    +0.000 C 
ENDBRANCH  11  14
ENDBRANCH   5   8
BRANCH   1  21
ATOM     20  C   UNL     1      -1.708  14.299  21.534  0.00  0.00    +0.000 C 
ATOM     21  C   UNL     1      -1.123  14.134  20.329  0.00  0.00    +0.000 C 
BRANCH  20  24
ATOM     22  C   UNL     1      -3.342  17.632  22.259  0.00  0.00    +0.000 C 
ATOM     23  N   UNL     1      -3.076  16.296  21.787  0.00  0.00    +0.000 N 
ATOM     24  C   UNL     1      -1.885  15.671  22.075  0.00  0.00    +0.000 C 
ATOM     25  O   UNL     1      -1.005  16.219  22.744  0.00  0.00    +0.000 OA
ATOM     26  H   UNL     1      -3.791  15.849  21.220  0.00  0.00    +0.000 HD
ENDBRANCH  20  24
BRANCH  20  27
ATOM     27  C   UNL     1      -2.147  13.074  22.317  0.00  0.00    +0.000 C 
ATOM     28  N   UNL     1      -2.511  12.055  22.968  0.00  0.00    +0.000 NA
ENDBRANCH  20  27
ENDBRANCH   1  21
TORSDOF 5
ENDMDL
MODEL 9
REMARK VINA RESULT:      -6.8      2.001      9.652
REMARK  Name = 
REMARK  8 active torsions:
REMARK  status: ('A' for Active; 'I' for Inactive)
REMARK    1  A    between atoms: C_1  and  N_2
REMARK    2  A    between atoms: C_3  and  C_5
REMARK    3  A    between atoms: C_5  and  C_6
REMARK    4  A    between atoms: C_8  and  C_9
REMARK    5  A    between atoms: C_11  and  C_12
REMARK    6  A    between atoms: N_13  and  C_14
REMARK    7  A    between atoms: C_17  and  N_18
REMARK    8  A    between atoms: C_26  and  C_27
REMARK                            x       y       z     vdW  Elec       q    Type
REMARK                         _______ _______ _______ _____ _____    ______ ____
ROOT
ATOM      1  C   UNL     1      -0.771  11.228  20.924  0.00  0.00    +0.000 A 
ATOM      2  C   UNL     1      -1.268  11.234  19.614  0.00  0.00    +0.000 A 
ATOM      3  C   UNL     1      -0.561  10.293  18.892  0.00  0.00    +0.000 A 
ATOM      4  C   UNL     1      -0.875   9.846  17.500  0.00  0.00    +0.000 C 
ATOM      5  N   UNL     1       0.422   9.737  19.725  0.00  0.00    +0.000 N 
ATOM      6  C   UNL     1       0.287  10.336  20.988  0.00  0.00    +0.000 A 
ATOM      7  C   UNL     1       1.178  10.109  22.169  0.00  0.00    +0.000 C 
ENDROOT
BRANCH   5   8
ATOM      8  C   UNL     1       1.369   8.735  19.338  0.00  0.00    +0.000 A 
ATOM      9  C   UNL     1       1.565   7.606  20.134  0.00  0.00    +0.000 A 
ATOM     10  C   UNL     1       2.498   6.625  19.780  0.00  0.00    +0.000 A 
ATOM     11  C   UNL     1       3.236   6.702  18.597  0.00  0.00    +0.000 A 
ATOM     12  C   UNL     1       3.019   7.835  17.799  0.00  0.00    +0.000 A 
ATOM     13  C   UNL     1       2.119   8.850  18.166  0.00  0.00    +0.000 A 
BRANCH  11  14
ATOM     14  N   UNL     1       4.104   5.705  18.203  0.00  0.00    +0.000 N 
ATOM     15  C   UNL     1       4.905   4.921  19.157  0.00  0.00    +0.000 C 
ATOM     16  C   UNL     1       6.401   5.214  18.984  0.00  0.00    +0.000 C 
ATOM     17  O   UNL     1       6.820   5.014  17.624  0.00  0.00    +0.000 OA
ATOM     18  C   UNL     1       6.089   5.889  16.748  0.00  0.00    +0.000 C 
ATOM     19  C   UNL     1       4.573   5.627  16.810  0.00  0.00    +0.000 C 
ENDBRANCH  11  14
ENDBRANCH   5   8
BRANCH   1  21
ATOM     20  C   UNL     1      -0.779  13.176  22.419  0.00  0.00    +0.000 C 
ATOM     21  C   UNL     1      -1.287  11.991  22.017  0.00  0.00    +0.000 C 
BRANCH  20  24
ATOM     22  C   UNL     1      -3.442  14.302  24.858  0.00  0.00    +0.000 C 
ATOM     23  N   UNL     1      -2.743  13.659  23.772  0.00  0.00    +0.000 N 
ATOM     24  C   UNL     1      -1.401  13.880  23.570  0.00  0.00    +0.000 C 
ATOM     25  O   UNL     1      -0.744  14.625  24.301  0.00  0.00    +0.000 OA
ATOM     26  H   UNL     1      -3.285  13.058  23.158  0.00  0.00    +0.000 HD
ENDBRANCH  20  24
BRANCH  20  27
ATOM     27  C   UNL     1       0.399  13.770  21.666  0.00  0.00    +0.000 C 
ATOM     28  N   UNL     1       1.377  14.263  21.040  0.00  0.00    +0.000 NA
ENDBRANCH  20  27
ENDBRANCH   1  21
TORSDOF 5
ENDMDL
