MODEL 1
REMARK VINA RESULT:      -7.1      0.000      0.000
REMARK  Name = 
REMARK  13 active torsions:
REMARK  status: ('A' for Active; 'I' for Inactive)
REMARK    1  A    between atoms: C_1  and  O_2
REMARK    2  A    between atoms: O_2  and  C_3
REMARK    3  A    between atoms: C_5  and  C_6
REMARK    4  A    between atoms: C_10  and  C_11
REMARK    5  A    between atoms: C_13  and  O_14
REMARK    6  A    between atoms: O_14  and  C_15
REMARK    7  A    between atoms: C_16  and  O_17
REMARK    8  A    between atoms: O_17  and  C_18
REMARK    9  A    between atoms: C_19  and  O_20
REMARK   10  A    between atoms: O_20  and  C_21
REMARK   11  A    between atoms: C_27  and  O_28
REMARK   12  A    between atoms: O_28  and  C_29
REMARK   13  A    between atoms: C_30  and  O_31
REMARK                            x       y       z     vdW  Elec       q    Type
REMARK                         _______ _______ _______ _____ _____    ______ ____
ROOT
ATOM      1  C   UNL     1       2.751   7.188  18.796  0.00  0.00    +0.000 C 
ATOM      2  O   UNL     1       3.420   7.805  17.685  0.00  0.00    +0.000 OA
ATOM      3  C   UNL     1       2.953   9.160  17.682  0.00  0.00    +0.000 C 
ATOM      4  C   UNL     1       1.467   9.074  17.995  0.00  0.00    +0.000 C 
ATOM      5  C   UNL     1       0.979  10.172  18.933  0.00  0.00    +0.000 C 
ATOM      6  O   UNL     1       1.133   9.616  20.255  0.00  0.00    +0.000 OA
ATOM      7  C   UNL     1       0.895   8.204  20.166  0.00  0.00    +0.000 C 
ATOM      8  C   UNL     1       1.347   7.785  18.788  0.00  0.00    +0.000 C 
ENDROOT
BRANCH   1  11
ATOM      9  C   UNL     1       3.644   3.627  17.739  0.00  0.00    +0.000 A 
ATOM     10  C   UNL     1       3.577   5.029  17.806  0.00  0.00    +0.000 A 
ATOM     11  C   UNL     1       2.731   5.681  18.709  0.00  0.00    +0.000 A 
ATOM     12  C   UNL     1       1.938   4.896  19.549  0.00  0.00    +0.000 A 
ATOM     13  C   UNL     1       1.970   3.492  19.503  0.00  0.00    +0.000 A 
ATOM     14  C   UNL     1       2.837   2.860  18.592  0.00  0.00    +0.000 A 
BRANCH   9  16
ATOM     15  C   UNL     1       5.503   4.122  16.297  0.00  0.00    +0.000 C 
ATOM     16  O   UNL     1       4.534   3.212  16.781  0.00  0.00    +0.000 OA
ENDBRANCH   9  16
BRANCH  13  17
ATOM     17  O   UNL     1       1.109   2.949  20.415  0.00  0.00    +0.000 OA
ATOM     18  C   UNL     1       1.530   2.623  21.725  0.00  0.00    +0.000 C 
ENDBRANCH  13  17
BRANCH  14  19
ATOM     19  O   UNL     1       2.917   1.496  18.527  0.00  0.00    +0.000 OA
ATOM     20  H   UNL     1       2.613   1.164  19.385  0.00  0.00    +0.000 HD
ENDBRANCH  14  19
ENDBRANCH   1  11
BRANCH   5  21
ATOM     21  C   UNL     1      -0.456  10.623  18.685  0.00  0.00    +0.000 A 
ATOM     22  C   UNL     1      -1.218  10.109  17.624  0.00  0.00    +0.000 A 
ATOM     23  C   UNL     1      -2.549  10.488  17.399  0.00  0.00    +0.000 A 
ATOM     24  C   UNL     1      -3.154  11.405  18.280  0.00  0.00    +0.000 A 
ATOM     25  C   UNL     1      -2.401  11.928  19.362  0.00  0.00    +0.000 A 
ATOM     26  C   UNL     1      -1.071  11.528  19.558  0.00  0.00    +0.000 A 
BRANCH  23  27
ATOM     27  O   UNL     1      -3.281   9.991  16.351  0.00  0.00    +0.000 OA
ATOM     28  C   UNL     1      -3.090  10.551  15.058  0.00  0.00    +0.000 C 
ENDBRANCH  23  27
BRANCH  24  29
ATOM     29  O   UNL     1      -4.446  11.877  18.226  0.00  0.00    +0.000 OA
ATOM     30  C   UNL     1      -5.525  11.018  18.555  0.00  0.00    +0.000 C 
ENDBRANCH  24  29
BRANCH  25  31
ATOM     31  O   UNL     1      -3.056  12.819  20.181  0.00  0.00    +0.000 OA
ATOM     32  C   UNL     1      -2.888  12.681  21.585  0.00  0.00    +0.000 C 
ENDBRANCH  25  31
ENDBRANCH   5  21
TORSDOF 8
ENDMDL
MODEL 2
REMARK VINA RESULT:      -7.1      0.253      3.289
REMARK  Name = 
REMARK  13 active torsions:
REMARK  status: ('A' for Active; 'I' for Inactive)
REMARK    1  A    between atoms: C_1  and  O_2
REMARK    2  A    between atoms: O_2  and  C_3
REMARK    3  A    between atoms: C_5  and  C_6
REMARK    4  A    between atoms: C_10  and  C_11
REMARK    5  A    between atoms: C_13  and  O_14
REMARK    6  A    between atoms: O_14  and  C_15
REMARK    7  A    between atoms: C_16  and  O_17
REMARK    8  A    between atoms: O_17  and  C_18
REMARK    9  A    between atoms: C_19  and  O_20
REMARK   10  A    between atoms: O_20  and  C_21
REMARK   11  A    between atoms: C_27  and  O_28
REMARK   12  A    between atoms: O_28  and  C_29
REMARK   13  A    between atoms: C_30  and  O_31
REMARK                            x       y       z     vdW  Elec       q    Type
REMARK                         _______ _______ _______ _____ _____    ______ ____
ROOT
ATOM      1  C   UNL     1       2.695   7.412  18.829  0.00  0.00    +0.000 C 
ATOM      2  O   UNL     1       3.292   8.025  17.675  0.00  0.00    +0.000 OA
ATOM      3  C   UNL     1       2.776   9.361  17.660  0.00  0.00    +0.000 C 
ATOM      4  C   UNL     1       1.309   9.230  18.041  0.00  0.00    +0.000 C 
ATOM      5  C   UNL     1       0.822  10.333  18.973  0.00  0.00    +0.000 C 
ATOM      6  O   UNL     1       1.054   9.817  20.301  0.00  0.00    +0.000 OA
ATOM      7  C   UNL     1       0.864   8.396  20.256  0.00  0.00    +0.000 C 
ATOM      8  C   UNL     1       1.271   7.958  18.869  0.00  0.00    +0.000 C 
ENDROOT
BRANCH   1  11
ATOM      9  C   UNL     1       1.839   3.763  19.568  0.00  0.00    +0.000 A 
ATOM     10  C   UNL     1       1.895   5.166  19.627  0.00  0.00    +0.000 A 
ATOM     11  C   UNL     1       2.727   5.904  18.779  0.00  0.00    +0.000 A 
ATOM     12  C   UNL     1       3.517   5.205  17.864  0.00  0.00    +0.000 A 
ATOM     13  C   UNL     1       3.495   3.802  17.783  0.00  0.00    +0.000 A 
ATOM     14  C   UNL     1       2.642   3.084  18.641  0.00  0.00    +0.000 A 
BRANCH   9  16
ATOM     15  C   UNL     1       1.466   2.701  21.692  0.00  0.00    +0.000 C 
ATOM     16  O   UNL     1       0.961   3.256  20.493  0.00  0.00    +0.000 OA
ENDBRANCH   9  16
BRANCH  13  17
ATOM     17  O   UNL     1       4.351   3.351  16.817  0.00  0.00    +0.000 OA
ATOM     18  C   UNL     1       5.322   4.199  16.236  0.00  0.00    +0.000 C 
ENDBRANCH  13  17
BRANCH  14  19
ATOM     19  O   UNL     1       2.573   1.719  18.583  0.00  0.00    +0.000 OA
ATOM     20  H   UNL     1       2.804   1.396  19.468  0.00  0.00    +0.000 HD
ENDBRANCH  14  19
ENDBRANCH   1  11
BRANCH   5  21
ATOM     21  C   UNL     1      -0.638  10.726  18.779  0.00  0.00    +0.000 A 
ATOM     22  C   UNL     1      -1.286  11.613  19.652  0.00  0.00    +0.000 A 
ATOM     23  C   UNL     1      -2.619  12.011  19.472  0.00  0.00    +0.000 A 
ATOM     24  C   UNL     1      -3.332  11.519  18.362  0.00  0.00    +0.000 A 
ATOM     25  C   UNL     1      -2.689  10.627  17.465  0.00  0.00    +0.000 A 
ATOM     26  C   UNL     1      -1.356  10.249  17.676  0.00  0.00    +0.000 A 
BRANCH  23  27
ATOM     27  O   UNL     1      -3.247  12.868  20.339  0.00  0.00    +0.000 OA
ATOM     28  C   UNL     1      -2.800  12.923  21.688  0.00  0.00    +0.000 C 
ENDBRANCH  23  27
BRANCH  24  29
ATOM     29  O   UNL     1      -4.632  11.809  18.017  0.00  0.00    +0.000 OA
ATOM     30  C   UNL     1      -5.700  11.158  18.686  0.00  0.00    +0.000 C 
ENDBRANCH  24  29
BRANCH  25  31
ATOM     31  O   UNL     1      -3.447  10.186  16.404  0.00  0.00    +0.000 OA
ATOM     32  C   UNL     1      -2.935  10.381  15.093  0.00  0.00    +0.000 C 
ENDBRANCH  25  31
ENDBRANCH   5  21
TORSDOF 8
ENDMDL
MODEL 3
REMARK VINA RESULT:      -7.1      0.253      2.301
REMARK  Name = 
REMARK  13 active torsions:
REMARK  status: ('A' for Active; 'I' for Inactive)
REMARK    1  A    between atoms: C_1  and  O_2
REMARK    2  A    between atoms: O_2  and  C_3
REMARK    3  A    between atoms: C_5  and  C_6
REMARK    4  A    between atoms: C_10  and  C_11
REMARK    5  A    between atoms: C_13  and  O_14
REMARK    6  A    between atoms: O_14  and  C_15
REMARK    7  A    between atoms: C_16  and  O_17
REMARK    8  A    between atoms: O_17  and  C_18
REMARK    9  A    between atoms: C_19  and  O_20
REMARK   10  A    between atoms: O_20  and  C_21
REMARK   11  A    between atoms: C_27  and  O_28
REMARK   12  A    between atoms: O_28  and  C_29
REMARK   13  A    between atoms: C_30  and  O_31
REMARK                            x       y       z     vdW  Elec       q    Type
REMARK                         _______ _______ _______ _____ _____    ______ ____
ROOT
ATOM      1  C   UNL     1       2.786   7.174  18.709  0.00  0.00    +0.000 C 
ATOM      2  O   UNL     1       3.403   7.795  17.570  0.00  0.00    +0.000 OA
ATOM      3  C   UNL     1       2.928   9.146  17.586  0.00  0.00    +0.000 C 
ATOM      4  C   UNL     1       1.457   9.051  17.962  0.00  0.00    +0.000 C 
ATOM      5  C   UNL     1       1.002  10.147  18.920  0.00  0.00    +0.000 C 
ATOM      6  O   UNL     1       1.216   9.593  20.235  0.00  0.00    +0.000 OA
ATOM      7  C   UNL     1       0.983   8.179  20.157  0.00  0.00    +0.000 C 
ATOM      8  C   UNL     1       1.378   7.762  18.760  0.00  0.00    +0.000 C 
ENDROOT
BRANCH   1  11
ATOM      9  C   UNL     1       3.704   3.615  17.669  0.00  0.00    +0.000 A 
ATOM     10  C   UNL     1       3.633   5.016  17.734  0.00  0.00    +0.000 A 
ATOM     11  C   UNL     1       2.771   5.667  18.624  0.00  0.00    +0.000 A 
ATOM     12  C   UNL     1       1.970   4.880  19.454  0.00  0.00    +0.000 A 
ATOM     13  C   UNL     1       2.007   3.477  19.410  0.00  0.00    +0.000 A 
ATOM     14  C   UNL     1       2.888   2.847  18.512  0.00  0.00    +0.000 A 
BRANCH   9  16
ATOM     15  C   UNL     1       5.370   4.168  16.026  0.00  0.00    +0.000 C 
ATOM     16  O   UNL     1       4.610   3.201  16.724  0.00  0.00    +0.000 OA
ENDBRANCH   9  16
BRANCH  13  17
ATOM     17  O   UNL     1       1.135   2.932  20.311  0.00  0.00    +0.000 OA
ATOM     18  C   UNL     1       1.512   2.696  21.654  0.00  0.00    +0.000 C 
ENDBRANCH  13  17
BRANCH  14  19
ATOM     19  O   UNL     1       2.973   1.483  18.450  0.00  0.00    +0.000 OA
ATOM     20  H   UNL     1       3.573   1.280  17.715  0.00  0.00    +0.000 HD
ENDBRANCH  14  19
ENDBRANCH   1  11
BRANCH   5  21
ATOM     21  C   UNL     1      -0.445  10.588  18.733  0.00  0.00    +0.000 A 
ATOM     22  C   UNL     1      -1.041  11.540  19.575  0.00  0.00    +0.000 A 
ATOM     23  C   UNL     1      -2.360  11.982  19.399  0.00  0.00    +0.000 A 
ATOM     24  C   UNL     1      -3.113  11.468  18.326  0.00  0.00    +0.000 A 
ATOM     25  C   UNL     1      -2.524  10.512  17.461  0.00  0.00    +0.000 A 
ATOM     26  C   UNL     1      -1.202  10.090  17.666  0.00  0.00    +0.000 A 
BRANCH  23  27
ATOM     27  O   UNL     1      -2.937  12.902  20.237  0.00  0.00    +0.000 OA
ATOM     28  C   UNL     1      -2.121  13.554  21.202  0.00  0.00    +0.000 C 
ENDBRANCH  23  27
BRANCH  24  29
ATOM     29  O   UNL     1      -4.408  11.794  17.992  0.00  0.00    +0.000 OA
ATOM     30  C   UNL     1      -5.487  11.230  18.719  0.00  0.00    +0.000 C 
ENDBRANCH  24  29
BRANCH  25  31
ATOM     31  O   UNL     1      -3.319  10.053  16.435  0.00  0.00    +0.000 OA
ATOM     32  C   UNL     1      -2.963  10.409  15.107  0.00  0.00    +0.000 C 
ENDBRANCH  25  31
ENDBRANCH   5  21
TORSDOF 8
ENDMDL
MODEL 4
REMARK VINA RESULT:      -7.1      1.606      9.082
REMARK  Name = 
REMARK  13 active torsions:
REMARK  status: ('A' for Active; 'I' for Inactive)
REMARK    1  A    between atoms: C_1  and  O_2
REMARK    2  A    between atoms: O_2  and  C_3
REMARK    3  A    between atoms: C_5  and  C_6
REMARK    4  A    between atoms: C_10  and  C_11
REMARK    5  A    between atoms: C_13  and  O_14
REMARK    6  A    between atoms: O_14  and  C_15
REMARK    7  A    between atoms: C_16  and  O_17
REMARK    8  A    between atoms: O_17  and  C_18
REMARK    9  A    between atoms: C_19  and  O_20
REMARK   10  A    between atoms: O_20  and  C_21
REMARK   11  A    between atoms: C_27  and  O_28
REMARK   12  A    between atoms: O_28  and  C_29
REMARK   13  A    between atoms: C_30  and  O_31
REMARK                            x       y       z     vdW  Elec       q    Type
REMARK                         _______ _______ _______ _____ _____    ______ ____
ROOT
ATOM      1  C   UNL     1      -1.239  11.251  19.211  0.00  0.00    +0.000 C 
ATOM      2  O   UNL     1      -1.255  11.306  20.647  0.00  0.00    +0.000 OA
ATOM      3  C   UNL     1       0.000  10.746  21.049  0.00  0.00    +0.000 C 
ATOM      4  C   UNL     1       0.226   9.559  20.125  0.00  0.00    +0.000 C 
ATOM      5  C   UNL     1       1.672   9.413  19.665  0.00  0.00    +0.000 C 
ATOM      6  O   UNL     1       1.746  10.181  18.446  0.00  0.00    +0.000 OA
ATOM      7  C   UNL     1       0.476  10.076  17.786  0.00  0.00    +0.000 C 
ATOM      8  C   UNL     1      -0.557   9.928  18.878  0.00  0.00    +0.000 C 
ENDROOT
BRANCH   1  11
ATOM      9  C   UNL     1      -4.932  12.130  18.777  0.00  0.00    +0.000 A 
ATOM     10  C   UNL     1      -3.652  11.951  19.328  0.00  0.00    +0.000 A 
ATOM     11  C   UNL     1      -2.617  11.353  18.602  0.00  0.00    +0.000 A 
ATOM     12  C   UNL     1      -2.890  10.926  17.301  0.00  0.00    +0.000 A 
ATOM     13  C   UNL     1      -4.159  11.079  16.720  0.00  0.00    +0.000 A 
ATOM     14  C   UNL     1      -5.181  11.692  17.468  0.00  0.00    +0.000 A 
BRANCH   9  16
ATOM     15  C   UNL     1      -5.619  12.488  21.052  0.00  0.00    +0.000 C 
ATOM     16  O   UNL     1      -5.784  12.731  19.669  0.00  0.00    +0.000 OA
ENDBRANCH   9  16
BRANCH  13  17
ATOM     17  O   UNL     1      -4.181  10.585  15.445  0.00  0.00    +0.000 OA
ATOM     18  C   UNL     1      -2.988  10.260  14.759  0.00  0.00    +0.000 C 
ENDBRANCH  13  17
BRANCH  14  19
ATOM     19  O   UNL     1      -6.427  11.881  16.935  0.00  0.00    +0.000 OA
ATOM     20  H   UNL     1      -6.296  12.062  15.992  0.00  0.00    +0.000 HD
ENDBRANCH  14  19
ENDBRANCH   1  11
BRANCH   5  21
ATOM     21  C   UNL     1       2.122   7.974  19.442  0.00  0.00    +0.000 A 
ATOM     22  C   UNL     1       1.753   6.941  20.318  0.00  0.00    +0.000 A 
ATOM     23  C   UNL     1       2.131   5.606  20.113  0.00  0.00    +0.000 A 
ATOM     24  C   UNL     1       2.893   5.282  18.974  0.00  0.00    +0.000 A 
ATOM     25  C   UNL     1       3.268   6.313  18.074  0.00  0.00    +0.000 A 
ATOM     26  C   UNL     1       2.874   7.638  18.310  0.00  0.00    +0.000 A 
BRANCH  23  27
ATOM     27  O   UNL     1       1.777   4.607  20.982  0.00  0.00    +0.000 OA
ATOM     28  C   UNL     1       0.875   3.601  20.537  0.00  0.00    +0.000 C 
ENDBRANCH  23  27
BRANCH  24  29
ATOM     29  O   UNL     1       3.339   4.034  18.603  0.00  0.00    +0.000 OA
ATOM     30  C   UNL     1       4.496   3.489  19.214  0.00  0.00    +0.000 C 
ENDBRANCH  24  29
BRANCH  25  31
ATOM     31  O   UNL     1       4.013   5.923  16.984  0.00  0.00    +0.000 OA
ATOM     32  C   UNL     1       5.271   6.551  16.780  0.00  0.00    +0.000 C 
ENDBRANCH  25  31
ENDBRANCH   5  21
TORSDOF 8
ENDMDL
MODEL 5
REMARK VINA RESULT:      -7.1      0.246      2.341
REMARK  Name = 
REMARK  13 active torsions:
REMARK  status: ('A' for Active; 'I' for Inactive)
REMARK    1  A    between atoms: C_1  and  O_2
REMARK    2  A    between atoms: O_2  and  C_3
REMARK    3  A    between atoms: C_5  and  C_6
REMARK    4  A    between atoms: C_10  and  C_11
REMARK    5  A    between atoms: C_13  and  O_14
REMARK    6  A    between atoms: O_14  and  C_15
REMARK    7  A    between atoms: C_16  and  O_17
REMARK    8  A    between atoms: O_17  and  C_18
REMARK    9  A    between atoms: C_19  and  O_20
REMARK   10  A    between atoms: O_20  and  C_21
REMARK   11  A    between atoms: C_27  and  O_28
REMARK   12  A    between atoms: O_28  and  C_29
REMARK   13  A    between atoms: C_30  and  O_31
REMARK                            x       y       z     vdW  Elec       q    Type
REMARK                         _______ _______ _______ _____ _____    ______ ____
ROOT
ATOM      1  C   UNL     1       2.739   7.384  18.827  0.00  0.00    +0.000 C 
ATOM      2  O   UNL     1       3.383   7.994  17.697  0.00  0.00    +0.000 OA
ATOM      3  C   UNL     1       2.866   9.329  17.656  0.00  0.00    +0.000 C 
ATOM      4  C   UNL     1       1.384   9.196  17.975  0.00  0.00    +0.000 C 
ATOM      5  C   UNL     1       0.856  10.302  18.882  0.00  0.00    +0.000 C 
ATOM      6  O   UNL     1       1.034   9.791  20.220  0.00  0.00    +0.000 OA
ATOM      7  C   UNL     1       0.848   8.369  20.172  0.00  0.00    +0.000 C 
ATOM      8  C   UNL     1       1.313   7.927  18.805  0.00  0.00    +0.000 C 
ENDROOT
BRANCH   1  11
ATOM      9  C   UNL     1       1.884   3.735  19.571  0.00  0.00    +0.000 A 
ATOM     10  C   UNL     1       1.935   5.138  19.625  0.00  0.00    +0.000 A 
ATOM     11  C   UNL     1       2.775   5.875  18.783  0.00  0.00    +0.000 A 
ATOM     12  C   UNL     1       3.577   5.174  17.880  0.00  0.00    +0.000 A 
ATOM     13  C   UNL     1       3.560   3.772  17.805  0.00  0.00    +0.000 A 
ATOM     14  C   UNL     1       2.699   3.054  18.655  0.00  0.00    +0.000 A 
BRANCH   9  16
ATOM     15  C   UNL     1       1.488   2.689  21.699  0.00  0.00    +0.000 C 
ATOM     16  O   UNL     1       0.997   3.229  20.488  0.00  0.00    +0.000 OA
ENDBRANCH   9  16
BRANCH  13  17
ATOM     17  O   UNL     1       4.428   3.319  16.850  0.00  0.00    +0.000 OA
ATOM     18  C   UNL     1       5.336   4.190  16.204  0.00  0.00    +0.000 C 
ENDBRANCH  13  17
BRANCH  14  19
ATOM     19  O   UNL     1       2.634   1.689  18.603  0.00  0.00    +0.000 OA
ATOM     20  H   UNL     1       2.214   1.468  17.757  0.00  0.00    +0.000 HD
ENDBRANCH  14  19
ENDBRANCH   1  11
BRANCH   5  21
ATOM     21  C   UNL     1      -0.595  10.691  18.625  0.00  0.00    +0.000 A 
ATOM     22  C   UNL     1      -1.327  10.146  17.559  0.00  0.00    +0.000 A 
ATOM     23  C   UNL     1      -2.672  10.468  17.326  0.00  0.00    +0.000 A 
ATOM     24  C   UNL     1      -3.321  11.358  18.203  0.00  0.00    +0.000 A 
ATOM     25  C   UNL     1      -2.598  11.911  19.290  0.00  0.00    +0.000 A 
ATOM     26  C   UNL     1      -1.254  11.569  19.494  0.00  0.00    +0.000 A 
BRANCH  23  27
ATOM     27  O   UNL     1      -3.375   9.941  16.273  0.00  0.00    +0.000 OA
ATOM     28  C   UNL     1      -2.988  10.292  14.950  0.00  0.00    +0.000 C 
ENDBRANCH  23  27
BRANCH  24  29
ATOM     29  O   UNL     1      -4.632  11.775  18.141  0.00  0.00    +0.000 OA
ATOM     30  C   UNL     1      -5.672  10.885  18.509  0.00  0.00    +0.000 C 
ENDBRANCH  24  29
BRANCH  25  31
ATOM     31  O   UNL     1      -3.297  12.773  20.105  0.00  0.00    +0.000 OA
ATOM     32  C   UNL     1      -2.630  13.299  21.244  0.00  0.00    +0.000 C 
ENDBRANCH  25  31
ENDBRANCH   5  21
TORSDOF 8
ENDMDL
MODEL 6
REMARK VINA RESULT:      -7.0      1.468      8.783
REMARK  Name = 
REMARK  13 active torsions:
REMARK  status: ('A' for Active; 'I' for Inactive)
REMARK    1  A    between atoms: C_1  and  O_2
REMARK    2  A    between atoms: O_2  and  C_3
REMARK    3  A    between atoms: C_5  and  C_6
REMARK    4  A    between atoms: C_10  and  C_11
REMARK    5  A    between atoms: C_13  and  O_14
REMARK    6  A    between atoms: O_14  and  C_15
REMARK    7  A    between atoms: C_16  and  O_17
REMARK    8  A    between atoms: O_17  and  C_18
REMARK    9  A    between atoms: C_19  and  O_20
REMARK   10  A    between atoms: O_20  and  C_21
REMARK   11  A    between atoms: C_27  and  O_28
REMARK   12  A    between atoms: O_28  and  C_29
REMARK   13  A    between atoms: C_30  and  O_31
REMARK                            x       y       z     vdW  Elec       q    Type
REMARK                         _______ _______ _______ _____ _____    ______ ____
ROOT
ATOM      1  C   UNL     1      -0.832  11.155  19.227  0.00  0.00    +0.000 C 
ATOM      2  O   UNL     1      -0.758  11.247  20.659  0.00  0.00    +0.000 OA
ATOM      3  C   UNL     1       0.453  10.567  21.008  0.00  0.00    +0.000 C 
ATOM      4  C   UNL     1       0.499   9.340  20.110  0.00  0.00    +0.000 C 
ATOM      5  C   UNL     1       1.892   9.029  19.575  0.00  0.00    +0.000 C 
ATOM      6  O   UNL     1       1.974   9.754  18.330  0.00  0.00    +0.000 OA
ATOM      7  C   UNL     1       0.664   9.767  17.746  0.00  0.00    +0.000 C 
ATOM      8  C   UNL     1      -0.313   9.758  18.898  0.00  0.00    +0.000 C 
ENDROOT
BRANCH   1  11
ATOM      9  C   UNL     1      -3.858  11.070  16.896  0.00  0.00    +0.000 A 
ATOM     10  C   UNL     1      -2.557  10.939  17.409  0.00  0.00    +0.000 A 
ATOM     11  C   UNL     1      -2.225  11.387  18.692  0.00  0.00    +0.000 A 
ATOM     12  C   UNL     1      -3.229  11.980  19.460  0.00  0.00    +0.000 A 
ATOM     13  C   UNL     1      -4.539  12.137  18.977  0.00  0.00    +0.000 A 
ATOM     14  C   UNL     1      -4.849  11.670  17.687  0.00  0.00    +0.000 A 
BRANCH   9  16
ATOM     15  C   UNL     1      -2.803   9.998  15.021  0.00  0.00    +0.000 C 
ATOM     16  O   UNL     1      -3.949  10.568  15.622  0.00  0.00    +0.000 OA
ENDBRANCH   9  16
BRANCH  13  17
ATOM     17  O   UNL     1      -5.338  12.744  19.906  0.00  0.00    +0.000 OA
ATOM     18  C   UNL     1      -4.793  13.377  21.047  0.00  0.00    +0.000 C 
ENDBRANCH  13  17
BRANCH  14  19
ATOM     19  O   UNL     1      -6.116  11.784  17.183  0.00  0.00    +0.000 OA
ATOM     20  H   UNL     1      -6.118  11.306  16.339  0.00  0.00    +0.000 HD
ENDBRANCH  14  19
ENDBRANCH   1  11
BRANCH   5  21
ATOM     21  C   UNL     1       2.175   7.545  19.373  0.00  0.00    +0.000 A 
ATOM     22  C   UNL     1       1.626   6.567  20.218  0.00  0.00    +0.000 A 
ATOM     23  C   UNL     1       1.849   5.196  20.028  0.00  0.00    +0.000 A 
ATOM     24  C   UNL     1       2.637   4.778  18.939  0.00  0.00    +0.000 A 
ATOM     25  C   UNL     1       3.192   5.753  18.071  0.00  0.00    +0.000 A 
ATOM     26  C   UNL     1       2.951   7.116  18.289  0.00  0.00    +0.000 A 
BRANCH  23  27
ATOM     27  O   UNL     1       1.320   4.249  20.868  0.00  0.00    +0.000 OA
ATOM     28  C   UNL     1       2.195   3.546  21.741  0.00  0.00    +0.000 C 
ENDBRANCH  23  27
BRANCH  24  29
ATOM     29  O   UNL     1       2.948   3.484  18.589  0.00  0.00    +0.000 OA
ATOM     30  C   UNL     1       1.940   2.631  18.074  0.00  0.00    +0.000 C 
ENDBRANCH  24  29
BRANCH  25  31
ATOM     31  O   UNL     1       3.952   5.271  17.028  0.00  0.00    +0.000 OA
ATOM     32  C   UNL     1       5.352   5.516  17.057  0.00  0.00    +0.000 C 
ENDBRANCH  25  31
ENDBRANCH   5  21
TORSDOF 8
ENDMDL
MODEL 7
REMARK VINA RESULT:      -7.0      0.909      8.913
REMARK  Name = 
REMARK  13 active torsions:
REMARK  status: ('A' for Active; 'I' for Inactive)
REMARK    1  A    between atoms: C_1  and  O_2
REMARK    2  A    between atoms: O_2  and  C_3
REMARK    3  A    between atoms: C_5  and  C_6
REMARK    4  A    between atoms: C_10  and  C_11
REMARK    5  A    between atoms: C_13  and  O_14
REMARK    6  A    between atoms: O_14  and  C_15
REMARK    7  A    between atoms: C_16  and  O_17
REMARK    8  A    between atoms: O_17  and  C_18
REMARK    9  A    between atoms: C_19  and  O_20
REMARK   10  A    between atoms: O_20  and  C_21
REMARK   11  A    between atoms: C_27  and  O_28
REMARK   12  A    between atoms: O_28  and  C_29
REMARK   13  A    between atoms: C_30  and  O_31
REMARK                            x       y       z     vdW  Elec       q    Type
REMARK                         _______ _______ _______ _____ _____    ______ ____
ROOT
ATOM      1  C   UNL     1       0.238  10.228  19.668  0.00  0.00    +0.000 C 
ATOM      2  O   UNL     1       0.385  10.080  21.090  0.00  0.00    +0.000 OA
ATOM      3  C   UNL     1       1.474   9.163  21.252  0.00  0.00    +0.000 C 
ATOM      4  C   UNL     1       1.271   8.103  20.180  0.00  0.00    +0.000 C 
ATOM      5  C   UNL     1       2.567   7.657  19.513  0.00  0.00    +0.000 C 
ATOM      6  O   UNL     1       2.722   8.546  18.388  0.00  0.00    +0.000 OA
ATOM      7  C   UNL     1       1.411   8.866  17.901  0.00  0.00    +0.000 C 
ATOM      8  C   UNL     1       0.495   8.835  19.101  0.00  0.00    +0.000 C 
ENDROOT
BRANCH   1  11
ATOM      9  C   UNL     1      -2.921  12.377  19.641  0.00  0.00    +0.000 A 
ATOM     10  C   UNL     1      -1.697  11.797  20.015  0.00  0.00    +0.000 A 
ATOM     11  C   UNL     1      -1.115  10.767  19.269  0.00  0.00    +0.000 A 
ATOM     12  C   UNL     1      -1.790  10.318  18.131  0.00  0.00    +0.000 A 
ATOM     13  C   UNL     1      -3.020  10.867  17.733  0.00  0.00    +0.000 A 
ATOM     14  C   UNL     1      -3.580  11.908  18.495  0.00  0.00    +0.000 A 
BRANCH   9  16
ATOM     15  C   UNL     1      -2.318  13.990  21.318  0.00  0.00    +0.000 C 
ATOM     16  O   UNL     1      -3.300  13.360  20.520  0.00  0.00    +0.000 OA
ENDBRANCH   9  16
BRANCH  13  17
ATOM     17  O   UNL     1      -3.483  10.265  16.596  0.00  0.00    +0.000 OA
ATOM     18  C   UNL     1      -2.994  10.626  15.318  0.00  0.00    +0.000 C 
ENDBRANCH  13  17
BRANCH  14  19
ATOM     19  O   UNL     1      -4.766  12.487  18.133  0.00  0.00    +0.000 OA
ATOM     20  H   UNL     1      -5.227  12.702  18.958  0.00  0.00    +0.000 HD
ENDBRANCH  14  19
ENDBRANCH   1  11
BRANCH   5  21
ATOM     21  C   UNL     1       2.581   6.197  19.073  0.00  0.00    +0.000 A 
ATOM     22  C   UNL     1       3.353   5.763  17.984  0.00  0.00    +0.000 A 
ATOM     23  C   UNL     1       3.403   4.419  17.584  0.00  0.00    +0.000 A 
ATOM     24  C   UNL     1       2.669   3.464  18.312  0.00  0.00    +0.000 A 
ATOM     25  C   UNL     1       1.891   3.886  19.421  0.00  0.00    +0.000 A 
ATOM     26  C   UNL     1       1.861   5.237  19.793  0.00  0.00    +0.000 A 
BRANCH  23  27
ATOM     27  O   UNL     1       4.149   4.007  16.510  0.00  0.00    +0.000 OA
ATOM     28  C   UNL     1       5.284   4.776  16.130  0.00  0.00    +0.000 C 
ENDBRANCH  23  27
BRANCH  24  29
ATOM     29  O   UNL     1       2.610   2.109  18.078  0.00  0.00    +0.000 OA
ATOM     30  C   UNL     1       3.683   1.276  18.487  0.00  0.00    +0.000 C 
ENDBRANCH  24  29
BRANCH  25  31
ATOM     31  O   UNL     1       1.198   2.898  20.084  0.00  0.00    +0.000 OA
ATOM     32  C   UNL     1       1.479   2.699  21.462  0.00  0.00    +0.000 C 
ENDBRANCH  25  31
ENDBRANCH   5  21
TORSDOF 8
ENDMDL
MODEL 8
REMARK VINA RESULT:      -7.0      0.868      8.810
REMARK  Name = 
REMARK  13 active torsions:
REMARK  status: ('A' for Active; 'I' for Inactive)
REMARK    1  A    between atoms: C_1  and  O_2
REMARK    2  A    between atoms: O_2  and  C_3
REMARK    3  A    between atoms: C_5  and  C_6
REMARK    4  A    between atoms: C_10  and  C_11
REMARK    5  A    between atoms: C_13  and  O_14
REMARK    6  A    between atoms: O_14  and  C_15
REMARK    7  A    between atoms: C_16  and  O_17
REMARK    8  A    between atoms: O_17  and  C_18
REMARK    9  A    between atoms: C_19  and  O_20
REMARK   10  A    between atoms: O_20  and  C_21
REMARK   11  A    between atoms: C_27  and  O_28
REMARK   12  A    between atoms: O_28  and  C_29
REMARK   13  A    between atoms: C_30  and  O_31
REMARK                            x       y       z     vdW  Elec       q    Type
REMARK                         _______ _______ _______ _____ _____    ______ ____
ROOT
ATOM      1  C   UNL     1       0.191  10.298  19.367  0.00  0.00    +0.000 C 
ATOM      2  O   UNL     1       0.303  10.204  20.796  0.00  0.00    +0.000 OA
ATOM      3  C   UNL     1       1.415   9.329  21.020  0.00  0.00    +0.000 C 
ATOM      4  C   UNL     1       1.276   8.226  19.982  0.00  0.00    +0.000 C 
ATOM      5  C   UNL     1       2.604   7.799  19.366  0.00  0.00    +0.000 C 
ATOM      6  O   UNL     1       2.762   8.653  18.214  0.00  0.00    +0.000 OA
ATOM      7  C   UNL     1       1.456   8.914  17.681  0.00  0.00    +0.000 C 
ATOM      8  C   UNL     1       0.508   8.895  18.856  0.00  0.00    +0.000 C 
ENDROOT
BRANCH   1  11
ATOM      9  C   UNL     1      -3.048  10.572  17.360  0.00  0.00    +0.000 A 
ATOM     10  C   UNL     1      -1.758  10.207  17.780  0.00  0.00    +0.000 A 
ATOM     11  C   UNL     1      -1.166  10.778  18.912  0.00  0.00    +0.000 A 
ATOM     12  C   UNL     1      -1.893  11.738  19.619  0.00  0.00    +0.000 A 
ATOM     13  C   UNL     1      -3.181  12.135  19.223  0.00  0.00    +0.000 A 
ATOM     14  C   UNL     1      -3.758  11.538  18.087  0.00  0.00    +0.000 A 
BRANCH   9  16
ATOM     15  C   UNL     1      -3.077  10.412  14.961  0.00  0.00    +0.000 C 
ATOM     16  O   UNL     1      -3.420   9.888  16.230  0.00  0.00    +0.000 OA
ENDBRANCH   9  16
BRANCH  13  17
ATOM     17  O   UNL     1      -3.686  13.083  20.068  0.00  0.00    +0.000 OA
ATOM     18  C   UNL     1      -3.337  13.112  21.438  0.00  0.00    +0.000 C 
ENDBRANCH  13  17
BRANCH  14  19
ATOM     19  O   UNL     1      -5.018  11.879  17.676  0.00  0.00    +0.000 OA
ATOM     20  H   UNL     1      -4.947  12.101  16.735  0.00  0.00    +0.000 HD
ENDBRANCH  14  19
ENDBRANCH   1  11
BRANCH   5  21
ATOM     21  C   UNL     1       2.676   6.327  18.979  0.00  0.00    +0.000 A 
ATOM     22  C   UNL     1       1.861   5.362  19.591  0.00  0.00    +0.000 A 
ATOM     23  C   UNL     1       1.891   4.008  19.227  0.00  0.00    +0.000 A 
ATOM     24  C   UNL     1       2.757   3.600  18.194  0.00  0.00    +0.000 A 
ATOM     25  C   UNL     1       3.581   4.564  17.559  0.00  0.00    +0.000 A 
ATOM     26  C   UNL     1       3.527   5.910  17.949  0.00  0.00    +0.000 A 
BRANCH  23  27
ATOM     27  O   UNL     1       1.101   3.071  19.841  0.00  0.00    +0.000 OA
ATOM     28  C   UNL     1       1.324   2.785  21.216  0.00  0.00    +0.000 C 
ENDBRANCH  23  27
BRANCH  24  29
ATOM     29  O   UNL     1       2.909   2.327  17.695  0.00  0.00    +0.000 OA
ATOM     30  C   UNL     1       3.641   1.363  18.433  0.00  0.00    +0.000 C 
ENDBRANCH  24  29
BRANCH  25  31
ATOM     31  O   UNL     1       4.402   4.093  16.559  0.00  0.00    +0.000 OA
ATOM     32  C   UNL     1       5.211   5.032  15.865  0.00  0.00    +0.000 C 
ENDBRANCH  25  31
ENDBRANCH   5  21
TORSDOF 8
ENDMDL
MODEL 9
REMARK VINA RESULT:      -6.9      1.121      2.594
REMARK  Name = 
REMARK  13 active torsions:
REMARK  status: ('A' for Active; 'I' for Inactive)
REMARK    1  A    between atoms: C_1  and  O_2
REMARK    2  A    between atoms: O_2  and  C_3
REMARK    3  A    between atoms: C_5  and  C_6
REMARK    4  A    between atoms: C_10  and  C_11
REMARK    5  A    between atoms: C_13  and  O_14
REMARK    6  A    between atoms: O_14  and  C_15
REMARK    7  A    between atoms: C_16  and  O_17
REMARK    8  A    between atoms: O_17  and  C_18
REMARK    9  A    between atoms: C_19  and  O_20
REMARK   10  A    between atoms: O_20  and  C_21
REMARK   11  A    between atoms: C_27  and  O_28
REMARK   12  A    between atoms: O_28  and  C_29
REMARK   13  A    between atoms: C_30  and  O_31
REMARK                            x       y       z     vdW  Elec       q    Type
REMARK                         _______ _______ _______ _____ _____    ______ ____
ROOT
ATOM      1  C   UNL     1       2.989   7.716  18.595  0.00  0.00    +0.000 C 
ATOM      2  O   UNL     1       3.571   8.499  17.540  0.00  0.00    +0.000 OA
ATOM      3  C   UNL     1       2.896   9.760  17.603  0.00  0.00    +0.000 C 
ATOM      4  C   UNL     1       1.437   9.423  17.870  0.00  0.00    +0.000 C 
ATOM      5  C   UNL     1       0.764  10.371  18.857  0.00  0.00    +0.000 C 
ATOM      6  O   UNL     1       0.982   9.766  20.149  0.00  0.00    +0.000 OA
ATOM      7  C   UNL     1       0.971   8.342  19.971  0.00  0.00    +0.000 C 
ATOM      8  C   UNL     1       1.508   8.085  18.583  0.00  0.00    +0.000 C 
ENDROOT
BRANCH   1  11
ATOM      9  C   UNL     1       4.741   4.325  18.460  0.00  0.00    +0.000 A 
ATOM     10  C   UNL     1       4.498   5.706  18.546  0.00  0.00    +0.000 A 
ATOM     11  C   UNL     1       3.209   6.233  18.420  0.00  0.00    +0.000 A 
ATOM     12  C   UNL     1       2.155   5.344  18.198  0.00  0.00    +0.000 A 
ATOM     13  C   UNL     1       2.361   3.958  18.097  0.00  0.00    +0.000 A 
ATOM     14  C   UNL     1       3.667   3.452  18.236  0.00  0.00    +0.000 A 
BRANCH   9  16
ATOM     15  C   UNL     1       7.036   4.937  18.087  0.00  0.00    +0.000 C 
ATOM     16  O   UNL     1       6.076   4.039  18.608  0.00  0.00    +0.000 OA
ENDBRANCH   9  16
BRANCH  13  17
ATOM     17  O   UNL     1       1.184   3.299  17.878  0.00  0.00    +0.000 OA
ATOM     18  C   UNL     1       0.596   2.486  18.875  0.00  0.00    +0.000 C 
ENDBRANCH  13  17
BRANCH  14  19
ATOM     19  O   UNL     1       3.912   2.108  18.165  0.00  0.00    +0.000 OA
ATOM     20  H   UNL     1       4.092   1.815  19.072  0.00  0.00    +0.000 HD
ENDBRANCH  14  19
ENDBRANCH   1  11
BRANCH   5  21
ATOM     21  C   UNL     1      -0.719  10.606  18.597  0.00  0.00    +0.000 A 
ATOM     22  C   UNL     1      -1.488  11.445  19.419  0.00  0.00    +0.000 A 
ATOM     23  C   UNL     1      -2.846  11.698  19.177  0.00  0.00    +0.000 A 
ATOM     24  C   UNL     1      -3.461  11.105  18.057  0.00  0.00    +0.000 A 
ATOM     25  C   UNL     1      -2.696  10.261  17.212  0.00  0.00    +0.000 A 
ATOM     26  C   UNL     1      -1.340  10.028  17.483  0.00  0.00    +0.000 A 
BRANCH  23  27
ATOM     27  O   UNL     1      -3.592  12.508  19.994  0.00  0.00    +0.000 OA
ATOM     28  C   UNL     1      -3.053  12.892  21.252  0.00  0.00    +0.000 C 
ENDBRANCH  23  27
BRANCH  24  29
ATOM     29  O   UNL     1      -4.769  11.250  17.657  0.00  0.00    +0.000 OA
ATOM     30  C   UNL     1      -5.809  10.658  18.417  0.00  0.00    +0.000 C 
ENDBRANCH  24  29
BRANCH  25  31
ATOM     31  O   UNL     1      -3.362   9.715  16.139  0.00  0.00    +0.000 OA
ATOM     32  C   UNL     1      -2.989  10.143  14.836  0.00  0.00    +0.000 C 
ENDBRANCH  25  31
ENDBRANCH   5  21
TORSDOF 8
ENDMDL
