MODEL 1
REMARK VINA RESULT:      -9.0      0.000      0.000
REMARK  Name = 
REMARK  6 active torsions:
REMARK  status: ('A' for Active; 'I' for Inactive)
REMARK    1  A    between atoms: C_2  and  C_3
REMARK    2  A    between atoms: C_2  and  C_25
REMARK    3  A    between atoms: C_3  and  O_4
REMARK    4  A    between atoms: O_4  and  C_5
REMARK    5  A    between atoms: C_5  and  C_7
REMARK    6  A    between atoms: C_12  and  N_13
REMARK                            x       y       z     vdW  Elec       q    Type
REMARK                         _______ _______ _______ _____ _____    ______ ____
ROOT
ATOM      1  C   UNL     1       2.302   4.671  19.832  0.00  0.00    +0.000 A 
ATOM      2  C   UNL     1       1.575   4.363  20.994  0.00  0.00    +0.000 A 
ATOM      3  C   UNL     1       1.886   3.226  21.745  0.00  0.00    +0.000 A 
ATOM      4  C   UNL     1       2.935   2.396  21.358  0.00  0.00    +0.000 A 
ATOM      5  C   UNL     1       3.663   2.687  20.201  0.00  0.00    +0.000 A 
ATOM      6  C   UNL     1       3.338   3.800  19.412  0.00  0.00    +0.000 A 
ENDROOT
BRANCH   6   7
ATOM      7  N   UNL     1       4.144   4.099  18.292  0.00  0.00    +0.000 N 
ATOM      8  C   UNL     1       5.387   4.691  18.370  0.00  0.00    +0.000 C 
ATOM      9  O   UNL     1       5.799   5.431  19.254  0.00  0.00    +0.000 OA
ATOM     10  C   UNL     1       6.168   4.315  17.128  0.00  0.00    +0.000 C 
ATOM     11  C   UNL     1       6.700   5.492  16.292  0.00  0.00    +0.000 C 
ATOM     12  C   UNL     1       7.454   4.964  15.050  0.00  0.00    +0.000 C 
ATOM     13  C   UNL     1       6.339   4.317  14.206  0.00  0.00    +0.000 C 
ATOM     14  C   UNL     1       5.074   4.639  15.019  0.00  0.00    +0.000 C 
ATOM     15  C   UNL     1       5.424   6.004  15.629  0.00  0.00    +0.000 C 
ATOM     16  C   UNL     1       5.104   3.687  16.222  0.00  0.00    +0.000 C 
ATOM     17  C   UNL     1       3.845   3.641  17.037  0.00  0.00    +0.000 C 
ATOM     18  O   UNL     1       2.773   3.235  16.612  0.00  0.00    +0.000 OA
ENDBRANCH   6   7
BRANCH   1  19
ATOM     19  C   UNL     1       2.104   6.000  19.168  0.00  0.00    +0.000 C 
ATOM     20  O   UNL     1       1.752   6.166  18.011  0.00  0.00    +0.000 OA
BRANCH  19  21
ATOM     21  O   UNL     1       2.536   7.014  19.968  0.00  0.00    +0.000 OA
BRANCH  21  22
ATOM     22  C   UNL     1       1.483   7.562  20.785  0.00  0.00    +0.000 C 
BRANCH  22  24
ATOM     23  O   UNL     1       1.474   9.348  19.154  0.00  0.00    +0.000 OA
ATOM     24  C   UNL     1       1.092   8.938  20.253  0.00  0.00    +0.000 C 
BRANCH  24  25
ATOM     25  C   UNL     1       0.254   9.839  21.092  0.00  0.00    +0.000 A 
ATOM     26  C   UNL     1      -0.170  11.100  20.659  0.00  0.00    +0.000 A 
ATOM     27  C   UNL     1      -0.917  11.915  21.518  0.00  0.00    +0.000 A 
ATOM     28  C   UNL     1      -1.247  11.473  22.800  0.00  0.00    +0.000 A 
ATOM     29  C   UNL     1      -0.832  10.216  23.232  0.00  0.00    +0.000 A 
ATOM     30  C   UNL     1      -0.080   9.404  22.382  0.00  0.00    +0.000 A 
ENDBRANCH  24  25
ENDBRANCH  22  24
ENDBRANCH  21  22
ENDBRANCH  19  21
ENDBRANCH   1  19
TORSDOF 6
ENDMDL
MODEL 2
REMARK VINA RESULT:      -8.9      3.738      8.249
REMARK  Name = 
REMARK  6 active torsions:
REMARK  status: ('A' for Active; 'I' for Inactive)
REMARK    1  A    between atoms: C_2  and  C_3
REMARK    2  A    between atoms: C_2  and  C_25
REMARK    3  A    between atoms: C_3  and  O_4
REMARK    4  A    between atoms: O_4  and  C_5
REMARK    5  A    between atoms: C_5  and  C_7
REMARK    6  A    between atoms: C_12  and  N_13
REMARK                            x       y       z     vdW  Elec       q    Type
REMARK                         _______ _______ _______ _____ _____    ______ ____
ROOT
ATOM      1  C   UNL     1       5.964   6.733  17.533  0.00  0.00    +0.000 A 
ATOM      2  C   UNL     1       7.189   7.414  17.435  0.00  0.00    +0.000 A 
ATOM      3  C   UNL     1       8.241   7.111  18.304  0.00  0.00    +0.000 A 
ATOM      4  C   UNL     1       8.090   6.115  19.266  0.00  0.00    +0.000 A 
ATOM      5  C   UNL     1       6.875   5.435  19.379  0.00  0.00    +0.000 A 
ATOM      6  C   UNL     1       5.796   5.754  18.543  0.00  0.00    +0.000 A 
ENDROOT
BRANCH   6   7
ATOM      7  N   UNL     1       4.610   4.992  18.641  0.00  0.00    +0.000 N 
ATOM      8  C   UNL     1       4.454   3.733  18.102  0.00  0.00    +0.000 C 
ATOM      9  O   UNL     1       5.045   3.263  17.139  0.00  0.00    +0.000 OA
ATOM     10  C   UNL     1       3.366   3.019  18.879  0.00  0.00    +0.000 C 
ATOM     11  C   UNL     1       2.184   2.496  18.044  0.00  0.00    +0.000 C 
ATOM     12  C   UNL     1       1.145   1.814  18.963  0.00  0.00    +0.000 C 
ATOM     13  C   UNL     1       0.588   2.982  19.798  0.00  0.00    +0.000 C 
ATOM     14  C   UNL     1       1.303   4.199  19.190  0.00  0.00    +0.000 C 
ATOM     15  C   UNL     1       1.439   3.788  17.717  0.00  0.00    +0.000 C 
ATOM     16  C   UNL     1       2.742   4.139  19.718  0.00  0.00    +0.000 C 
ATOM     17  C   UNL     1       3.575   5.360  19.458  0.00  0.00    +0.000 C 
ATOM     18  O   UNL     1       3.337   6.460  19.936  0.00  0.00    +0.000 OA
ENDBRANCH   6   7
BRANCH   1  19
ATOM     19  C   UNL     1       4.933   6.912  16.461  0.00  0.00    +0.000 C 
ATOM     20  O   UNL     1       3.751   7.153  16.650  0.00  0.00    +0.000 OA
BRANCH  19  21
ATOM     21  O   UNL     1       5.443   6.598  15.237  0.00  0.00    +0.000 OA
BRANCH  21  22
ATOM     22  C   UNL     1       5.473   5.177  14.997  0.00  0.00    +0.000 C 
BRANCH  22  24
ATOM     23  O   UNL     1       7.683   5.428  14.049  0.00  0.00    +0.000 OA
ATOM     24  C   UNL     1       6.593   4.854  14.012  0.00  0.00    +0.000 C 
BRANCH  24  25
ATOM     25  C   UNL     1       6.363   3.840  12.945  0.00  0.00    +0.000 A 
ATOM     26  C   UNL     1       7.407   3.185  12.284  0.00  0.00    +0.000 A 
ATOM     27  C   UNL     1       7.119   2.277  11.257  0.00  0.00    +0.000 A 
ATOM     28  C   UNL     1       5.797   2.018  10.895  0.00  0.00    +0.000 A 
ATOM     29  C   UNL     1       4.755   2.664  11.555  0.00  0.00    +0.000 A 
ATOM     30  C   UNL     1       5.037   3.575  12.573  0.00  0.00    +0.000 A 
ENDBRANCH  24  25
ENDBRANCH  22  24
ENDBRANCH  21  22
ENDBRANCH  19  21
ENDBRANCH   1  19
TORSDOF 6
ENDMDL
MODEL 3
REMARK VINA RESULT:      -8.8      1.017      1.502
REMARK  Name = 
REMARK  6 active torsions:
REMARK  status: ('A' for Active; 'I' for Inactive)
REMARK    1  A    between atoms: C_2  and  C_3
REMARK    2  A    between atoms: C_2  and  C_25
REMARK    3  A    between atoms: C_3  and  O_4
REMARK    4  A    between atoms: O_4  and  C_5
REMARK    5  A    between atoms: C_5  and  C_7
REMARK    6  A    between atoms: C_12  and  N_13
REMARK                            x       y       z     vdW  Elec       q    Type
REMARK                         _______ _______ _______ _____ _____    ______ ____
ROOT
ATOM      1  C   UNL     1       2.335   4.781  19.863  0.00  0.00    +0.000 A 
ATOM      2  C   UNL     1       1.610   4.491  21.032  0.00  0.00    +0.000 A 
ATOM      3  C   UNL     1       1.873   3.326  21.759  0.00  0.00    +0.000 A 
ATOM      4  C   UNL     1       2.870   2.449  21.341  0.00  0.00    +0.000 A 
ATOM      5  C   UNL     1       3.594   2.722  20.176  0.00  0.00    +0.000 A 
ATOM      6  C   UNL     1       3.317   3.864  19.413  0.00  0.00    +0.000 A 
ENDROOT
BRANCH   6   7
ATOM      7  N   UNL     1       4.120   4.140  18.284  0.00  0.00    +0.000 N 
ATOM      8  C   UNL     1       5.370   4.718  18.349  0.00  0.00    +0.000 C 
ATOM      9  O   UNL     1       5.796   5.463  19.222  0.00  0.00    +0.000 OA
ATOM     10  C   UNL     1       6.140   4.318  17.107  0.00  0.00    +0.000 C 
ATOM     11  C   UNL     1       6.682   5.478  16.255  0.00  0.00    +0.000 C 
ATOM     12  C   UNL     1       7.423   4.926  15.015  0.00  0.00    +0.000 C 
ATOM     13  C   UNL     1       6.295   4.284  14.185  0.00  0.00    +0.000 C 
ATOM     14  C   UNL     1       5.040   4.630  15.001  0.00  0.00    +0.000 C 
ATOM     15  C   UNL     1       5.409   5.998  15.592  0.00  0.00    +0.000 C 
ATOM     16  C   UNL     1       5.064   3.692  16.214  0.00  0.00    +0.000 C 
ATOM     17  C   UNL     1       3.809   3.671  17.037  0.00  0.00    +0.000 C 
ATOM     18  O   UNL     1       2.730   3.272  16.622  0.00  0.00    +0.000 OA
ENDBRANCH   6   7
BRANCH   1  19
ATOM     19  C   UNL     1       2.197   6.129  19.225  0.00  0.00    +0.000 C 
ATOM     20  O   UNL     1       2.217   6.348  18.025  0.00  0.00    +0.000 OA
BRANCH  19  21
ATOM     21  O   UNL     1       2.221   7.117  20.163  0.00  0.00    +0.000 OA
BRANCH  21  22
ATOM     22  C   UNL     1       1.804   8.392  19.636  0.00  0.00    +0.000 C 
BRANCH  22  24
ATOM     23  O   UNL     1       0.779   8.726  21.801  0.00  0.00    +0.000 OA
ATOM     24  C   UNL     1       0.836   9.053  20.613  0.00  0.00    +0.000 C 
BRANCH  24  25
ATOM     25  C   UNL     1      -0.101  10.102  20.123  0.00  0.00    +0.000 A 
ATOM     26  C   UNL     1      -0.675  11.060  20.966  0.00  0.00    +0.000 A 
ATOM     27  C   UNL     1      -1.585  11.988  20.445  0.00  0.00    +0.000 A 
ATOM     28  C   UNL     1      -1.916  11.967  19.090  0.00  0.00    +0.000 A 
ATOM     29  C   UNL     1      -1.342  11.020  18.247  0.00  0.00    +0.000 A 
ATOM     30  C   UNL     1      -0.441  10.088  18.763  0.00  0.00    +0.000 A 
ENDBRANCH  24  25
ENDBRANCH  22  24
ENDBRANCH  21  22
ENDBRANCH  19  21
ENDBRANCH   1  19
TORSDOF 6
ENDMDL
MODEL 4
REMARK VINA RESULT:      -8.8      1.366      4.925
REMARK  Name = 
REMARK  6 active torsions:
REMARK  status: ('A' for Active; 'I' for Inactive)
REMARK    1  A    between atoms: C_2  and  C_3
REMARK    2  A    between atoms: C_2  and  C_25
REMARK    3  A    between atoms: C_3  and  O_4
REMARK    4  A    between atoms: O_4  and  C_5
REMARK    5  A    between atoms: C_5  and  C_7
REMARK    6  A    between atoms: C_12  and  N_13
REMARK                            x       y       z     vdW  Elec       q    Type
REMARK                         _______ _______ _______ _____ _____    ______ ____
ROOT
ATOM      1  C   UNL     1       5.418   5.651  16.372  0.00  0.00    +0.000 A 
ATOM      2  C   UNL     1       6.165   5.901  15.208  0.00  0.00    +0.000 A 
ATOM      3  C   UNL     1       6.430   4.872  14.300  0.00  0.00    +0.000 A 
ATOM      4  C   UNL     1       5.939   3.590  14.531  0.00  0.00    +0.000 A 
ATOM      5  C   UNL     1       5.200   3.325  15.687  0.00  0.00    +0.000 A 
ATOM      6  C   UNL     1       4.959   4.335  16.629  0.00  0.00    +0.000 A 
ENDROOT
BRANCH   6   7
ATOM      7  N   UNL     1       4.146   4.043  17.747  0.00  0.00    +0.000 N 
ATOM      8  C   UNL     1       2.815   3.693  17.664  0.00  0.00    +0.000 C 
ATOM      9  O   UNL     1       2.027   3.990  16.776  0.00  0.00    +0.000 OA
ATOM     10  C   UNL     1       2.457   2.902  18.905  0.00  0.00    +0.000 C 
ATOM     11  C   UNL     1       1.288   3.457  19.736  0.00  0.00    +0.000 C 
ATOM     12  C   UNL     1       1.049   2.568  20.979  0.00  0.00    +0.000 C 
ATOM     13  C   UNL     1       2.314   2.796  21.827  0.00  0.00    +0.000 C 
ATOM     14  C   UNL     1       3.075   3.857  21.016  0.00  0.00    +0.000 C 
ATOM     15  C   UNL     1       1.928   4.673  20.401  0.00  0.00    +0.000 C 
ATOM     16  C   UNL     1       3.672   3.110  19.816  0.00  0.00    +0.000 C 
ATOM     17  C   UNL     1       4.666   3.888  19.004  0.00  0.00    +0.000 C 
ATOM     18  O   UNL     1       5.745   4.270  19.433  0.00  0.00    +0.000 OA
ENDBRANCH   6   7
BRANCH   1  19
ATOM     19  C   UNL     1       4.956   6.800  17.214  0.00  0.00    +0.000 C 
ATOM     20  O   UNL     1       5.614   7.346  18.086  0.00  0.00    +0.000 OA
BRANCH  19  21
ATOM     21  O   UNL     1       3.634   7.057  17.007  0.00  0.00    +0.000 OA
BRANCH  21  22
ATOM     22  C   UNL     1       2.904   7.227  18.237  0.00  0.00    +0.000 C 
BRANCH  22  24
ATOM     23  O   UNL     1       2.166   9.288  17.210  0.00  0.00    +0.000 OA
ATOM     24  C   UNL     1       2.135   8.545  18.193  0.00  0.00    +0.000 C 
BRANCH  24  25
ATOM     25  C   UNL     1       1.348   8.977  19.381  0.00  0.00    +0.000 A 
ATOM     26  C   UNL     1       1.416   8.320  20.615  0.00  0.00    +0.000 A 
ATOM     27  C   UNL     1       0.612   8.752  21.677  0.00  0.00    +0.000 A 
ATOM     28  C   UNL     1      -0.250   9.837  21.514  0.00  0.00    +0.000 A 
ATOM     29  C   UNL     1      -0.315  10.497  20.290  0.00  0.00    +0.000 A 
ATOM     30  C   UNL     1       0.477  10.065  19.226  0.00  0.00    +0.000 A 
ENDBRANCH  24  25
ENDBRANCH  22  24
ENDBRANCH  21  22
ENDBRANCH  19  21
ENDBRANCH   1  19
TORSDOF 6
ENDMDL
MODEL 5
REMARK VINA RESULT:      -8.7      3.607      7.179
REMARK  Name = 
REMARK  6 active torsions:
REMARK  status: ('A' for Active; 'I' for Inactive)
REMARK    1  A    between atoms: C_2  and  C_3
REMARK    2  A    between atoms: C_2  and  C_25
REMARK    3  A    between atoms: C_3  and  O_4
REMARK    4  A    between atoms: O_4  and  C_5
REMARK    5  A    between atoms: C_5  and  C_7
REMARK    6  A    between atoms: C_12  and  N_13
REMARK                            x       y       z     vdW  Elec       q    Type
REMARK                         _______ _______ _______ _____ _____    ______ ____
ROOT
ATOM      1  C   UNL     1       6.790   4.967  16.555  0.00  0.00    +0.000 A 
ATOM      2  C   UNL     1       7.645   5.055  15.444  0.00  0.00    +0.000 A 
ATOM      3  C   UNL     1       7.178   4.748  14.162  0.00  0.00    +0.000 A 
ATOM      4  C   UNL     1       5.852   4.371  13.972  0.00  0.00    +0.000 A 
ATOM      5  C   UNL     1       4.991   4.273  15.070  0.00  0.00    +0.000 A 
ATOM      6  C   UNL     1       5.453   4.536  16.366  0.00  0.00    +0.000 A 
ENDROOT
BRANCH   6   7
ATOM      7  N   UNL     1       4.533   4.498  17.437  0.00  0.00    +0.000 N 
ATOM      8  C   UNL     1       4.279   3.376  18.198  0.00  0.00    +0.000 C 
ATOM      9  O   UNL     1       4.406   2.208  17.856  0.00  0.00    +0.000 OA
ATOM     10  C   UNL     1       3.753   3.828  19.545  0.00  0.00    +0.000 C 
ATOM     11  C   UNL     1       2.382   3.261  19.951  0.00  0.00    +0.000 C 
ATOM     12  C   UNL     1       1.962   3.821  21.329  0.00  0.00    +0.000 C 
ATOM     13  C   UNL     1       1.733   5.318  21.049  0.00  0.00    +0.000 C 
ATOM     14  C   UNL     1       1.954   5.413  19.531  0.00  0.00    +0.000 C 
ATOM     15  C   UNL     1       1.439   4.050  19.046  0.00  0.00    +0.000 C 
ATOM     16  C   UNL     1       3.473   5.319  19.329  0.00  0.00    +0.000 C 
ATOM     17  C   UNL     1       3.958   5.632  17.944  0.00  0.00    +0.000 C 
ATOM     18  O   UNL     1       3.854   6.731  17.418  0.00  0.00    +0.000 OA
ENDBRANCH   6   7
BRANCH   1  19
ATOM     19  C   UNL     1       7.240   5.509  17.877  0.00  0.00    +0.000 C 
ATOM     20  O   UNL     1       7.592   4.836  18.833  0.00  0.00    +0.000 OA
BRANCH  19  21
ATOM     21  O   UNL     1       7.043   6.855  17.946  0.00  0.00    +0.000 OA
BRANCH  21  22
ATOM     22  C   UNL     1       8.217   7.565  18.387  0.00  0.00    +0.000 C 
BRANCH  22  24
ATOM     23  O   UNL     1       7.269   9.423  17.163  0.00  0.00    +0.000 OA
ATOM     24  C   UNL     1       8.104   9.032  17.981  0.00  0.00    +0.000 C 
BRANCH  24  25
ATOM     25  C   UNL     1       9.051  10.028  18.556  0.00  0.00    +0.000 A 
ATOM     26  C   UNL     1       9.939  10.770  17.772  0.00  0.00    +0.000 A 
ATOM     27  C   UNL     1      10.835  11.655  18.384  0.00  0.00    +0.000 A 
ATOM     28  C   UNL     1      10.841  11.806  19.771  0.00  0.00    +0.000 A 
ATOM     29  C   UNL     1       9.953  11.073  20.555  0.00  0.00    +0.000 A 
ATOM     30  C   UNL     1       9.065  10.184  19.950  0.00  0.00    +0.000 A 
ENDBRANCH  24  25
ENDBRANCH  22  24
ENDBRANCH  21  22
ENDBRANCH  19  21
ENDBRANCH   1  19
TORSDOF 6
ENDMDL
MODEL 6
REMARK VINA RESULT:      -8.6      3.271      6.876
REMARK  Name = 
REMARK  6 active torsions:
REMARK  status: ('A' for Active; 'I' for Inactive)
REMARK    1  A    between atoms: C_2  and  C_3
REMARK    2  A    between atoms: C_2  and  C_25
REMARK    3  A    between atoms: C_3  and  O_4
REMARK    4  A    between atoms: O_4  and  C_5
REMARK    5  A    between atoms: C_5  and  C_7
REMARK    6  A    between atoms: C_12  and  N_13
REMARK                            x       y       z     vdW  Elec       q    Type
REMARK                         _______ _______ _______ _____ _____    ______ ____
ROOT
ATOM      1  C   UNL     1       6.509   4.441  16.477  0.00  0.00    +0.000 A 
ATOM      2  C   UNL     1       7.389   4.546  15.387  0.00  0.00    +0.000 A 
ATOM      3  C   UNL     1       6.905   4.507  14.076  0.00  0.00    +0.000 A 
ATOM      4  C   UNL     1       5.538   4.383  13.838  0.00  0.00    +0.000 A 
ATOM      5  C   UNL     1       4.652   4.271  14.913  0.00  0.00    +0.000 A 
ATOM      6  C   UNL     1       5.124   4.266  16.233  0.00  0.00    +0.000 A 
ENDROOT
BRANCH   6   7
ATOM      7  N   UNL     1       4.188   4.226  17.290  0.00  0.00    +0.000 N 
ATOM      8  C   UNL     1       3.563   5.338  17.813  0.00  0.00    +0.000 C 
ATOM      9  O   UNL     1       3.982   6.488  17.813  0.00  0.00    +0.000 OA
ATOM     10  C   UNL     1       2.264   4.893  18.451  0.00  0.00    +0.000 C 
ATOM     11  C   UNL     1       2.089   5.260  19.934  0.00  0.00    +0.000 C 
ATOM     12  C   UNL     1       0.735   4.728  20.458  0.00  0.00    +0.000 C 
ATOM     13  C   UNL     1       0.917   3.199  20.421  0.00  0.00    +0.000 C 
ATOM     14  C   UNL     1       2.380   3.046  19.975  0.00  0.00    +0.000 C 
ATOM     15  C   UNL     1       3.039   4.277  20.612  0.00  0.00    +0.000 C 
ATOM     16  C   UNL     1       2.389   3.366  18.474  0.00  0.00    +0.000 C 
ATOM     17  C   UNL     1       3.668   3.048  17.756  0.00  0.00    +0.000 C 
ATOM     18  O   UNL     1       4.109   1.916  17.621  0.00  0.00    +0.000 OA
ENDBRANCH   6   7
BRANCH   1  19
ATOM     19  C   UNL     1       7.014   4.707  17.862  0.00  0.00    +0.000 C 
ATOM     20  O   UNL     1       6.470   4.345  18.893  0.00  0.00    +0.000 OA
BRANCH  19  21
ATOM     21  O   UNL     1       8.076   5.560  17.839  0.00  0.00    +0.000 OA
BRANCH  21  22
ATOM     22  C   UNL     1       7.877   6.714  18.680  0.00  0.00    +0.000 C 
BRANCH  22  24
ATOM     23  O   UNL     1       6.982   7.894  16.768  0.00  0.00    +0.000 OA
ATOM     24  C   UNL     1       7.646   7.943  17.806  0.00  0.00    +0.000 C 
BRANCH  24  25
ATOM     25  C   UNL     1       8.267   9.243  18.187  0.00  0.00    +0.000 A 
ATOM     26  C   UNL     1       8.110  10.409  17.430  0.00  0.00    +0.000 A 
ATOM     27  C   UNL     1       8.761  11.584  17.821  0.00  0.00    +0.000 A 
ATOM     28  C   UNL     1       9.559  11.602  18.966  0.00  0.00    +0.000 A 
ATOM     29  C   UNL     1       9.712  10.445  19.725  0.00  0.00    +0.000 A 
ATOM     30  C   UNL     1       9.072   9.268  19.334  0.00  0.00    +0.000 A 
ENDBRANCH  24  25
ENDBRANCH  22  24
ENDBRANCH  21  22
ENDBRANCH  19  21
ENDBRANCH   1  19
TORSDOF 6
ENDMDL
MODEL 7
REMARK VINA RESULT:      -8.5      3.827      7.331
REMARK  Name = 
REMARK  6 active torsions:
REMARK  status: ('A' for Active; 'I' for Inactive)
REMARK    1  A    between atoms: C_2  and  C_3
REMARK    2  A    between atoms: C_2  and  C_25
REMARK    3  A    between atoms: C_3  and  O_4
REMARK    4  A    between atoms: O_4  and  C_5
REMARK    5  A    between atoms: C_5  and  C_7
REMARK    6  A    between atoms: C_12  and  N_13
REMARK                            x       y       z     vdW  Elec       q    Type
REMARK                         _______ _______ _______ _____ _____    ______ ____
ROOT
ATOM      1  C   UNL     1       6.885   5.252  16.261  0.00  0.00    +0.000 A 
ATOM      2  C   UNL     1       7.730   5.231  15.138  0.00  0.00    +0.000 A 
ATOM      3  C   UNL     1       7.264   4.756  13.908  0.00  0.00    +0.000 A 
ATOM      4  C   UNL     1       5.949   4.317  13.780  0.00  0.00    +0.000 A 
ATOM      5  C   UNL     1       5.100   4.326  14.890  0.00  0.00    +0.000 A 
ATOM      6  C   UNL     1       5.561   4.760  16.140  0.00  0.00    +0.000 A 
ENDROOT
BRANCH   6   7
ATOM      7  N   UNL     1       4.651   4.823  17.218  0.00  0.00    +0.000 N 
ATOM      8  C   UNL     1       4.374   3.765  18.058  0.00  0.00    +0.000 C 
ATOM      9  O   UNL     1       4.465   2.572  17.799  0.00  0.00    +0.000 OA
ATOM     10  C   UNL     1       3.873   4.326  19.373  0.00  0.00    +0.000 C 
ATOM     11  C   UNL     1       2.490   3.827  19.828  0.00  0.00    +0.000 C 
ATOM     12  C   UNL     1       2.098   4.495  21.166  0.00  0.00    +0.000 C 
ATOM     13  C   UNL     1       1.907   5.974  20.782  0.00  0.00    +0.000 C 
ATOM     14  C   UNL     1       2.117   5.955  19.259  0.00  0.00    +0.000 C 
ATOM     15  C   UNL     1       1.561   4.576  18.876  0.00  0.00    +0.000 C 
ATOM     16  C   UNL     1       3.631   5.805  19.054  0.00  0.00    +0.000 C 
ATOM     17  C   UNL     1       4.112   6.006  17.647  0.00  0.00    +0.000 C 
ATOM     18  O   UNL     1       4.033   7.067  17.045  0.00  0.00    +0.000 OA
ENDBRANCH   6   7
BRANCH   1  19
ATOM     19  C   UNL     1       7.326   5.964  17.503  0.00  0.00    +0.000 C 
ATOM     20  O   UNL     1       7.383   5.470  18.617  0.00  0.00    +0.000 OA
BRANCH  19  21
ATOM     21  O   UNL     1       7.494   7.296  17.268  0.00  0.00    +0.000 OA
BRANCH  21  22
ATOM     22  C   UNL     1       8.264   7.947  18.297  0.00  0.00    +0.000 C 
BRANCH  22  24
ATOM     23  O   UNL     1       7.407   9.994  17.338  0.00  0.00    +0.000 OA
ATOM     24  C   UNL     1       8.240   9.456  18.071  0.00  0.00    +0.000 C 
BRANCH  24  25
ATOM     25  C   UNL     1       9.270  10.313  18.720  0.00  0.00    +0.000 A 
ATOM     26  C   UNL     1       9.284  10.573  20.095  0.00  0.00    +0.000 A 
ATOM     27  C   UNL     1      10.255  11.426  20.631  0.00  0.00    +0.000 A 
ATOM     28  C   UNL     1      11.214  12.013  19.804  0.00  0.00    +0.000 A 
ATOM     29  C   UNL     1      11.207  11.752  18.436  0.00  0.00    +0.000 A 
ATOM     30  C   UNL     1      10.236  10.909  17.896  0.00  0.00    +0.000 A 
ENDBRANCH  24  25
ENDBRANCH  22  24
ENDBRANCH  21  22
ENDBRANCH  19  21
ENDBRANCH   1  19
TORSDOF 6
ENDMDL
MODEL 8
REMARK VINA RESULT:      -8.4      1.480      1.716
REMARK  Name = 
REMARK  6 active torsions:
REMARK  status: ('A' for Active; 'I' for Inactive)
REMARK    1  A    between atoms: C_2  and  C_3
REMARK    2  A    between atoms: C_2  and  C_25
REMARK    3  A    between atoms: C_3  and  O_4
REMARK    4  A    between atoms: O_4  and  C_5
REMARK    5  A    between atoms: C_5  and  C_7
REMARK    6  A    between atoms: C_12  and  N_13
REMARK                            x       y       z     vdW  Elec       q    Type
REMARK                         _______ _______ _______ _____ _____    ______ ____
ROOT
ATOM      1  C   UNL     1       2.250   4.626  19.748  0.00  0.00    +0.000 A 
ATOM      2  C   UNL     1       1.519   4.336  20.912  0.00  0.00    +0.000 A 
ATOM      3  C   UNL     1       1.872   3.252  21.720  0.00  0.00    +0.000 A 
ATOM      4  C   UNL     1       2.967   2.458  21.388  0.00  0.00    +0.000 A 
ATOM      5  C   UNL     1       3.699   2.732  20.230  0.00  0.00    +0.000 A 
ATOM      6  C   UNL     1       3.335   3.789  19.386  0.00  0.00    +0.000 A 
ENDROOT
BRANCH   6   7
ATOM      7  N   UNL     1       4.145   4.076  18.265  0.00  0.00    +0.000 N 
ATOM      8  C   UNL     1       5.378   4.688  18.340  0.00  0.00    +0.000 C 
ATOM      9  O   UNL     1       5.773   5.452  19.211  0.00  0.00    +0.000 OA
ATOM     10  C   UNL     1       6.174   4.297  17.112  0.00  0.00    +0.000 C 
ATOM     11  C   UNL     1       6.696   5.463  16.255  0.00  0.00    +0.000 C 
ATOM     12  C   UNL     1       7.467   4.920  15.029  0.00  0.00    +0.000 C 
ATOM     13  C   UNL     1       6.368   4.240  14.192  0.00  0.00    +0.000 C 
ATOM     14  C   UNL     1       5.093   4.560  14.988  0.00  0.00    +0.000 C 
ATOM     15  C   UNL     1       5.418   5.943  15.571  0.00  0.00    +0.000 C 
ATOM     16  C   UNL     1       5.127   3.634  16.211  0.00  0.00    +0.000 C 
ATOM     17  C   UNL     1       3.862   3.587  17.018  0.00  0.00    +0.000 C 
ATOM     18  O   UNL     1       2.800   3.156  16.594  0.00  0.00    +0.000 OA
ENDBRANCH   6   7
BRANCH   1  19
ATOM     19  C   UNL     1       1.999   5.912  19.019  0.00  0.00    +0.000 C 
ATOM     20  O   UNL     1       1.488   6.010  17.915  0.00  0.00    +0.000 OA
BRANCH  19  21
ATOM     21  O   UNL     1       2.574   6.961  19.670  0.00  0.00    +0.000 OA
BRANCH  21  22
ATOM     22  C   UNL     1       1.639   8.023  19.943  0.00  0.00    +0.000 C 
BRANCH  22  24
ATOM     23  O   UNL     1       2.607   9.034  17.971  0.00  0.00    +0.000 OA
ATOM     24  C   UNL     1       1.752   9.090  18.858  0.00  0.00    +0.000 C 
BRANCH  24  25
ATOM     25  C   UNL     1       0.831  10.260  18.879  0.00  0.00    +0.000 A 
ATOM     26  C   UNL     1      -0.558  10.130  18.971  0.00  0.00    +0.000 A 
ATOM     27  C   UNL     1      -1.367  11.272  18.938  0.00  0.00    +0.000 A 
ATOM     28  C   UNL     1      -0.795  12.539  18.822  0.00  0.00    +0.000 A 
ATOM     29  C   UNL     1       0.588  12.673  18.737  0.00  0.00    +0.000 A 
ATOM     30  C   UNL     1       1.398  11.537  18.761  0.00  0.00    +0.000 A 
ENDBRANCH  24  25
ENDBRANCH  22  24
ENDBRANCH  21  22
ENDBRANCH  19  21
ENDBRANCH   1  19
TORSDOF 6
ENDMDL
MODEL 9
REMARK VINA RESULT:      -8.4      1.410      4.744
REMARK  Name = 
REMARK  6 active torsions:
REMARK  status: ('A' for Active; 'I' for Inactive)
REMARK    1  A    between atoms: C_2  and  C_3
REMARK    2  A    between atoms: C_2  and  C_25
REMARK    3  A    between atoms: C_3  and  O_4
REMARK    4  A    between atoms: O_4  and  C_5
REMARK    5  A    between atoms: C_5  and  C_7
REMARK    6  A    between atoms: C_12  and  N_13
REMARK                            x       y       z     vdW  Elec       q    Type
REMARK                         _______ _______ _______ _____ _____    ______ ____
ROOT
ATOM      1  C   UNL     1       5.474   5.637  16.398  0.00  0.00    +0.000 A 
ATOM      2  C   UNL     1       6.239   5.979  15.270  0.00  0.00    +0.000 A 
ATOM      3  C   UNL     1       6.522   5.026  14.288  0.00  0.00    +0.000 A 
ATOM      4  C   UNL     1       6.030   3.729  14.409  0.00  0.00    +0.000 A 
ATOM      5  C   UNL     1       5.273   3.372  15.528  0.00  0.00    +0.000 A 
ATOM      6  C   UNL     1       5.015   4.304  16.543  0.00  0.00    +0.000 A 
ENDROOT
BRANCH   6   7
ATOM      7  N   UNL     1       4.186   3.924  17.621  0.00  0.00    +0.000 N 
ATOM      8  C   UNL     1       4.597   3.884  18.937  0.00  0.00    +0.000 C 
ATOM      9  O   UNL     1       5.738   3.716  19.349  0.00  0.00    +0.000 OA
ATOM     10  C   UNL     1       3.375   4.032  19.819  0.00  0.00    +0.000 C 
ATOM     11  C   UNL     1       3.147   2.903  20.839  0.00  0.00    +0.000 C 
ATOM     12  C   UNL     1       1.859   3.172  21.651  0.00  0.00    +0.000 C 
ATOM     13  C   UNL     1       0.741   3.025  20.602  0.00  0.00    +0.000 C 
ATOM     14  C   UNL     1       1.515   2.596  19.345  0.00  0.00    +0.000 C 
ATOM     15  C   UNL     1       2.661   1.767  19.942  0.00  0.00    +0.000 C 
ATOM     16  C   UNL     1       2.211   3.864  18.836  0.00  0.00    +0.000 C 
ATOM     17  C   UNL     1       2.835   3.754  17.475  0.00  0.00    +0.000 C 
ATOM     18  O   UNL     1       2.199   3.568  16.448  0.00  0.00    +0.000 OA
ENDBRANCH   6   7
BRANCH   1  19
ATOM     19  C   UNL     1       4.997   6.715  17.322  0.00  0.00    +0.000 C 
ATOM     20  O   UNL     1       5.601   7.127  18.299  0.00  0.00    +0.000 OA
BRANCH  19  21
ATOM     21  O   UNL     1       3.712   7.068  17.036  0.00  0.00    +0.000 OA
BRANCH  21  22
ATOM     22  C   UNL     1       2.907   7.232  18.220  0.00  0.00    +0.000 C 
BRANCH  22  24
ATOM     23  O   UNL     1       2.257   9.313  17.174  0.00  0.00    +0.000 OA
ATOM     24  C   UNL     1       2.173   8.569  18.153  0.00  0.00    +0.000 C 
BRANCH  24  25
ATOM     25  C   UNL     1       1.356   9.018  19.315  0.00  0.00    +0.000 A 
ATOM     26  C   UNL     1       1.368   8.359  20.549  0.00  0.00    +0.000 A 
ATOM     27  C   UNL     1       0.539   8.808  21.584  0.00  0.00    +0.000 A 
ATOM     28  C   UNL     1      -0.292   9.912  21.394  0.00  0.00    +0.000 A 
ATOM     29  C   UNL     1      -0.302  10.574  20.169  0.00  0.00    +0.000 A 
ATOM     30  C   UNL     1       0.516  10.125  19.132  0.00  0.00    +0.000 A 
ENDBRANCH  24  25
ENDBRANCH  22  24
ENDBRANCH  21  22
ENDBRANCH  19  21
ENDBRANCH   1  19
TORSDOF 6
ENDMDL
