MODEL 1
REMARK VINA RESULT:      -8.0      0.000      0.000
REMARK  Name = 
REMARK  9 active torsions:
REMARK  status: ('A' for Active; 'I' for Inactive)
REMARK    1  A    between atoms: C_1  and  C_2
REMARK    2  A    between atoms: C_7  and  C_8
REMARK    3  A    between atoms: N_10  and  C_11
REMARK    4  A    between atoms: C_11  and  C_12
REMARK    5  A    between atoms: C_11  and  C_13
REMARK    6  A    between atoms: C_11  and  C_14
REMARK    7  A    between atoms: N_16  and  C_17
REMARK    8  A    between atoms: C_17  and  C_18
REMARK    9  A    between atoms: C_17  and  C_19
REMARK                            x       y       z     vdW  Elec       q    Type
REMARK                         _______ _______ _______ _____ _____    ______ ____
ROOT
ATOM      1  C   UNL     1       4.954   4.174  18.486  0.00  0.00    +0.000 C 
ATOM      2  O   UNL     1       5.726   4.271  19.431  0.00  0.00    +0.000 OA
ATOM      3  N   UNL     1       5.287   4.549  17.194  0.00  0.00    +0.000 N 
ATOM      4  H   UNL     1       4.667   4.334  16.422  0.00  0.00    +0.000 HD
ENDROOT
BRANCH   1  11
ATOM      5  C   UNL     1       2.630   5.940  19.327  0.00  0.00    +0.000 C 
ATOM      6  C   UNL     1       2.515   4.467  19.078  0.00  0.00    +0.000 A 
ATOM      7  N   UNL     1       1.267   3.962  19.246  0.00  0.00    +0.000 NA
ATOM      8  N   UNL     1       1.018   2.638  19.037  0.00  0.00    +0.000 NA
ATOM      9  C   UNL     1       2.021   1.834  18.648  0.00  0.00    +0.000 A 
ATOM     10  C   UNL     1       3.310   2.290  18.467  0.00  0.00    +0.000 A 
ATOM     11  C   UNL     1       3.578   3.641  18.702  0.00  0.00    +0.000 A 
ENDBRANCH   1  11
BRANCH   3  12
ATOM     12  C   UNL     1       6.588   5.129  16.808  0.00  0.00    +0.000 C 
ATOM     13  C   UNL     1       6.601   6.646  17.079  0.00  0.00    +0.000 C 
ATOM     14  C   UNL     1       7.730   4.432  17.572  0.00  0.00    +0.000 C 
BRANCH  12  15
ATOM     15  C   UNL     1       6.787   4.902  15.316  0.00  0.00    +0.000 A 
ATOM     16  C   UNL     1       6.072   4.082  14.463  0.00  0.00    +0.000 A 
ATOM     17  N   UNL     1       6.655   4.260  13.245  0.00  0.00    +0.000 N 
ATOM     18  N   UNL     1       7.680   5.129  13.326  0.00  0.00    +0.000 NA
ATOM     19  N   UNL     1       7.769   5.532  14.589  0.00  0.00    +0.000 NA
BRANCH  17  20
ATOM     20  C   UNL     1       6.268   3.638  11.987  0.00  0.00    +0.000 C 
ATOM     21  C   UNL     1       7.160   2.449  11.637  0.00  0.00    +0.000 C 
ATOM     22  C   UNL     1       4.791   3.248  11.970  0.00  0.00    +0.000 C 
ENDBRANCH  17  20
ENDBRANCH  12  15
ENDBRANCH   3  12
TORSDOF 4
ENDMDL
MODEL 2
REMARK VINA RESULT:      -8.0      0.841      1.366
REMARK  Name = 
REMARK  9 active torsions:
REMARK  status: ('A' for Active; 'I' for Inactive)
REMARK    1  A    between atoms: C_1  and  C_2
REMARK    2  A    between atoms: C_7  and  C_8
REMARK    3  A    between atoms: N_10  and  C_11
REMARK    4  A    between atoms: C_11  and  C_12
REMARK    5  A    between atoms: C_11  and  C_13
REMARK    6  A    between atoms: C_11  and  C_14
REMARK    7  A    between atoms: N_16  and  C_17
REMARK    8  A    between atoms: C_17  and  C_18
REMARK    9  A    between atoms: C_17  and  C_19
REMARK                            x       y       z     vdW  Elec       q    Type
REMARK                         _______ _______ _______ _____ _____    ______ ____
ROOT
ATOM      1  C   UNL     1       4.623   4.661  18.333  0.00  0.00    +0.000 C 
ATOM      2  O   UNL     1       5.003   5.475  19.163  0.00  0.00    +0.000 OA
ATOM      3  N   UNL     1       5.305   4.404  17.154  0.00  0.00    +0.000 N 
ATOM      4  H   UNL     1       5.027   3.635  16.557  0.00  0.00    +0.000 HD
ENDROOT
BRANCH   1  11
ATOM      5  C   UNL     1       4.506   2.180  20.081  0.00  0.00    +0.000 C 
ATOM      6  C   UNL     1       3.320   2.766  19.379  0.00  0.00    +0.000 A 
ATOM      7  N   UNL     1       2.154   2.104  19.590  0.00  0.00    +0.000 NA
ATOM      8  N   UNL     1       0.993   2.539  19.023  0.00  0.00    +0.000 NA
ATOM      9  C   UNL     1       1.009   3.642  18.258  0.00  0.00    +0.000 A 
ATOM     10  C   UNL     1       2.163   4.352  18.004  0.00  0.00    +0.000 A 
ATOM     11  C   UNL     1       3.361   3.899  18.562  0.00  0.00    +0.000 A 
ENDBRANCH   1  11
BRANCH   3  12
ATOM     12  C   UNL     1       6.547   5.092  16.749  0.00  0.00    +0.000 C 
ATOM     13  C   UNL     1       6.428   6.608  17.001  0.00  0.00    +0.000 C 
ATOM     14  C   UNL     1       7.753   4.508  17.510  0.00  0.00    +0.000 C 
BRANCH  12  15
ATOM     15  C   UNL     1       6.752   4.865  15.259  0.00  0.00    +0.000 A 
ATOM     16  C   UNL     1       6.057   4.026  14.407  0.00  0.00    +0.000 A 
ATOM     17  N   UNL     1       6.637   4.213  13.189  0.00  0.00    +0.000 N 
ATOM     18  N   UNL     1       7.643   5.105  13.268  0.00  0.00    +0.000 NA
ATOM     19  N   UNL     1       7.721   5.514  14.530  0.00  0.00    +0.000 NA
BRANCH  17  20
ATOM     20  C   UNL     1       6.266   3.579  11.933  0.00  0.00    +0.000 C 
ATOM     21  C   UNL     1       7.030   2.276  11.700  0.00  0.00    +0.000 C 
ATOM     22  C   UNL     1       4.757   3.365  11.822  0.00  0.00    +0.000 C 
ENDBRANCH  17  20
ENDBRANCH  12  15
ENDBRANCH   3  12
TORSDOF 4
ENDMDL
MODEL 3
REMARK VINA RESULT:      -7.9      0.666      1.734
REMARK  Name = 
REMARK  9 active torsions:
REMARK  status: ('A' for Active; 'I' for Inactive)
REMARK    1  A    between atoms: C_1  and  C_2
REMARK    2  A    between atoms: C_7  and  C_8
REMARK    3  A    between atoms: N_10  and  C_11
REMARK    4  A    between atoms: C_11  and  C_12
REMARK    5  A    between atoms: C_11  and  C_13
REMARK    6  A    between atoms: C_11  and  C_14
REMARK    7  A    between atoms: N_16  and  C_17
REMARK    8  A    between atoms: C_17  and  C_18
REMARK    9  A    between atoms: C_17  and  C_19
REMARK                            x       y       z     vdW  Elec       q    Type
REMARK                         _______ _______ _______ _____ _____    ______ ____
ROOT
ATOM      1  C   UNL     1       4.983   4.360  18.807  0.00  0.00    +0.000 C 
ATOM      2  O   UNL     1       5.880   4.084  19.594  0.00  0.00    +0.000 OA
ATOM      3  N   UNL     1       5.213   4.934  17.567  0.00  0.00    +0.000 N 
ATOM      4  H   UNL     1       4.458   5.028  16.897  0.00  0.00    +0.000 HD
ENDROOT
BRANCH   1  11
ATOM      5  C   UNL     1       3.566   1.779  18.061  0.00  0.00    +0.000 C 
ATOM      6  C   UNL     1       2.927   2.892  18.834  0.00  0.00    +0.000 A 
ATOM      7  N   UNL     1       1.641   2.659  19.200  0.00  0.00    +0.000 NA
ATOM      8  N   UNL     1       0.944   3.583  19.922  0.00  0.00    +0.000 NA
ATOM      9  C   UNL     1       1.548   4.727  20.281  0.00  0.00    +0.000 A 
ATOM     10  C   UNL     1       2.851   5.020  19.934  0.00  0.00    +0.000 A 
ATOM     11  C   UNL     1       3.563   4.089  19.174  0.00  0.00    +0.000 A 
ENDBRANCH   1  11
BRANCH   3  12
ATOM     12  C   UNL     1       6.548   5.303  17.059  0.00  0.00    +0.000 C 
ATOM     13  C   UNL     1       6.757   6.827  17.155  0.00  0.00    +0.000 C 
ATOM     14  C   UNL     1       7.643   4.555  17.843  0.00  0.00    +0.000 C 
BRANCH  12  15
ATOM     15  C   UNL     1       6.630   4.895  15.595  0.00  0.00    +0.000 A 
ATOM     16  C   UNL     1       5.967   3.871  14.943  0.00  0.00    +0.000 A 
ATOM     17  N   UNL     1       6.392   3.953  13.652  0.00  0.00    +0.000 N 
ATOM     18  N   UNL     1       7.275   4.956  13.499  0.00  0.00    +0.000 NA
ATOM     19  N   UNL     1       7.427   5.544  14.681  0.00  0.00    +0.000 NA
BRANCH  17  20
ATOM     20  C   UNL     1       5.981   3.110  12.538  0.00  0.00    +0.000 C 
ATOM     21  C   UNL     1       4.703   3.619  11.874  0.00  0.00    +0.000 C 
ATOM     22  C   UNL     1       7.101   2.923  11.516  0.00  0.00    +0.000 C 
ENDBRANCH  17  20
ENDBRANCH  12  15
ENDBRANCH   3  12
TORSDOF 4
ENDMDL
MODEL 4
REMARK VINA RESULT:      -7.9      0.804      1.119
REMARK  Name = 
REMARK  9 active torsions:
REMARK  status: ('A' for Active; 'I' for Inactive)
REMARK    1  A    between atoms: C_1  and  C_2
REMARK    2  A    between atoms: C_7  and  C_8
REMARK    3  A    between atoms: N_10  and  C_11
REMARK    4  A    between atoms: C_11  and  C_12
REMARK    5  A    between atoms: C_11  and  C_13
REMARK    6  A    between atoms: C_11  and  C_14
REMARK    7  A    between atoms: N_16  and  C_17
REMARK    8  A    between atoms: C_17  and  C_18
REMARK    9  A    between atoms: C_17  and  C_19
REMARK                            x       y       z     vdW  Elec       q    Type
REMARK                         _______ _______ _______ _____ _____    ______ ____
ROOT
ATOM      1  C   UNL     1       4.991   4.835  18.930  0.00  0.00    +0.000 C 
ATOM      2  O   UNL     1       5.681   5.394  19.771  0.00  0.00    +0.000 OA
ATOM      3  N   UNL     1       5.376   4.691  17.607  0.00  0.00    +0.000 N 
ATOM      4  H   UNL     1       4.835   4.112  16.975  0.00  0.00    +0.000 HD
ENDROOT
BRANCH   1  11
ATOM      5  C   UNL     1       2.388   6.302  18.380  0.00  0.00    +0.000 C 
ATOM      6  C   UNL     1       2.470   4.960  19.041  0.00  0.00    +0.000 A 
ATOM      7  N   UNL     1       1.270   4.423  19.377  0.00  0.00    +0.000 NA
ATOM      8  N   UNL     1       1.197   3.198  19.972  0.00  0.00    +0.000 NA
ATOM      9  C   UNL     1       2.329   2.518  20.214  0.00  0.00    +0.000 A 
ATOM     10  C   UNL     1       3.576   3.016  19.899  0.00  0.00    +0.000 A 
ATOM     11  C   UNL     1       3.660   4.280  19.311  0.00  0.00    +0.000 A 
ENDBRANCH   1  11
BRANCH   3  12
ATOM     12  C   UNL     1       6.640   5.212  17.050  0.00  0.00    +0.000 C 
ATOM     13  C   UNL     1       6.686   6.749  17.169  0.00  0.00    +0.000 C 
ATOM     14  C   UNL     1       7.843   4.575  17.771  0.00  0.00    +0.000 C 
BRANCH  12  15
ATOM     15  C   UNL     1       6.700   4.839  15.576  0.00  0.00    +0.000 A 
ATOM     16  C   UNL     1       6.033   3.826  14.911  0.00  0.00    +0.000 A 
ATOM     17  N   UNL     1       6.436   3.941  13.615  0.00  0.00    +0.000 N 
ATOM     18  N   UNL     1       7.311   4.954  13.472  0.00  0.00    +0.000 NA
ATOM     19  N   UNL     1       7.478   5.515  14.665  0.00  0.00    +0.000 NA
BRANCH  17  20
ATOM     20  C   UNL     1       6.013   3.122  12.489  0.00  0.00    +0.000 C 
ATOM     21  C   UNL     1       4.712   3.629  11.868  0.00  0.00    +0.000 C 
ATOM     22  C   UNL     1       7.112   2.980  11.437  0.00  0.00    +0.000 C 
ENDBRANCH  17  20
ENDBRANCH  12  15
ENDBRANCH   3  12
TORSDOF 4
ENDMDL
MODEL 5
REMARK VINA RESULT:      -7.7      1.037      1.296
REMARK  Name = 
REMARK  9 active torsions:
REMARK  status: ('A' for Active; 'I' for Inactive)
REMARK    1  A    between atoms: C_1  and  C_2
REMARK    2  A    between atoms: C_7  and  C_8
REMARK    3  A    between atoms: N_10  and  C_11
REMARK    4  A    between atoms: C_11  and  C_12
REMARK    5  A    between atoms: C_11  and  C_13
REMARK    6  A    between atoms: C_11  and  C_14
REMARK    7  A    between atoms: N_16  and  C_17
REMARK    8  A    between atoms: C_17  and  C_18
REMARK    9  A    between atoms: C_17  and  C_19
REMARK                            x       y       z     vdW  Elec       q    Type
REMARK                         _______ _______ _______ _____ _____    ______ ____
ROOT
ATOM      1  C   UNL     1       4.060   5.081  17.763  0.00  0.00    +0.000 C 
ATOM      2  O   UNL     1       3.827   6.169  17.253  0.00  0.00    +0.000 OA
ATOM      3  N   UNL     1       5.331   4.533  17.833  0.00  0.00    +0.000 N 
ATOM      4  H   UNL     1       5.499   3.693  18.375  0.00  0.00    +0.000 HD
ENDROOT
BRANCH   1  11
ATOM      5  C   UNL     1       2.287   6.109  20.005  0.00  0.00    +0.000 C 
ATOM      6  C   UNL     1       2.129   4.766  19.362  0.00  0.00    +0.000 A 
ATOM      7  N   UNL     1       1.105   4.022  19.852  0.00  0.00    +0.000 NA
ATOM      8  N   UNL     1       0.838   2.784  19.346  0.00  0.00    +0.000 NA
ATOM      9  C   UNL     1       1.594   2.309  18.343  0.00  0.00    +0.000 A 
ATOM     10  C   UNL     1       2.650   3.017  17.809  0.00  0.00    +0.000 A 
ATOM     11  C   UNL     1       2.944   4.275  18.338  0.00  0.00    +0.000 A 
ENDBRANCH   1  11
BRANCH   3  12
ATOM     12  C   UNL     1       6.541   5.173  17.283  0.00  0.00    +0.000 C 
ATOM     13  C   UNL     1       6.461   6.704  17.448  0.00  0.00    +0.000 C 
ATOM     14  C   UNL     1       7.800   4.618  17.976  0.00  0.00    +0.000 C 
BRANCH  12  15
ATOM     15  C   UNL     1       6.617   4.851  15.798  0.00  0.00    +0.000 A 
ATOM     16  C   UNL     1       6.001   3.827  15.102  0.00  0.00    +0.000 A 
ATOM     17  N   UNL     1       6.395   4.002  13.810  0.00  0.00    +0.000 N 
ATOM     18  N   UNL     1       7.218   5.062  13.698  0.00  0.00    +0.000 NA
ATOM     19  N   UNL     1       7.359   5.592  14.909  0.00  0.00    +0.000 NA
BRANCH  17  20
ATOM     20  C   UNL     1       6.011   3.199  12.658  0.00  0.00    +0.000 C 
ATOM     21  C   UNL     1       4.706   3.684  12.030  0.00  0.00    +0.000 C 
ATOM     22  C   UNL     1       7.129   3.114  11.620  0.00  0.00    +0.000 C 
ENDBRANCH  17  20
ENDBRANCH  12  15
ENDBRANCH   3  12
TORSDOF 4
ENDMDL
MODEL 6
REMARK VINA RESULT:      -7.5      1.702      6.979
REMARK  Name = 
REMARK  9 active torsions:
REMARK  status: ('A' for Active; 'I' for Inactive)
REMARK    1  A    between atoms: C_1  and  C_2
REMARK    2  A    between atoms: C_7  and  C_8
REMARK    3  A    between atoms: N_10  and  C_11
REMARK    4  A    between atoms: C_11  and  C_12
REMARK    5  A    between atoms: C_11  and  C_13
REMARK    6  A    between atoms: C_11  and  C_14
REMARK    7  A    between atoms: N_16  and  C_17
REMARK    8  A    between atoms: C_17  and  C_18
REMARK    9  A    between atoms: C_17  and  C_19
REMARK                            x       y       z     vdW  Elec       q    Type
REMARK                         _______ _______ _______ _____ _____    ______ ____
ROOT
ATOM      1  C   UNL     1       5.225   4.141  17.877  0.00  0.00    +0.000 C 
ATOM      2  O   UNL     1       5.801   4.052  18.953  0.00  0.00    +0.000 OA
ATOM      3  N   UNL     1       3.872   3.888  17.718  0.00  0.00    +0.000 N 
ATOM      4  H   UNL     1       3.410   4.097  16.841  0.00  0.00    +0.000 HD
ENDROOT
BRANCH   1  11
ATOM      5  C   UNL     1       7.205   6.445  17.845  0.00  0.00    +0.000 C 
ATOM      6  C   UNL     1       6.905   5.582  16.658  0.00  0.00    +0.000 A 
ATOM      7  N   UNL     1       7.604   5.899  15.539  0.00  0.00    +0.000 NA
ATOM      8  N   UNL     1       7.440   5.184  14.390  0.00  0.00    +0.000 NA
ATOM      9  C   UNL     1       6.584   4.150  14.376  0.00  0.00    +0.000 A 
ATOM     10  C   UNL     1       5.843   3.785  15.481  0.00  0.00    +0.000 A 
ATOM     11  C   UNL     1       5.988   4.527  16.655  0.00  0.00    +0.000 A 
ENDBRANCH   1  11
BRANCH   3  12
ATOM     12  C   UNL     1       2.975   3.460  18.809  0.00  0.00    +0.000 C 
ATOM     13  C   UNL     1       1.768   2.688  18.241  0.00  0.00    +0.000 C 
ATOM     14  C   UNL     1       3.745   2.594  19.824  0.00  0.00    +0.000 C 
BRANCH  12  15
ATOM     15  C   UNL     1       2.461   4.705  19.519  0.00  0.00    +0.000 A 
ATOM     16  C   UNL     1       2.629   6.032  19.169  0.00  0.00    +0.000 A 
ATOM     17  N   UNL     1       1.963   6.729  20.132  0.00  0.00    +0.000 N 
ATOM     18  N   UNL     1       1.420   5.896  21.039  0.00  0.00    +0.000 NA
ATOM     19  N   UNL     1       1.715   4.653  20.673  0.00  0.00    +0.000 NA
BRANCH  17  20
ATOM     20  C   UNL     1       1.813   8.174  20.224  0.00  0.00    +0.000 C 
ATOM     21  C   UNL     1       1.611   8.818  18.853  0.00  0.00    +0.000 C 
ATOM     22  C   UNL     1       0.703   8.575  21.195  0.00  0.00    +0.000 C 
ENDBRANCH  17  20
ENDBRANCH  12  15
ENDBRANCH   3  12
TORSDOF 4
ENDMDL
MODEL 7
REMARK VINA RESULT:      -7.3      2.733      7.414
REMARK  Name = 
REMARK  9 active torsions:
REMARK  status: ('A' for Active; 'I' for Inactive)
REMARK    1  A    between atoms: C_1  and  C_2
REMARK    2  A    between atoms: C_7  and  C_8
REMARK    3  A    between atoms: N_10  and  C_11
REMARK    4  A    between atoms: C_11  and  C_12
REMARK    5  A    between atoms: C_11  and  C_13
REMARK    6  A    between atoms: C_11  and  C_14
REMARK    7  A    between atoms: N_16  and  C_17
REMARK    8  A    between atoms: C_17  and  C_18
REMARK    9  A    between atoms: C_17  and  C_19
REMARK                            x       y       z     vdW  Elec       q    Type
REMARK                         _______ _______ _______ _____ _____    ______ ____
ROOT
ATOM      1  C   UNL     1       4.648   4.474  17.367  0.00  0.00    +0.000 C 
ATOM      2  O   UNL     1       4.603   3.353  17.855  0.00  0.00    +0.000 OA
ATOM      3  N   UNL     1       3.811   5.506  17.761  0.00  0.00    +0.000 N 
ATOM      4  H   UNL     1       3.966   6.449  17.425  0.00  0.00    +0.000 HD
ENDROOT
BRANCH   1  11
ATOM      5  C   UNL     1       7.045   6.289  17.799  0.00  0.00    +0.000 C 
ATOM      6  C   UNL     1       6.736   5.604  16.503  0.00  0.00    +0.000 A 
ATOM      7  N   UNL     1       7.629   5.845  15.510  0.00  0.00    +0.000 NA
ATOM      8  N   UNL     1       7.477   5.271  14.282  0.00  0.00    +0.000 NA
ATOM      9  C   UNL     1       6.437   4.451  14.065  0.00  0.00    +0.000 A 
ATOM     10  C   UNL     1       5.495   4.174  15.034  0.00  0.00    +0.000 A 
ATOM     11  C   UNL     1       5.631   4.776  16.287  0.00  0.00    +0.000 A 
ENDBRANCH   1  11
BRANCH   3  12
ATOM     12  C   UNL     1       2.758   5.374  18.786  0.00  0.00    +0.000 C 
ATOM     13  C   UNL     1       1.578   4.545  18.240  0.00  0.00    +0.000 C 
ATOM     14  C   UNL     1       3.332   4.726  20.061  0.00  0.00    +0.000 C 
BRANCH  12  15
ATOM     15  C   UNL     1       2.251   6.767  19.131  0.00  0.00    +0.000 A 
ATOM     16  C   UNL     1       1.766   7.238  20.337  0.00  0.00    +0.000 A 
ATOM     17  N   UNL     1       1.463   8.544  20.101  0.00  0.00    +0.000 N 
ATOM     18  N   UNL     1       1.729   8.875  18.823  0.00  0.00    +0.000 NA
ATOM     19  N   UNL     1       2.215   7.796  18.220  0.00  0.00    +0.000 NA
BRANCH  17  20
ATOM     20  C   UNL     1       0.933   9.509  21.053  0.00  0.00    +0.000 C 
ATOM     21  C   UNL     1       0.528  10.818  20.379  0.00  0.00    +0.000 C 
ATOM     22  C   UNL     1      -0.217   8.930  21.876  0.00  0.00    +0.000 C 
ENDBRANCH  17  20
ENDBRANCH  12  15
ENDBRANCH   3  12
TORSDOF 4
ENDMDL
MODEL 8
REMARK VINA RESULT:      -7.3      2.430      7.117
REMARK  Name = 
REMARK  9 active torsions:
REMARK  status: ('A' for Active; 'I' for Inactive)
REMARK    1  A    between atoms: C_1  and  C_2
REMARK    2  A    between atoms: C_7  and  C_8
REMARK    3  A    between atoms: N_10  and  C_11
REMARK    4  A    between atoms: C_11  and  C_12
REMARK    5  A    between atoms: C_11  and  C_13
REMARK    6  A    between atoms: C_11  and  C_14
REMARK    7  A    between atoms: N_16  and  C_17
REMARK    8  A    between atoms: C_17  and  C_18
REMARK    9  A    between atoms: C_17  and  C_19
REMARK                            x       y       z     vdW  Elec       q    Type
REMARK                         _______ _______ _______ _____ _____    ______ ____
ROOT
ATOM      1  C   UNL     1       4.554   4.091  17.192  0.00  0.00    +0.000 C 
ATOM      2  O   UNL     1       4.413   2.894  17.405  0.00  0.00    +0.000 OA
ATOM      3  N   UNL     1       3.797   5.067  17.818  0.00  0.00    +0.000 N 
ATOM      4  H   UNL     1       4.031   6.047  17.710  0.00  0.00    +0.000 HD
ENDROOT
BRANCH   1  11
ATOM      5  C   UNL     1       6.905   5.846  17.979  0.00  0.00    +0.000 C 
ATOM      6  C   UNL     1       6.658   5.353  16.586  0.00  0.00    +0.000 A 
ATOM      7  N   UNL     1       7.586   5.743  15.676  0.00  0.00    +0.000 NA
ATOM      8  N   UNL     1       7.491   5.352  14.373  0.00  0.00    +0.000 NA
ATOM      9  C   UNL     1       6.472   4.563  13.997  0.00  0.00    +0.000 A 
ATOM     10  C   UNL     1       5.497   4.139  14.876  0.00  0.00    +0.000 A 
ATOM     11  C   UNL     1       5.575   4.555  16.208  0.00  0.00    +0.000 A 
ENDBRANCH   1  11
BRANCH   3  12
ATOM     12  C   UNL     1       2.721   4.786  18.789  0.00  0.00    +0.000 C 
ATOM     13  C   UNL     1       1.534   4.094  18.089  0.00  0.00    +0.000 C 
ATOM     14  C   UNL     1       3.256   3.914  19.940  0.00  0.00    +0.000 C 
BRANCH  12  15
ATOM     15  C   UNL     1       2.238   6.111  19.362  0.00  0.00    +0.000 A 
ATOM     16  C   UNL     1       2.196   7.352  18.755  0.00  0.00    +0.000 A 
ATOM     17  N   UNL     1       1.672   8.181  19.700  0.00  0.00    +0.000 N 
ATOM     18  N   UNL     1       1.411   7.508  20.837  0.00  0.00    +0.000 NA
ATOM     19  N   UNL     1       1.750   6.238  20.641  0.00  0.00    +0.000 NA
BRANCH  17  20
ATOM     20  C   UNL     1       1.397   9.604  19.566  0.00  0.00    +0.000 C 
ATOM     21  C   UNL     1       1.622  10.099  18.138  0.00  0.00    +0.000 C 
ATOM     22  C   UNL     1       0.001   9.969  20.067  0.00  0.00    +0.000 C 
ENDBRANCH  17  20
ENDBRANCH  12  15
ENDBRANCH   3  12
TORSDOF 4
ENDMDL
MODEL 9
REMARK VINA RESULT:      -7.2      3.175      7.288
REMARK  Name = 
REMARK  9 active torsions:
REMARK  status: ('A' for Active; 'I' for Inactive)
REMARK    1  A    between atoms: C_1  and  C_2
REMARK    2  A    between atoms: C_7  and  C_8
REMARK    3  A    between atoms: N_10  and  C_11
REMARK    4  A    between atoms: C_11  and  C_12
REMARK    5  A    between atoms: C_11  and  C_13
REMARK    6  A    between atoms: C_11  and  C_14
REMARK    7  A    between atoms: N_16  and  C_17
REMARK    8  A    between atoms: C_17  and  C_18
REMARK    9  A    between atoms: C_17  and  C_19
REMARK                            x       y       z     vdW  Elec       q    Type
REMARK                         _______ _______ _______ _____ _____    ______ ____
ROOT
ATOM      1  C   UNL     1       4.643   4.886  17.096  0.00  0.00    +0.000 C 
ATOM      2  O   UNL     1       4.460   3.820  17.668  0.00  0.00    +0.000 OA
ATOM      3  N   UNL     1       3.929   6.037  17.391  0.00  0.00    +0.000 N 
ATOM      4  H   UNL     1       4.199   6.926  16.986  0.00  0.00    +0.000 HD
ENDROOT
BRANCH   1  11
ATOM      5  C   UNL     1       7.267   6.372  17.464  0.00  0.00    +0.000 C 
ATOM      6  C   UNL     1       6.876   5.661  16.204  0.00  0.00    +0.000 A 
ATOM      7  N   UNL     1       7.803   5.717  15.214  0.00  0.00    +0.000 NA
ATOM      8  N   UNL     1       7.583   5.099  14.019  0.00  0.00    +0.000 NA
ATOM      9  C   UNL     1       6.440   4.421  13.831  0.00  0.00    +0.000 A 
ATOM     10  C   UNL     1       5.460   4.335  14.798  0.00  0.00    +0.000 A 
ATOM     11  C   UNL     1       5.668   4.984  16.017  0.00  0.00    +0.000 A 
ENDBRANCH   1  11
BRANCH   3  12
ATOM     12  C   UNL     1       2.855   6.111  18.400  0.00  0.00    +0.000 C 
ATOM     13  C   UNL     1       1.698   5.164  18.023  0.00  0.00    +0.000 C 
ATOM     14  C   UNL     1       3.409   5.762  19.795  0.00  0.00    +0.000 C 
BRANCH  12  15
ATOM     15  C   UNL     1       2.324   7.537  18.427  0.00  0.00    +0.000 A 
ATOM     16  C   UNL     1       1.708   8.211  19.465  0.00  0.00    +0.000 A 
ATOM     17  N   UNL     1       1.445   9.450  18.963  0.00  0.00    +0.000 N 
ATOM     18  N   UNL     1       1.858   9.548  17.686  0.00  0.00    +0.000 NA
ATOM     19  N   UNL     1       2.402   8.384  17.347  0.00  0.00    +0.000 NA
BRANCH  17  20
ATOM     20  C   UNL     1       0.817  10.564  19.658  0.00  0.00    +0.000 C 
ATOM     21  C   UNL     1       1.381  11.911  19.211  0.00  0.00    +0.000 C 
ATOM     22  C   UNL     1      -0.706  10.531  19.536  0.00  0.00    +0.000 C 
ENDBRANCH  17  20
ENDBRANCH  12  15
ENDBRANCH   3  12
TORSDOF 4
ENDMDL
