MODEL 1
REMARK VINA RESULT:      -6.5      0.000      0.000
REMARK  Name = 
REMARK  6 active torsions:
REMARK  status: ('A' for Active; 'I' for Inactive)
REMARK    1  A    between atoms: C_1  and  C_2
REMARK    2  A    between atoms: C_5  and  O_6
REMARK    3  A    between atoms: C_15  and  C_16
REMARK    4  A    between atoms: C_17  and  C_18
REMARK    5  A    between atoms: C_19  and  C_20
REMARK    6  A    between atoms: C_25  and  O_26
REMARK                            x       y       z     vdW  Elec       q    Type
REMARK                         _______ _______ _______ _____ _____    ______ ____
ROOT
ATOM      1  C   UNL     1       0.856   4.048  17.840  0.00  0.00    +0.000 C 
ATOM      2  C   UNL     1       1.875   3.698  18.960  0.00  0.00    +0.000 C 
ATOM      3  C   UNL     1       1.502   2.264  19.440  0.00  0.00    +0.000 C 
ATOM      4  C   UNL     1       2.273   1.810  20.676  0.00  0.00    +0.000 C 
ATOM      5  C   UNL     1       2.100   2.781  21.839  0.00  0.00    +0.000 C 
ATOM      6  C   UNL     1       2.423   4.220  21.437  0.00  0.00    +0.000 C 
ATOM      7  C   UNL     1       1.692   4.687  20.155  0.00  0.00    +0.000 C 
ATOM      8  C   UNL     1       2.123   6.116  19.791  0.00  0.00    +0.000 C 
ATOM      9  C   UNL     1       3.546   6.197  19.244  0.00  0.00    +0.000 C 
ATOM     10  C   UNL     1       3.779   5.238  18.059  0.00  0.00    +0.000 C 
ATOM     11  C   UNL     1       3.360   3.785  18.433  0.00  0.00    +0.000 C 
ATOM     12  C   UNL     1       3.645   2.810  17.277  0.00  0.00    +0.000 C 
ATOM     13  C   UNL     1       5.096   2.884  16.830  0.00  0.00    +0.000 C 
ATOM     14  C   UNL     1       5.520   4.304  16.376  0.00  0.00    +0.000 C 
ATOM     15  C   UNL     1       4.787   4.643  15.060  0.00  0.00    +0.000 C 
ATOM     16  C   UNL     1       7.080   4.316  16.258  0.00  0.00    +0.000 C 
ATOM     17  C   UNL     1       7.579   4.693  17.671  0.00  0.00    +0.000 C 
ATOM     18  C   UNL     1       6.362   5.135  18.496  0.00  0.00    +0.000 C 
ATOM     19  C   UNL     1       5.224   5.348  17.488  0.00  0.00    +0.000 C 
ENDROOT
BRANCH   5  20
ATOM     20  O   UNL     1       0.773   2.701  22.354  0.00  0.00    +0.000 OA
ATOM     21  H   UNL     1       0.503   1.770  22.379  0.00  0.00    +0.000 HD
ENDBRANCH   5  20
BRANCH  16  22
ATOM     22  C   UNL     1       7.670   5.215  15.190  0.00  0.00    +0.000 C 
ATOM     23  C   UNL     1       7.768   4.850  13.903  0.00  0.00    +0.000 C 
BRANCH  23  24
ATOM     24  C   UNL     1       8.262   5.775  12.853  0.00  0.00    +0.000 C 
ATOM     25  N   UNL     1       9.491   6.302  13.122  0.00  0.00    +0.000 N 
ATOM     26  O   UNL     1       7.654   6.039  11.828  0.00  0.00    +0.000 OA
ATOM     27  H   UNL     1      10.027   6.102  13.955  0.00  0.00    +0.000 HD
ATOM     28  H   UNL     1       9.892   6.919  12.426  0.00  0.00    +0.000 HD
ENDBRANCH  23  24
ENDBRANCH  16  22
BRANCH  19  29
ATOM     29  O   UNL     1       5.386   6.662  16.936  0.00  0.00    +0.000 OA
ATOM     30  H   UNL     1       5.942   7.190  17.531  0.00  0.00    +0.000 HD
ENDBRANCH  19  29
TORSDOF 4
ENDMDL
MODEL 2
REMARK VINA RESULT:      -6.1      8.651     10.818
REMARK  Name = 
REMARK  6 active torsions:
REMARK  status: ('A' for Active; 'I' for Inactive)
REMARK    1  A    between atoms: C_1  and  C_2
REMARK    2  A    between atoms: C_5  and  O_6
REMARK    3  A    between atoms: C_15  and  C_16
REMARK    4  A    between atoms: C_17  and  C_18
REMARK    5  A    between atoms: C_19  and  C_20
REMARK    6  A    between atoms: C_25  and  O_26
REMARK                            x       y       z     vdW  Elec       q    Type
REMARK                         _______ _______ _______ _____ _____    ______ ____
ROOT
ATOM      1  C   UNL     1      -1.796  12.141  21.320  0.00  0.00    +0.000 C 
ATOM      2  C   UNL     1      -1.475  11.938  19.814  0.00  0.00    +0.000 C 
ATOM      3  C   UNL     1      -2.838  12.052  19.070  0.00  0.00    +0.000 C 
ATOM      4  C   UNL     1      -2.762  11.691  17.589  0.00  0.00    +0.000 C 
ATOM      5  C   UNL     1      -2.198  10.290  17.376  0.00  0.00    +0.000 C 
ATOM      6  C   UNL     1      -0.868  10.092  18.101  0.00  0.00    +0.000 C 
ATOM      7  C   UNL     1      -0.906  10.500  19.594  0.00  0.00    +0.000 C 
ATOM      8  C   UNL     1       0.485  10.328  20.225  0.00  0.00    +0.000 C 
ATOM      9  C   UNL     1       1.492  11.377  19.761  0.00  0.00    +0.000 C 
ATOM     10  C   UNL     1       0.978  12.818  19.958  0.00  0.00    +0.000 C 
ATOM     11  C   UNL     1      -0.424  12.999  19.302  0.00  0.00    +0.000 C 
ATOM     12  C   UNL     1      -0.918  14.449  19.441  0.00  0.00    +0.000 C 
ATOM     13  C   UNL     1       0.097  15.439  18.893  0.00  0.00    +0.000 C 
ATOM     14  C   UNL     1       1.480  15.336  19.582  0.00  0.00    +0.000 C 
ATOM     15  C   UNL     1       1.346  15.828  21.040  0.00  0.00    +0.000 C 
ATOM     16  C   UNL     1       2.498  16.158  18.724  0.00  0.00    +0.000 C 
ATOM     17  C   UNL     1       3.024  15.156  17.672  0.00  0.00    +0.000 C 
ATOM     18  C   UNL     1       2.532  13.757  18.067  0.00  0.00    +0.000 C 
ATOM     19  C   UNL     1       2.023  13.882  19.510  0.00  0.00    +0.000 C 
ENDROOT
BRANCH   5  20
ATOM     20  O   UNL     1      -3.142   9.310  17.803  0.00  0.00    +0.000 OA
ATOM     21  H   UNL     1      -2.973   8.483  17.324  0.00  0.00    +0.000 HD
ENDBRANCH   5  20
BRANCH  16  22
ATOM     22  C   UNL     1       3.626  16.833  19.477  0.00  0.00    +0.000 C 
ATOM     23  C   UNL     1       4.913  16.718  19.118  0.00  0.00    +0.000 C 
BRANCH  23  24
ATOM     24  C   UNL     1       5.997  17.459  19.810  0.00  0.00    +0.000 C 
ATOM     25  N   UNL     1       7.120  16.714  20.024  0.00  0.00    +0.000 N 
ATOM     26  O   UNL     1       5.923  18.630  20.146  0.00  0.00    +0.000 OA
ATOM     27  H   UNL     1       7.221  15.746  19.754  0.00  0.00    +0.000 HD
ATOM     28  H   UNL     1       7.904  17.177  20.466  0.00  0.00    +0.000 HD
ENDBRANCH  23  24
ENDBRANCH  16  22
BRANCH  19  29
ATOM     29  O   UNL     1       3.164  13.777  20.374  0.00  0.00    +0.000 OA
ATOM     30  H   UNL     1       3.471  12.856  20.382  0.00  0.00    +0.000 HD
ENDBRANCH  19  29
TORSDOF 4
ENDMDL
MODEL 3
REMARK VINA RESULT:      -5.8     10.679     14.009
REMARK  Name = 
REMARK  6 active torsions:
REMARK  status: ('A' for Active; 'I' for Inactive)
REMARK    1  A    between atoms: C_1  and  C_2
REMARK    2  A    between atoms: C_5  and  O_6
REMARK    3  A    between atoms: C_15  and  C_16
REMARK    4  A    between atoms: C_17  and  C_18
REMARK    5  A    between atoms: C_19  and  C_20
REMARK    6  A    between atoms: C_25  and  O_26
REMARK                            x       y       z     vdW  Elec       q    Type
REMARK                         _______ _______ _______ _____ _____    ______ ____
ROOT
ATOM      1  C   UNL     1      -0.027  16.471  18.960  0.00  0.00    +0.000 C 
ATOM      2  C   UNL     1       0.798  15.443  19.781  0.00  0.00    +0.000 C 
ATOM      3  C   UNL     1       1.946  16.256  20.450  0.00  0.00    +0.000 C 
ATOM      4  C   UNL     1       2.986  15.388  21.152  0.00  0.00    +0.000 C 
ATOM      5  C   UNL     1       3.595  14.358  20.206  0.00  0.00    +0.000 C 
ATOM      6  C   UNL     1       2.526  13.535  19.489  0.00  0.00    +0.000 C 
ATOM      7  C   UNL     1       1.430  14.394  18.812  0.00  0.00    +0.000 C 
ATOM      8  C   UNL     1       0.366  13.486  18.173  0.00  0.00    +0.000 C 
ATOM      9  C   UNL     1      -0.532  12.796  19.197  0.00  0.00    +0.000 C 
ATOM     10  C   UNL     1      -1.182  13.791  20.179  0.00  0.00    +0.000 C 
ATOM     11  C   UNL     1      -0.103  14.699  20.841  0.00  0.00    +0.000 C 
ATOM     12  C   UNL     1      -0.736  15.654  21.868  0.00  0.00    +0.000 C 
ATOM     13  C   UNL     1      -1.554  14.898  22.902  0.00  0.00    +0.000 C 
ATOM     14  C   UNL     1      -2.687  14.047  22.277  0.00  0.00    +0.000 C 
ATOM     15  C   UNL     1      -3.756  14.996  21.692  0.00  0.00    +0.000 C 
ATOM     16  C   UNL     1      -3.228  13.089  23.390  0.00  0.00    +0.000 C 
ATOM     17  C   UNL     1      -2.330  11.835  23.300  0.00  0.00    +0.000 C 
ATOM     18  C   UNL     1      -1.483  11.954  22.025  0.00  0.00    +0.000 C 
ATOM     19  C   UNL     1      -2.120  13.081  21.200  0.00  0.00    +0.000 C 
ENDROOT
BRANCH   5  20
ATOM     20  O   UNL     1       4.439  15.003  19.255  0.00  0.00    +0.000 OA
ATOM     21  H   UNL     1       4.204  14.693  18.366  0.00  0.00    +0.000 HD
ENDBRANCH   5  20
BRANCH  16  22
ATOM     22  C   UNL     1      -4.701  12.737  23.322  0.00  0.00    +0.000 C 
ATOM     23  C   UNL     1      -5.558  12.993  24.321  0.00  0.00    +0.000 C 
BRANCH  23  24
ATOM     24  C   UNL     1      -7.013  12.728  24.203  0.00  0.00    +0.000 C 
ATOM     25  N   UNL     1      -7.794  13.767  24.615  0.00  0.00    +0.000 N 
ATOM     26  O   UNL     1      -7.490  11.694  23.763  0.00  0.00    +0.000 OA
ATOM     27  H   UNL     1      -7.437  14.639  24.978  0.00  0.00    +0.000 HD
ATOM     28  H   UNL     1      -8.797  13.653  24.531  0.00  0.00    +0.000 HD
ENDBRANCH  23  24
ENDBRANCH  16  22
BRANCH  19  29
ATOM     29  O   UNL     1      -3.217  12.509  20.474  0.00  0.00    +0.000 OA
ATOM     30  H   UNL     1      -3.698  13.218  20.017  0.00  0.00    +0.000 HD
ENDBRANCH  19  29
TORSDOF 4
ENDMDL
MODEL 4
REMARK VINA RESULT:      -5.8      9.945     12.992
REMARK  Name = 
REMARK  6 active torsions:
REMARK  status: ('A' for Active; 'I' for Inactive)
REMARK    1  A    between atoms: C_1  and  C_2
REMARK    2  A    between atoms: C_5  and  O_6
REMARK    3  A    between atoms: C_15  and  C_16
REMARK    4  A    between atoms: C_17  and  C_18
REMARK    5  A    between atoms: C_19  and  C_20
REMARK    6  A    between atoms: C_25  and  O_26
REMARK                            x       y       z     vdW  Elec       q    Type
REMARK                         _______ _______ _______ _____ _____    ______ ____
ROOT
ATOM      1  C   UNL     1       7.747  12.763  17.440  0.00  0.00    +0.000 C 
ATOM      2  C   UNL     1       9.088  13.165  18.113  0.00  0.00    +0.000 C 
ATOM      3  C   UNL     1       9.751  14.199  17.155  0.00  0.00    +0.000 C 
ATOM      4  C   UNL     1      11.176  14.576  17.549  0.00  0.00    +0.000 C 
ATOM      5  C   UNL     1      12.077  13.350  17.653  0.00  0.00    +0.000 C 
ATOM      6  C   UNL     1      11.479  12.275  18.559  0.00  0.00    +0.000 C 
ATOM      7  C   UNL     1      10.015  11.912  18.211  0.00  0.00    +0.000 C 
ATOM      8  C   UNL     1       9.476  10.875  19.209  0.00  0.00    +0.000 C 
ATOM      9  C   UNL     1       9.209  11.453  20.597  0.00  0.00    +0.000 C 
ATOM     10  C   UNL     1       8.296  12.694  20.554  0.00  0.00    +0.000 C 
ATOM     11  C   UNL     1       8.851  13.755  19.557  0.00  0.00    +0.000 C 
ATOM     12  C   UNL     1       7.979  15.022  19.553  0.00  0.00    +0.000 C 
ATOM     13  C   UNL     1       7.815  15.591  20.953  0.00  0.00    +0.000 C 
ATOM     14  C   UNL     1       7.190  14.582  21.949  0.00  0.00    +0.000 C 
ATOM     15  C   UNL     1       5.717  14.342  21.553  0.00  0.00    +0.000 C 
ATOM     16  C   UNL     1       7.375  15.164  23.390  0.00  0.00    +0.000 C 
ATOM     17  C   UNL     1       8.760  14.651  23.846  0.00  0.00    +0.000 C 
ATOM     18  C   UNL     1       9.236  13.610  22.824  0.00  0.00    +0.000 C 
ATOM     19  C   UNL     1       8.004  13.260  21.976  0.00  0.00    +0.000 C 
ENDROOT
BRANCH   5  20
ATOM     20  O   UNL     1      12.332  12.815  16.357  0.00  0.00    +0.000 OA
ATOM     21  H   UNL     1      12.381  13.545  15.720  0.00  0.00    +0.000 HD
ENDBRANCH   5  20
BRANCH  16  22
ATOM     22  C   UNL     1       6.291  14.836  24.396  0.00  0.00    +0.000 C 
ATOM     23  C   UNL     1       6.369  15.180  25.690  0.00  0.00    +0.000 C 
BRANCH  23  24
ATOM     24  C   UNL     1       5.258  14.934  26.643  0.00  0.00    +0.000 C 
ATOM     25  N   UNL     1       4.869  16.047  27.330  0.00  0.00    +0.000 N 
ATOM     26  O   UNL     1       4.714  13.853  26.800  0.00  0.00    +0.000 OA
ATOM     27  H   UNL     1       5.290  16.958  27.221  0.00  0.00    +0.000 HD
ATOM     28  H   UNL     1       4.095  15.945  27.974  0.00  0.00    +0.000 HD
ENDBRANCH  23  24
ENDBRANCH  16  22
BRANCH  19  29
ATOM     29  O   UNL     1       7.254  12.275  22.702  0.00  0.00    +0.000 OA
ATOM     30  H   UNL     1       6.357  12.227  22.335  0.00  0.00    +0.000 HD
ENDBRANCH  19  29
TORSDOF 4
ENDMDL
MODEL 5
REMARK VINA RESULT:      -5.7     10.293     13.184
REMARK  Name = 
REMARK  6 active torsions:
REMARK  status: ('A' for Active; 'I' for Inactive)
REMARK    1  A    between atoms: C_1  and  C_2
REMARK    2  A    between atoms: C_5  and  O_6
REMARK    3  A    between atoms: C_15  and  C_16
REMARK    4  A    between atoms: C_17  and  C_18
REMARK    5  A    between atoms: C_19  and  C_20
REMARK    6  A    between atoms: C_25  and  O_26
REMARK                            x       y       z     vdW  Elec       q    Type
REMARK                         _______ _______ _______ _____ _____    ______ ____
ROOT
ATOM      1  C   UNL     1       6.786  14.334  17.771  0.00  0.00    +0.000 C 
ATOM      2  C   UNL     1       8.131  14.891  18.312  0.00  0.00    +0.000 C 
ATOM      3  C   UNL     1       8.272  16.320  17.710  0.00  0.00    +0.000 C 
ATOM      4  C   UNL     1       9.629  16.967  17.973  0.00  0.00    +0.000 C 
ATOM      5  C   UNL     1      10.776  16.100  17.465  0.00  0.00    +0.000 C 
ATOM      6  C   UNL     1      10.692  14.669  17.993  0.00  0.00    +0.000 C 
ATOM      7  C   UNL     1       9.307  14.009  17.784  0.00  0.00    +0.000 C 
ATOM      8  C   UNL     1       9.293  12.602  18.400  0.00  0.00    +0.000 C 
ATOM      9  C   UNL     1       9.277  12.611  19.927  0.00  0.00    +0.000 C 
ATOM     10  C   UNL     1       8.130  13.468  20.500  0.00  0.00    +0.000 C 
ATOM     11  C   UNL     1       8.155  14.902  19.890  0.00  0.00    +0.000 C 
ATOM     12  C   UNL     1       7.051  15.783  20.501  0.00  0.00    +0.000 C 
ATOM     13  C   UNL     1       7.136  15.811  22.018  0.00  0.00    +0.000 C 
ATOM     14  C   UNL     1       7.035  14.403  22.658  0.00  0.00    +0.000 C 
ATOM     15  C   UNL     1       5.602  13.866  22.452  0.00  0.00    +0.000 C 
ATOM     16  C   UNL     1       7.455  14.536  24.160  0.00  0.00    +0.000 C 
ATOM     17  C   UNL     1       8.989  14.348  24.156  0.00  0.00    +0.000 C 
ATOM     18  C   UNL     1       9.402  13.870  22.757  0.00  0.00    +0.000 C 
ATOM     19  C   UNL     1       8.102  13.448  22.057  0.00  0.00    +0.000 C 
ENDROOT
BRANCH   5  20
ATOM     20  O   UNL     1      10.797  16.098  16.039  0.00  0.00    +0.000 OA
ATOM     21  H   UNL     1       9.888  16.197  15.712  0.00  0.00    +0.000 HD
ENDBRANCH   5  20
BRANCH  16  22
ATOM     22  C   UNL     1       6.773  13.600  25.137  0.00  0.00    +0.000 C 
ATOM     23  C   UNL     1       7.378  12.524  25.659  0.00  0.00    +0.000 C 
BRANCH  23  24
ATOM     24  C   UNL     1       6.730  11.670  26.685  0.00  0.00    +0.000 C 
ATOM     25  N   UNL     1       7.342  11.717  27.903  0.00  0.00    +0.000 N 
ATOM     26  O   UNL     1       5.731  10.997  26.488  0.00  0.00    +0.000 OA
ATOM     27  H   UNL     1       8.165  12.266  28.106  0.00  0.00    +0.000 HD
ATOM     28  H   UNL     1       6.926  11.176  28.651  0.00  0.00    +0.000 HD
ENDBRANCH  23  24
ENDBRANCH  16  22
BRANCH  19  29
ATOM     29  O   UNL     1       7.807  12.109  22.480  0.00  0.00    +0.000 OA
ATOM     30  H   UNL     1       7.583  11.573  21.702  0.00  0.00    +0.000 HD
ENDBRANCH  19  29
TORSDOF 4
ENDMDL
MODEL 6
REMARK VINA RESULT:      -5.7      5.217      8.519
REMARK  Name = 
REMARK  6 active torsions:
REMARK  status: ('A' for Active; 'I' for Inactive)
REMARK    1  A    between atoms: C_1  and  C_2
REMARK    2  A    between atoms: C_5  and  O_6
REMARK    3  A    between atoms: C_15  and  C_16
REMARK    4  A    between atoms: C_17  and  C_18
REMARK    5  A    between atoms: C_19  and  C_20
REMARK    6  A    between atoms: C_25  and  O_26
REMARK                            x       y       z     vdW  Elec       q    Type
REMARK                         _______ _______ _______ _____ _____    ______ ____
ROOT
ATOM      1  C   UNL     1       1.447   5.337  17.381  0.00  0.00    +0.000 C 
ATOM      2  C   UNL     1       2.636   5.808  18.263  0.00  0.00    +0.000 C 
ATOM      3  C   UNL     1       3.856   5.929  17.303  0.00  0.00    +0.000 C 
ATOM      4  C   UNL     1       5.177   6.199  18.018  0.00  0.00    +0.000 C 
ATOM      5  C   UNL     1       5.478   5.137  19.069  0.00  0.00    +0.000 C 
ATOM      6  C   UNL     1       4.312   4.941  20.037  0.00  0.00    +0.000 C 
ATOM      7  C   UNL     1       2.951   4.716  19.334  0.00  0.00    +0.000 C 
ATOM      8  C   UNL     1       1.830   4.594  20.379  0.00  0.00    +0.000 C 
ATOM      9  C   UNL     1       1.485   5.919  21.053  0.00  0.00    +0.000 C 
ATOM     10  C   UNL     1       1.164   7.033  20.036  0.00  0.00    +0.000 C 
ATOM     11  C   UNL     1       2.309   7.171  18.988  0.00  0.00    +0.000 C 
ATOM     12  C   UNL     1       2.025   8.321  18.005  0.00  0.00    +0.000 C 
ATOM     13  C   UNL     1       1.765   9.628  18.736  0.00  0.00    +0.000 C 
ATOM     14  C   UNL     1       0.579   9.543  19.730  0.00  0.00    +0.000 C 
ATOM     15  C   UNL     1      -0.731   9.388  18.927  0.00  0.00    +0.000 C 
ATOM     16  C   UNL     1       0.625  10.821  20.631  0.00  0.00    +0.000 C 
ATOM     17  C   UNL     1       1.550  10.438  21.809  0.00  0.00    +0.000 C 
ATOM     18  C   UNL     1       1.813   8.928  21.728  0.00  0.00    +0.000 C 
ATOM     19  C   UNL     1       0.784   8.374  20.732  0.00  0.00    +0.000 C 
ENDROOT
BRANCH   5  20
ATOM     20  O   UNL     1       5.807   3.900  18.440  0.00  0.00    +0.000 OA
ATOM     21  H   UNL     1       6.739   3.924  18.171  0.00  0.00    +0.000 HD
ENDBRANCH   5  20
BRANCH  16  22
ATOM     22  C   UNL     1      -0.708  11.359  21.110  0.00  0.00    +0.000 C 
ATOM     23  C   UNL     1      -0.975  11.600  22.402  0.00  0.00    +0.000 C 
BRANCH  23  24
ATOM     24  C   UNL     1      -2.252  12.213  22.846  0.00  0.00    +0.000 C 
ATOM     25  N   UNL     1      -2.484  13.444  22.306  0.00  0.00    +0.000 N 
ATOM     26  O   UNL     1      -3.044  11.678  23.604  0.00  0.00    +0.000 OA
ATOM     27  H   UNL     1      -1.857  13.915  21.670  0.00  0.00    +0.000 HD
ATOM     28  H   UNL     1      -3.355  13.899  22.551  0.00  0.00    +0.000 HD
ENDBRANCH  23  24
ENDBRANCH  16  22
BRANCH  19  29
ATOM     29  O   UNL     1      -0.439   8.170  21.454  0.00  0.00    +0.000 OA
ATOM     30  H   UNL     1      -1.167   8.064  20.820  0.00  0.00    +0.000 HD
ENDBRANCH  19  29
TORSDOF 4
ENDMDL
MODEL 7
REMARK VINA RESULT:      -5.7     10.487     12.781
REMARK  Name = 
REMARK  6 active torsions:
REMARK  status: ('A' for Active; 'I' for Inactive)
REMARK    1  A    between atoms: C_1  and  C_2
REMARK    2  A    between atoms: C_5  and  O_6
REMARK    3  A    between atoms: C_15  and  C_16
REMARK    4  A    between atoms: C_17  and  C_18
REMARK    5  A    between atoms: C_19  and  C_20
REMARK    6  A    between atoms: C_25  and  O_26
REMARK                            x       y       z     vdW  Elec       q    Type
REMARK                         _______ _______ _______ _____ _____    ______ ____
ROOT
ATOM      1  C   UNL     1       9.163  15.663  22.330  0.00  0.00    +0.000 C 
ATOM      2  C   UNL     1       8.878  14.469  21.378  0.00  0.00    +0.000 C 
ATOM      3  C   UNL     1       9.075  13.185  22.236  0.00  0.00    +0.000 C 
ATOM      4  C   UNL     1       9.024  11.892  21.427  0.00  0.00    +0.000 C 
ATOM      5  C   UNL     1      10.046  11.892  20.296  0.00  0.00    +0.000 C 
ATOM      6  C   UNL     1       9.933  13.140  19.421  0.00  0.00    +0.000 C 
ATOM      7  C   UNL     1       9.930  14.464  20.223  0.00  0.00    +0.000 C 
ATOM      8  C   UNL     1       9.748  15.658  19.273  0.00  0.00    +0.000 C 
ATOM      9  C   UNL     1       8.335  15.770  18.707  0.00  0.00    +0.000 C 
ATOM     10  C   UNL     1       7.256  15.781  19.808  0.00  0.00    +0.000 C 
ATOM     11  C   UNL     1       7.427  14.560  20.761  0.00  0.00    +0.000 C 
ATOM     12  C   UNL     1       6.319  14.529  21.828  0.00  0.00    +0.000 C 
ATOM     13  C   UNL     1       4.936  14.567  21.197  0.00  0.00    +0.000 C 
ATOM     14  C   UNL     1       4.709  15.812  20.304  0.00  0.00    +0.000 C 
ATOM     15  C   UNL     1       4.656  17.065  21.206  0.00  0.00    +0.000 C 
ATOM     16  C   UNL     1       3.405  15.569  19.476  0.00  0.00    +0.000 C 
ATOM     17  C   UNL     1       3.879  14.830  18.204  0.00  0.00    +0.000 C 
ATOM     18  C   UNL     1       5.413  14.878  18.177  0.00  0.00    +0.000 C 
ATOM     19  C   UNL     1       5.820  15.925  19.224  0.00  0.00    +0.000 C 
ENDROOT
BRANCH   5  20
ATOM     20  O   UNL     1      11.366  11.781  20.824  0.00  0.00    +0.000 OA
ATOM     21  H   UNL     1      11.714  10.899  20.614  0.00  0.00    +0.000 HD
ENDBRANCH   5  20
BRANCH  16  22
ATOM     22  C   UNL     1       2.576  16.793  19.144  0.00  0.00    +0.000 C 
ATOM     23  C   UNL     1       1.924  16.938  17.981  0.00  0.00    +0.000 C 
BRANCH  23  24
ATOM     24  C   UNL     1       1.043  18.101  17.707  0.00  0.00    +0.000 C 
ATOM     25  N   UNL     1       1.083  18.525  16.411  0.00  0.00    +0.000 N 
ATOM     26  O   UNL     1       0.326  18.631  18.540  0.00  0.00    +0.000 OA
ATOM     27  H   UNL     1       1.658  18.107  15.693  0.00  0.00    +0.000 HD
ATOM     28  H   UNL     1       0.480  19.297  16.159  0.00  0.00    +0.000 HD
ENDBRANCH  23  24
ENDBRANCH  16  22
BRANCH  19  29
ATOM     29  O   UNL     1       5.721  17.213  18.599  0.00  0.00    +0.000 OA
ATOM     30  H   UNL     1       5.130  17.776  19.125  0.00  0.00    +0.000 HD
ENDBRANCH  19  29
TORSDOF 4
ENDMDL
MODEL 8
REMARK VINA RESULT:      -5.6      9.394     12.012
REMARK  Name = 
REMARK  6 active torsions:
REMARK  status: ('A' for Active; 'I' for Inactive)
REMARK    1  A    between atoms: C_1  and  C_2
REMARK    2  A    between atoms: C_5  and  O_6
REMARK    3  A    between atoms: C_15  and  C_16
REMARK    4  A    between atoms: C_17  and  C_18
REMARK    5  A    between atoms: C_19  and  C_20
REMARK    6  A    between atoms: C_25  and  O_26
REMARK                            x       y       z     vdW  Elec       q    Type
REMARK                         _______ _______ _______ _____ _____    ______ ____
ROOT
ATOM      1  C   UNL     1      -1.555  15.297  24.502  0.00  0.00    +0.000 C 
ATOM      2  C   UNL     1      -2.688  15.222  23.442  0.00  0.00    +0.000 C 
ATOM      3  C   UNL     1      -3.145  16.691  23.202  0.00  0.00    +0.000 C 
ATOM      4  C   UNL     1      -4.389  16.813  22.327  0.00  0.00    +0.000 C 
ATOM      5  C   UNL     1      -5.559  16.017  22.894  0.00  0.00    +0.000 C 
ATOM      6  C   UNL     1      -5.180  14.565  23.182  0.00  0.00    +0.000 C 
ATOM      7  C   UNL     1      -3.891  14.415  24.026  0.00  0.00    +0.000 C 
ATOM      8  C   UNL     1      -3.551  12.927  24.211  0.00  0.00    +0.000 C 
ATOM      9  C   UNL     1      -3.030  12.264  22.939  0.00  0.00    +0.000 C 
ATOM     10  C   UNL     1      -1.838  13.023  22.322  0.00  0.00    +0.000 C 
ATOM     11  C   UNL     1      -2.188  14.527  22.116  0.00  0.00    +0.000 C 
ATOM     12  C   UNL     1      -1.026  15.280  21.446  0.00  0.00    +0.000 C 
ATOM     13  C   UNL     1      -0.604  14.613  20.146  0.00  0.00    +0.000 C 
ATOM     14  C   UNL     1      -0.175  13.136  20.333  0.00  0.00    +0.000 C 
ATOM     15  C   UNL     1       1.150  13.102  21.127  0.00  0.00    +0.000 C 
ATOM     16  C   UNL     1      -0.083  12.487  18.913  0.00  0.00    +0.000 C 
ATOM     17  C   UNL     1      -1.509  11.963  18.627  0.00  0.00    +0.000 C 
ATOM     18  C   UNL     1      -2.318  12.071  19.927  0.00  0.00    +0.000 C 
ATOM     19  C   UNL     1      -1.293  12.323  21.042  0.00  0.00    +0.000 C 
ENDROOT
BRANCH   5  20
ATOM     20  O   UNL     1      -6.051  16.641  24.078  0.00  0.00    +0.000 OA
ATOM     21  H   UNL     1      -6.139  17.594  23.917  0.00  0.00    +0.000 HD
ENDBRANCH   5  20
BRANCH  16  22
ATOM     22  C   UNL     1       0.964  11.407  18.730  0.00  0.00    +0.000 C 
ATOM     23  C   UNL     1       0.653  10.120  18.512  0.00  0.00    +0.000 C 
BRANCH  23  24
ATOM     24  C   UNL     1       1.687   9.090  18.243  0.00  0.00    +0.000 C 
ATOM     25  N   UNL     1       1.864   8.210  19.270  0.00  0.00    +0.000 N 
ATOM     26  O   UNL     1       2.319   9.006  17.201  0.00  0.00    +0.000 OA
ATOM     27  H   UNL     1       1.356   8.243  20.142  0.00  0.00    +0.000 HD
ATOM     28  H   UNL     1       2.537   7.467  19.131  0.00  0.00    +0.000 HD
ENDBRANCH  23  24
ENDBRANCH  16  22
BRANCH  19  29
ATOM     29  O   UNL     1      -0.759  11.047  21.425  0.00  0.00    +0.000 OA
ATOM     30  H   UNL     1      -1.493  10.433  21.585  0.00  0.00    +0.000 HD
ENDBRANCH  19  29
TORSDOF 4
ENDMDL
MODEL 9
REMARK VINA RESULT:      -5.6      8.741     11.243
REMARK  Name = 
REMARK  6 active torsions:
REMARK  status: ('A' for Active; 'I' for Inactive)
REMARK    1  A    between atoms: C_1  and  C_2
REMARK    2  A    between atoms: C_5  and  O_6
REMARK    3  A    between atoms: C_15  and  C_16
REMARK    4  A    between atoms: C_17  and  C_18
REMARK    5  A    between atoms: C_19  and  C_20
REMARK    6  A    between atoms: C_25  and  O_26
REMARK                            x       y       z     vdW  Elec       q    Type
REMARK                         _______ _______ _______ _____ _____    ______ ____
ROOT
ATOM      1  C   UNL     1       0.063  16.471  22.122  0.00  0.00    +0.000 C 
ATOM      2  C   UNL     1      -1.289  15.799  21.755  0.00  0.00    +0.000 C 
ATOM      3  C   UNL     1      -2.121  16.890  21.021  0.00  0.00    +0.000 C 
ATOM      4  C   UNL     1      -3.565  16.481  20.745  0.00  0.00    +0.000 C 
ATOM      5  C   UNL     1      -4.293  16.080  22.023  0.00  0.00    +0.000 C 
ATOM      6  C   UNL     1      -3.522  15.026  22.816  0.00  0.00    +0.000 C 
ATOM      7  C   UNL     1      -2.039  15.397  23.065  0.00  0.00    +0.000 C 
ATOM      8  C   UNL     1      -1.327  14.257  23.810  0.00  0.00    +0.000 C 
ATOM      9  C   UNL     1      -1.078  13.028  22.938  0.00  0.00    +0.000 C 
ATOM     10  C   UNL     1      -0.336  13.372  21.631  0.00  0.00    +0.000 C 
ATOM     11  C   UNL     1      -1.068  14.515  20.865  0.00  0.00    +0.000 C 
ATOM     12  C   UNL     1      -0.370  14.823  19.529  0.00  0.00    +0.000 C 
ATOM     13  C   UNL     1      -0.220  13.574  18.676  0.00  0.00    +0.000 C 
ATOM     14  C   UNL     1       0.573  12.446  19.383  0.00  0.00    +0.000 C 
ATOM     15  C   UNL     1       2.047  12.888  19.521  0.00  0.00    +0.000 C 
ATOM     16  C   UNL     1       0.377  11.136  18.551  0.00  0.00    +0.000 C 
ATOM     17  C   UNL     1      -0.909  10.496  19.123  0.00  0.00    +0.000 C 
ATOM     18  C   UNL     1      -1.288  11.263  20.398  0.00  0.00    +0.000 C 
ATOM     19  C   UNL     1      -0.060  12.109  20.761  0.00  0.00    +0.000 C 
ENDROOT
BRANCH   5  20
ATOM     20  O   UNL     1      -4.532  17.228  22.834  0.00  0.00    +0.000 OA
ATOM     21  H   UNL     1      -5.483  17.288  23.019  0.00  0.00    +0.000 HD
ENDBRANCH   5  20
BRANCH  16  22
ATOM     22  C   UNL     1       1.537  10.162  18.540  0.00  0.00    +0.000 C 
ATOM     23  C   UNL     1       1.389   8.855  18.280  0.00  0.00    +0.000 C 
BRANCH  23  24
ATOM     24  C   UNL     1       2.546   7.931  18.182  0.00  0.00    +0.000 C 
ATOM     25  N   UNL     1       2.565   6.971  19.151  0.00  0.00    +0.000 N 
ATOM     26  O   UNL     1       3.402   7.991  17.313  0.00  0.00    +0.000 OA
ATOM     27  H   UNL     1       1.872   6.885  19.881  0.00  0.00    +0.000 HD
ATOM     28  H   UNL     1       3.317   6.294  19.116  0.00  0.00    +0.000 HD
ENDBRANCH  23  24
ENDBRANCH  16  22
BRANCH  19  29
ATOM     29  O   UNL     1       0.843  11.260  21.484  0.00  0.00    +0.000 OA
ATOM     30  H   UNL     1       0.749  11.434  22.435  0.00  0.00    +0.000 HD
ENDBRANCH  19  29
TORSDOF 4
ENDMDL
