MODEL 1
REMARK VINA RESULT:      -9.0      0.000      0.000
REMARK  Name = 
REMARK  9 active torsions:
REMARK  status: ('A' for Active; 'I' for Inactive)
REMARK    1  A    between atoms: C_1  and  N_2
REMARK    2  A    between atoms: N_2  and  C_3
REMARK    3  A    between atoms: C_5  and  N_6
REMARK    4  A    between atoms: N_6  and  S_7
REMARK    5  A    between atoms: S_7  and  C_8
REMARK    6  A    between atoms: C_13  and  N_14
REMARK    7  A    between atoms: N_14  and  C_15
REMARK    8  A    between atoms: C_24  and  C_25
REMARK    9  A    between atoms: C_26  and  C_27
REMARK                            x       y       z     vdW  Elec       q    Type
REMARK                         _______ _______ _______ _____ _____    ______ ____
ROOT
ATOM      1  N   UNL     1       2.313   7.187  19.083  0.00  0.00    +0.000 N 
ATOM      2  H   UNL     1       1.746   6.943  18.276  0.00  0.00    +0.000 HD
ENDROOT
BRANCH   1   3
ATOM      3  C   UNL     1       3.299   6.133  19.260  0.00  0.00    +0.000 A 
ATOM      4  C   UNL     1       4.393   5.934  18.243  0.00  0.00    +0.000 A 
ATOM      5  C   UNL     1       4.453   6.193  16.821  0.00  0.00    +0.000 A 
ATOM      6  C   UNL     1       5.480   5.651  15.990  0.00  0.00    +0.000 A 
ATOM      7  C   UNL     1       6.570   4.999  16.555  0.00  0.00    +0.000 A 
ATOM      8  C   UNL     1       6.548   4.749  17.911  0.00  0.00    +0.000 A 
ATOM      9  C   UNL     1       5.419   5.053  18.645  0.00  0.00    +0.000 A 
ATOM     10  N   UNL     1       5.150   4.187  19.613  0.00  0.00    +0.000 NA
ATOM     11  C   UNL     1       3.855   3.996  19.745  0.00  0.00    +0.000 A 
ATOM     12  C   UNL     1       3.108   3.212  18.815  0.00  0.00    +0.000 A 
ATOM     13  C   UNL     1       3.803   2.432  17.719  0.00  0.00    +0.000 C 
ATOM     14  C   UNL     1       1.729   3.486  18.687  0.00  0.00    +0.000 A 
ATOM     15  C   UNL     1       1.187   3.995  17.355  0.00  0.00    +0.000 C 
ATOM     16  C   UNL     1       1.099   3.975  19.817  0.00  0.00    +0.000 A 
ATOM     17  C   UNL     1       1.889   4.705  20.692  0.00  0.00    +0.000 A 
ATOM     18  C   UNL     1       3.128   5.064  20.193  0.00  0.00    +0.000 A 
ENDBRANCH   1   3
BRANCH   1  24
ATOM     19  C   UNL     1       1.394   9.647  19.262  0.00  0.00    +0.000 A 
ATOM     20  C   UNL     1       0.682  10.556  20.133  0.00  0.00    +0.000 A 
ATOM     21  C   UNL     1       0.264  10.222  21.426  0.00  0.00    +0.000 A 
ATOM     22  C   UNL     1       0.658   9.002  21.925  0.00  0.00    +0.000 A 
ATOM     23  C   UNL     1       1.369   8.091  21.112  0.00  0.00    +0.000 A 
ATOM     24  C   UNL     1       1.716   8.337  19.747  0.00  0.00    +0.000 A 
BRANCH  19  26
ATOM     25  C   UNL     1       2.358  11.465  17.832  0.00  0.00    +0.000 C 
ATOM     26  N   UNL     1       1.772  10.132  17.998  0.00  0.00    +0.000 N 
ATOM     27  H   UNL     1       1.186   9.789  17.247  0.00  0.00    +0.000 HD
ENDBRANCH  19  26
BRANCH  21  28
ATOM     28  N   UNL     1      -0.595  11.089  22.166  0.00  0.00    +0.000 N 
ATOM     29  H   UNL     1      -1.571  10.789  22.206  0.00  0.00    +0.000 HD
BRANCH  28  30
ATOM     30  S   UNL     1      -0.571  12.745  21.862  0.00  0.00    +0.000 S 
ATOM     31  C   UNL     1      -1.374  13.388  23.317  0.00  0.00    +0.000 C 
ATOM     32  O   UNL     1       0.787  13.230  21.805  0.00  0.00    +0.000 OA
ATOM     33  O   UNL     1      -1.478  12.946  20.748  0.00  0.00    +0.000 OA
ENDBRANCH  28  30
ENDBRANCH  21  28
ENDBRANCH   1  24
TORSDOF 5
ENDMDL
MODEL 2
REMARK VINA RESULT:      -8.8      1.516      2.425
REMARK  Name = 
REMARK  9 active torsions:
REMARK  status: ('A' for Active; 'I' for Inactive)
REMARK    1  A    between atoms: C_1  and  N_2
REMARK    2  A    between atoms: N_2  and  C_3
REMARK    3  A    between atoms: C_5  and  N_6
REMARK    4  A    between atoms: N_6  and  S_7
REMARK    5  A    between atoms: S_7  and  C_8
REMARK    6  A    between atoms: C_13  and  N_14
REMARK    7  A    between atoms: N_14  and  C_15
REMARK    8  A    between atoms: C_24  and  C_25
REMARK    9  A    between atoms: C_26  and  C_27
REMARK                            x       y       z     vdW  Elec       q    Type
REMARK                         _______ _______ _______ _____ _____    ______ ____
ROOT
ATOM      1  N   UNL     1       2.300   6.405  20.305  0.00  0.00    +0.000 N 
ATOM      2  H   UNL     1       1.849   6.070  21.151  0.00  0.00    +0.000 HD
ENDROOT
BRANCH   1   3
ATOM      3  C   UNL     1       3.354   5.460  19.967  0.00  0.00    +0.000 A 
ATOM      4  C   UNL     1       4.384   5.808  18.925  0.00  0.00    +0.000 A 
ATOM      5  C   UNL     1       4.332   6.661  17.758  0.00  0.00    +0.000 A 
ATOM      6  C   UNL     1       5.327   6.616  16.735  0.00  0.00    +0.000 A 
ATOM      7  C   UNL     1       6.488   5.873  16.917  0.00  0.00    +0.000 A 
ATOM      8  C   UNL     1       6.573   5.061  18.028  0.00  0.00    +0.000 A 
ATOM      9  C   UNL     1       5.483   4.925  18.863  0.00  0.00    +0.000 A 
ATOM     10  N   UNL     1       5.330   3.708  19.365  0.00  0.00    +0.000 NA
ATOM     11  C   UNL     1       4.059   3.376  19.450  0.00  0.00    +0.000 A 
ATOM     12  C   UNL     1       3.295   3.014  18.299  0.00  0.00    +0.000 A 
ATOM     13  C   UNL     1       3.955   2.843  16.948  0.00  0.00    +0.000 C 
ATOM     14  C   UNL     1       1.897   3.205  18.356  0.00  0.00    +0.000 A 
ATOM     15  C   UNL     1       1.237   4.195  17.401  0.00  0.00    +0.000 C 
ATOM     16  C   UNL     1       1.320   3.105  19.609  0.00  0.00    +0.000 A 
ATOM     17  C   UNL     1       2.126   3.445  20.684  0.00  0.00    +0.000 A 
ATOM     18  C   UNL     1       3.307   4.083  20.346  0.00  0.00    +0.000 A 
ENDBRANCH   1   3
BRANCH   1  24
ATOM     19  C   UNL     1       1.413   8.820  20.859  0.00  0.00    +0.000 A 
ATOM     20  C   UNL     1       1.067  10.092  20.263  0.00  0.00    +0.000 A 
ATOM     21  C   UNL     1       1.111  10.338  18.886  0.00  0.00    +0.000 A 
ATOM     22  C   UNL     1       1.387   9.273  18.059  0.00  0.00    +0.000 A 
ATOM     23  C   UNL     1       1.715   8.011  18.601  0.00  0.00    +0.000 A 
ATOM     24  C   UNL     1       1.801   7.739  20.002  0.00  0.00    +0.000 A 
BRANCH  19  26
ATOM     25  C   UNL     1       0.251   9.424  22.996  0.00  0.00    +0.000 C 
ATOM     26  N   UNL     1       1.298   8.713  22.256  0.00  0.00    +0.000 N 
ATOM     27  H   UNL     1       2.188   8.588  22.722  0.00  0.00    +0.000 HD
ENDBRANCH  19  26
BRANCH  21  28
ATOM     28  N   UNL     1       0.942  11.659  18.371  0.00  0.00    +0.000 N 
ATOM     29  H   UNL     1       1.737  12.281  18.527  0.00  0.00    +0.000 HD
BRANCH  28  30
ATOM     30  S   UNL     1      -0.466  12.515  18.720  0.00  0.00    +0.000 S 
ATOM     31  C   UNL     1      -1.705  11.489  17.953  0.00  0.00    +0.000 C 
ATOM     32  O   UNL     1      -0.691  12.562  20.144  0.00  0.00    +0.000 OA
ATOM     33  O   UNL     1      -0.379  13.735  17.941  0.00  0.00    +0.000 OA
ENDBRANCH  28  30
ENDBRANCH  21  28
ENDBRANCH   1  24
TORSDOF 5
ENDMDL
MODEL 3
REMARK VINA RESULT:      -8.8      1.486      2.286
REMARK  Name = 
REMARK  9 active torsions:
REMARK  status: ('A' for Active; 'I' for Inactive)
REMARK    1  A    between atoms: C_1  and  N_2
REMARK    2  A    between atoms: N_2  and  C_3
REMARK    3  A    between atoms: C_5  and  N_6
REMARK    4  A    between atoms: N_6  and  S_7
REMARK    5  A    between atoms: S_7  and  C_8
REMARK    6  A    between atoms: C_13  and  N_14
REMARK    7  A    between atoms: N_14  and  C_15
REMARK    8  A    between atoms: C_24  and  C_25
REMARK    9  A    between atoms: C_26  and  C_27
REMARK                            x       y       z     vdW  Elec       q    Type
REMARK                         _______ _______ _______ _____ _____    ______ ____
ROOT
ATOM      1  N   UNL     1       2.313   7.208  18.636  0.00  0.00    +0.000 N 
ATOM      2  H   UNL     1       1.609   6.738  18.075  0.00  0.00    +0.000 HD
ENDROOT
BRANCH   1   3
ATOM      3  C   UNL     1       3.325   6.223  18.984  0.00  0.00    +0.000 A 
ATOM      4  C   UNL     1       4.441   5.906  18.023  0.00  0.00    +0.000 A 
ATOM      5  C   UNL     1       4.518   5.948  16.579  0.00  0.00    +0.000 A 
ATOM      6  C   UNL     1       5.574   5.318  15.853  0.00  0.00    +0.000 A 
ATOM      7  C   UNL     1       6.672   4.792  16.524  0.00  0.00    +0.000 A 
ATOM      8  C   UNL     1       6.634   4.751  17.902  0.00  0.00    +0.000 A 
ATOM      9  C   UNL     1       5.485   5.128  18.568  0.00  0.00    +0.000 A 
ATOM     10  N   UNL     1       5.224   4.411  19.652  0.00  0.00    +0.000 NA
ATOM     11  C   UNL     1       3.932   4.203  19.795  0.00  0.00    +0.000 A 
ATOM     12  C   UNL     1       3.224   3.264  18.986  0.00  0.00    +0.000 A 
ATOM     13  C   UNL     1       3.959   2.349  18.030  0.00  0.00    +0.000 C 
ATOM     14  C   UNL     1       1.840   3.474  18.801  0.00  0.00    +0.000 A 
ATOM     15  C   UNL     1       1.306   3.758  17.400  0.00  0.00    +0.000 C 
ATOM     16  C   UNL     1       1.178   4.109  19.835  0.00  0.00    +0.000 A 
ATOM     17  C   UNL     1       1.931   4.987  20.599  0.00  0.00    +0.000 A 
ATOM     18  C   UNL     1       3.169   5.304  20.067  0.00  0.00    +0.000 A 
ENDBRANCH   1   3
BRANCH   1  24
ATOM     19  C   UNL     1       1.191   9.057  20.136  0.00  0.00    +0.000 A 
ATOM     20  C   UNL     1       0.941  10.479  20.229  0.00  0.00    +0.000 A 
ATOM     21  C   UNL     1       1.317  11.396  19.241  0.00  0.00    +0.000 A 
ATOM     22  C   UNL     1       1.847  10.893  18.075  0.00  0.00    +0.000 A 
ATOM     23  C   UNL     1       2.092   9.509  17.939  0.00  0.00    +0.000 A 
ATOM     24  C   UNL     1       1.837   8.545  18.964  0.00  0.00    +0.000 A 
BRANCH  19  26
ATOM     25  C   UNL     1      -0.354   8.692  22.075  0.00  0.00    +0.000 C 
ATOM     26  N   UNL     1       0.734   8.254  21.196  0.00  0.00    +0.000 N 
ATOM     27  H   UNL     1       1.463   7.688  21.611  0.00  0.00    +0.000 HD
ENDBRANCH  19  26
BRANCH  21  28
ATOM     28  N   UNL     1       1.214  12.802  19.469  0.00  0.00    +0.000 N 
ATOM     29  H   UNL     1       1.549  13.110  20.384  0.00  0.00    +0.000 HD
BRANCH  28  30
ATOM     30  S   UNL     1      -0.237  13.594  19.152  0.00  0.00    +0.000 S 
ATOM     31  C   UNL     1       0.318  15.267  18.891  0.00  0.00    +0.000 C 
ATOM     32  O   UNL     1      -0.835  13.089  17.939  0.00  0.00    +0.000 OA
ATOM     33  O   UNL     1      -0.969  13.576  20.404  0.00  0.00    +0.000 OA
ENDBRANCH  28  30
ENDBRANCH  21  28
ENDBRANCH   1  24
TORSDOF 5
ENDMDL
MODEL 4
REMARK VINA RESULT:      -8.8      1.695      2.386
REMARK  Name = 
REMARK  9 active torsions:
REMARK  status: ('A' for Active; 'I' for Inactive)
REMARK    1  A    between atoms: C_1  and  N_2
REMARK    2  A    between atoms: N_2  and  C_3
REMARK    3  A    between atoms: C_5  and  N_6
REMARK    4  A    between atoms: N_6  and  S_7
REMARK    5  A    between atoms: S_7  and  C_8
REMARK    6  A    between atoms: C_13  and  N_14
REMARK    7  A    between atoms: N_14  and  C_15
REMARK    8  A    between atoms: C_24  and  C_25
REMARK    9  A    between atoms: C_26  and  C_27
REMARK                            x       y       z     vdW  Elec       q    Type
REMARK                         _______ _______ _______ _____ _____    ______ ____
ROOT
ATOM      1  N   UNL     1       2.290   7.309  18.668  0.00  0.00    +0.000 N 
ATOM      2  H   UNL     1       1.605   6.827  18.093  0.00  0.00    +0.000 HD
ENDROOT
BRANCH   1   3
ATOM      3  C   UNL     1       3.314   6.341  19.032  0.00  0.00    +0.000 A 
ATOM      4  C   UNL     1       4.450   6.043  18.089  0.00  0.00    +0.000 A 
ATOM      5  C   UNL     1       4.550   6.088  16.647  0.00  0.00    +0.000 A 
ATOM      6  C   UNL     1       5.628   5.476  15.937  0.00  0.00    +0.000 A 
ATOM      7  C   UNL     1       6.724   4.969  16.626  0.00  0.00    +0.000 A 
ATOM      8  C   UNL     1       6.664   4.926  18.003  0.00  0.00    +0.000 A 
ATOM      9  C   UNL     1       5.498   5.282  18.650  0.00  0.00    +0.000 A 
ATOM     10  N   UNL     1       5.232   4.561  19.729  0.00  0.00    +0.000 NA
ATOM     11  C   UNL     1       3.942   4.331  19.852  0.00  0.00    +0.000 A 
ATOM     12  C   UNL     1       3.263   3.380  19.031  0.00  0.00    +0.000 A 
ATOM     13  C   UNL     1       4.029   2.478  18.087  0.00  0.00    +0.000 C 
ATOM     14  C   UNL     1       1.879   3.567  18.823  0.00  0.00    +0.000 A 
ATOM     15  C   UNL     1       1.363   3.843  17.414  0.00  0.00    +0.000 C 
ATOM     16  C   UNL     1       1.189   4.190  19.847  0.00  0.00    +0.000 A 
ATOM     17  C   UNL     1       1.915   5.080  20.623  0.00  0.00    +0.000 A 
ATOM     18  C   UNL     1       3.155   5.418  20.111  0.00  0.00    +0.000 A 
ENDBRANCH   1   3
BRANCH   1  24
ATOM     19  C   UNL     1       1.141   9.142  20.166  0.00  0.00    +0.000 A 
ATOM     20  C   UNL     1       0.857  10.558  20.249  0.00  0.00    +0.000 A 
ATOM     21  C   UNL     1       1.198  11.476  19.250  0.00  0.00    +0.000 A 
ATOM     22  C   UNL     1       1.726  10.976  18.081  0.00  0.00    +0.000 A 
ATOM     23  C   UNL     1       2.004   9.597  17.954  0.00  0.00    +0.000 A 
ATOM     24  C   UNL     1       1.785   8.636  18.990  0.00  0.00    +0.000 A 
BRANCH  19  26
ATOM     25  C   UNL     1      -0.381   8.749  22.118  0.00  0.00    +0.000 C 
ATOM     26  N   UNL     1       0.716   8.337  21.238  0.00  0.00    +0.000 N 
ATOM     27  H   UNL     1       1.466   7.801  21.655  0.00  0.00    +0.000 HD
ENDBRANCH  19  26
BRANCH  21  28
ATOM     28  N   UNL     1       1.063  12.881  19.467  0.00  0.00    +0.000 N 
ATOM     29  H   UNL     1       0.665  13.396  18.679  0.00  0.00    +0.000 HD
BRANCH  28  30
ATOM     30  S   UNL     1       2.369  13.761  20.060  0.00  0.00    +0.000 S 
ATOM     31  C   UNL     1       1.646  15.377  20.269  0.00  0.00    +0.000 C 
ATOM     32  O   UNL     1       2.785  13.249  21.344  0.00  0.00    +0.000 OA
ATOM     33  O   UNL     1       3.308  13.851  18.958  0.00  0.00    +0.000 OA
ENDBRANCH  28  30
ENDBRANCH  21  28
ENDBRANCH   1  24
TORSDOF 5
ENDMDL
MODEL 5
REMARK VINA RESULT:      -8.7      1.596      2.509
REMARK  Name = 
REMARK  9 active torsions:
REMARK  status: ('A' for Active; 'I' for Inactive)
REMARK    1  A    between atoms: C_1  and  N_2
REMARK    2  A    between atoms: N_2  and  C_3
REMARK    3  A    between atoms: C_5  and  N_6
REMARK    4  A    between atoms: N_6  and  S_7
REMARK    5  A    between atoms: S_7  and  C_8
REMARK    6  A    between atoms: C_13  and  N_14
REMARK    7  A    between atoms: N_14  and  C_15
REMARK    8  A    between atoms: C_24  and  C_25
REMARK    9  A    between atoms: C_26  and  C_27
REMARK                            x       y       z     vdW  Elec       q    Type
REMARK                         _______ _______ _______ _____ _____    ______ ____
ROOT
ATOM      1  N   UNL     1       2.384   6.478  20.356  0.00  0.00    +0.000 N 
ATOM      2  H   UNL     1       2.104   6.295  21.316  0.00  0.00    +0.000 HD
ENDROOT
BRANCH   1   3
ATOM      3  C   UNL     1       3.365   5.469  19.986  0.00  0.00    +0.000 A 
ATOM      4  C   UNL     1       4.396   5.762  18.928  0.00  0.00    +0.000 A 
ATOM      5  C   UNL     1       4.378   6.631  17.772  0.00  0.00    +0.000 A 
ATOM      6  C   UNL     1       5.349   6.533  16.729  0.00  0.00    +0.000 A 
ATOM      7  C   UNL     1       6.461   5.711  16.879  0.00  0.00    +0.000 A 
ATOM      8  C   UNL     1       6.513   4.881  17.979  0.00  0.00    +0.000 A 
ATOM      9  C   UNL     1       5.432   4.808  18.834  0.00  0.00    +0.000 A 
ATOM     10  N   UNL     1       5.208   3.597  19.325  0.00  0.00    +0.000 NA
ATOM     11  C   UNL     1       3.919   3.350  19.432  0.00  0.00    +0.000 A 
ATOM     12  C   UNL     1       3.110   3.054  18.293  0.00  0.00    +0.000 A 
ATOM     13  C   UNL     1       3.731   2.857  16.926  0.00  0.00    +0.000 C 
ATOM     14  C   UNL     1       1.730   3.338  18.380  0.00  0.00    +0.000 A 
ATOM     15  C   UNL     1       1.119   4.381  17.450  0.00  0.00    +0.000 C 
ATOM     16  C   UNL     1       1.172   3.260  19.643  0.00  0.00    +0.000 A 
ATOM     17  C   UNL     1       2.020   3.532  20.706  0.00  0.00    +0.000 A 
ATOM     18  C   UNL     1       3.233   4.094  20.350  0.00  0.00    +0.000 A 
ENDBRANCH   1   3
BRANCH   1  24
ATOM     19  C   UNL     1       1.034   8.719  20.647  0.00  0.00    +0.000 A 
ATOM     20  C   UNL     1       0.717   9.972  19.998  0.00  0.00    +0.000 A 
ATOM     21  C   UNL     1       1.156  10.311  18.714  0.00  0.00    +0.000 A 
ATOM     22  C   UNL     1       1.826   9.347  17.996  0.00  0.00    +0.000 A 
ATOM     23  C   UNL     1       2.142   8.104  18.589  0.00  0.00    +0.000 A 
ATOM     24  C   UNL     1       1.821   7.754  19.937  0.00  0.00    +0.000 A 
BRANCH  19  26
ATOM     25  C   UNL     1      -0.038   9.611  22.729  0.00  0.00    +0.000 C 
ATOM     26  N   UNL     1       0.501   8.507  21.931  0.00  0.00    +0.000 N 
ATOM     27  H   UNL     1       0.956   7.754  22.433  0.00  0.00    +0.000 HD
ENDBRANCH  19  26
BRANCH  21  28
ATOM     28  N   UNL     1       0.972  11.631  18.200  0.00  0.00    +0.000 N 
ATOM     29  H   UNL     1       1.114  11.718  17.193  0.00  0.00    +0.000 HD
BRANCH  28  30
ATOM     30  S   UNL     1       1.735  12.931  18.950  0.00  0.00    +0.000 S 
ATOM     31  C   UNL     1       0.578  14.250  18.642  0.00  0.00    +0.000 C 
ATOM     32  O   UNL     1       1.844  12.705  20.371  0.00  0.00    +0.000 OA
ATOM     33  O   UNL     1       2.914  13.201  18.149  0.00  0.00    +0.000 OA
ENDBRANCH  28  30
ENDBRANCH  21  28
ENDBRANCH   1  24
TORSDOF 5
ENDMDL
MODEL 6
REMARK VINA RESULT:      -8.7      2.103      2.708
REMARK  Name = 
REMARK  9 active torsions:
REMARK  status: ('A' for Active; 'I' for Inactive)
REMARK    1  A    between atoms: C_1  and  N_2
REMARK    2  A    between atoms: N_2  and  C_3
REMARK    3  A    between atoms: C_5  and  N_6
REMARK    4  A    between atoms: N_6  and  S_7
REMARK    5  A    between atoms: S_7  and  C_8
REMARK    6  A    between atoms: C_13  and  N_14
REMARK    7  A    between atoms: N_14  and  C_15
REMARK    8  A    between atoms: C_24  and  C_25
REMARK    9  A    between atoms: C_26  and  C_27
REMARK                            x       y       z     vdW  Elec       q    Type
REMARK                         _______ _______ _______ _____ _____    ______ ____
ROOT
ATOM      1  N   UNL     1       2.976   6.723  20.245  0.00  0.00    +0.000 N 
ATOM      2  H   UNL     1       3.339   6.977  21.159  0.00  0.00    +0.000 HD
ENDROOT
BRANCH   1   3
ATOM      3  C   UNL     1       3.758   5.595  19.762  0.00  0.00    +0.000 A 
ATOM      4  C   UNL     1       4.654   5.748  18.561  0.00  0.00    +0.000 A 
ATOM      5  C   UNL     1       4.580   6.608  17.399  0.00  0.00    +0.000 A 
ATOM      6  C   UNL     1       5.369   6.382  16.231  0.00  0.00    +0.000 A 
ATOM      7  C   UNL     1       6.378   5.425  16.239  0.00  0.00    +0.000 A 
ATOM      8  C   UNL     1       6.483   4.599  17.339  0.00  0.00    +0.000 A 
ATOM      9  C   UNL     1       5.536   4.669  18.341  0.00  0.00    +0.000 A 
ATOM     10  N   UNL     1       5.233   3.499  18.887  0.00  0.00    +0.000 NA
ATOM     11  C   UNL     1       3.953   3.420  19.181  0.00  0.00    +0.000 A 
ATOM     12  C   UNL     1       2.957   3.226  18.176  0.00  0.00    +0.000 A 
ATOM     13  C   UNL     1       3.344   2.945  16.740  0.00  0.00    +0.000 C 
ATOM     14  C   UNL     1       1.651   3.685  18.453  0.00  0.00    +0.000 A 
ATOM     15  C   UNL     1       1.050   4.795  17.596  0.00  0.00    +0.000 C 
ATOM     16  C   UNL     1       1.276   3.685  19.784  0.00  0.00    +0.000 A 
ATOM     17  C   UNL     1       2.296   3.850  20.709  0.00  0.00    +0.000 A 
ATOM     18  C   UNL     1       3.507   4.249  20.171  0.00  0.00    +0.000 A 
ENDBRANCH   1   3
BRANCH   1  24
ATOM     19  C   UNL     1       1.150   8.590  20.573  0.00  0.00    +0.000 A 
ATOM     20  C   UNL     1       0.390   9.602  19.873  0.00  0.00    +0.000 A 
ATOM     21  C   UNL     1       0.473   9.815  18.492  0.00  0.00    +0.000 A 
ATOM     22  C   UNL     1       1.232   8.933  17.758  0.00  0.00    +0.000 A 
ATOM     23  C   UNL     1       1.977   7.921  18.402  0.00  0.00    +0.000 A 
ATOM     24  C   UNL     1       2.021   7.737  19.819  0.00  0.00    +0.000 A 
BRANCH  19  26
ATOM     25  C   UNL     1      -0.009   9.337  22.666  0.00  0.00    +0.000 C 
ATOM     26  N   UNL     1       0.944   8.476  21.959  0.00  0.00    +0.000 N 
ATOM     27  H   UNL     1       1.776   8.197  22.464  0.00  0.00    +0.000 HD
ENDBRANCH  19  26
BRANCH  21  28
ATOM     28  N   UNL     1      -0.154  10.945  17.885  0.00  0.00    +0.000 N 
ATOM     29  H   UNL     1       0.173  11.849  18.231  0.00  0.00    +0.000 HD
BRANCH  28  30
ATOM     30  S   UNL     1      -1.833  11.005  17.773  0.00  0.00    +0.000 S 
ATOM     31  C   UNL     1      -2.246  12.050  19.157  0.00  0.00    +0.000 C 
ATOM     32  O   UNL     1      -2.237  11.648  16.545  0.00  0.00    +0.000 OA
ATOM     33  O   UNL     1      -2.290   9.667  18.096  0.00  0.00    +0.000 OA
ENDBRANCH  28  30
ENDBRANCH  21  28
ENDBRANCH   1  24
TORSDOF 5
ENDMDL
MODEL 7
REMARK VINA RESULT:      -8.7      1.503      2.225
REMARK  Name = 
REMARK  9 active torsions:
REMARK  status: ('A' for Active; 'I' for Inactive)
REMARK    1  A    between atoms: C_1  and  N_2
REMARK    2  A    between atoms: N_2  and  C_3
REMARK    3  A    between atoms: C_5  and  N_6
REMARK    4  A    between atoms: N_6  and  S_7
REMARK    5  A    between atoms: S_7  and  C_8
REMARK    6  A    between atoms: C_13  and  N_14
REMARK    7  A    between atoms: N_14  and  C_15
REMARK    8  A    between atoms: C_24  and  C_25
REMARK    9  A    between atoms: C_26  and  C_27
REMARK                            x       y       z     vdW  Elec       q    Type
REMARK                         _______ _______ _______ _____ _____    ______ ____
ROOT
ATOM      1  N   UNL     1       1.896   6.918  19.823  0.00  0.00    +0.000 N 
ATOM      2  H   UNL     1       1.105   6.371  20.150  0.00  0.00    +0.000 HD
ENDROOT
BRANCH   1   3
ATOM      3  C   UNL     1       3.037   6.020  19.722  0.00  0.00    +0.000 A 
ATOM      4  C   UNL     1       4.079   6.229  18.655  0.00  0.00    +0.000 A 
ATOM      5  C   UNL     1       4.007   6.807  17.331  0.00  0.00    +0.000 A 
ATOM      6  C   UNL     1       5.046   6.635  16.366  0.00  0.00    +0.000 A 
ATOM      7  C   UNL     1       6.255   6.053  16.732  0.00  0.00    +0.000 A 
ATOM      8  C   UNL     1       6.358   5.506  17.994  0.00  0.00    +0.000 A 
ATOM      9  C   UNL     1       5.248   5.455  18.812  0.00  0.00    +0.000 A 
ATOM     10  N   UNL     1       5.173   4.363  19.560  0.00  0.00    +0.000 NA
ATOM     11  C   UNL     1       3.931   3.945  19.683  0.00  0.00    +0.000 A 
ATOM     12  C   UNL     1       3.249   3.280  18.619  0.00  0.00    +0.000 A 
ATOM     13  C   UNL     1       3.978   2.886  17.352  0.00  0.00    +0.000 C 
ATOM     14  C   UNL     1       1.839   3.355  18.599  0.00  0.00    +0.000 A 
ATOM     15  C   UNL     1       1.142   4.057  17.438  0.00  0.00    +0.000 C 
ATOM     16  C   UNL     1       1.219   3.471  19.830  0.00  0.00    +0.000 A 
ATOM     17  C   UNL     1       1.948   4.102  20.826  0.00  0.00    +0.000 A 
ATOM     18  C   UNL     1       3.086   4.756  20.387  0.00  0.00    +0.000 A 
ENDBRANCH   1   3
BRANCH   1  24
ATOM     19  C   UNL     1       1.139   9.197  20.900  0.00  0.00    +0.000 A 
ATOM     20  C   UNL     1       0.949  10.603  20.620  0.00  0.00    +0.000 A 
ATOM     21  C   UNL     1       1.149  11.174  19.359  0.00  0.00    +0.000 A 
ATOM     22  C   UNL     1       1.427  10.324  18.313  0.00  0.00    +0.000 A 
ATOM     23  C   UNL     1       1.604   8.942  18.542  0.00  0.00    +0.000 A 
ATOM     24  C   UNL     1       1.529   8.327  19.830  0.00  0.00    +0.000 A 
BRANCH  19  26
ATOM     25  C   UNL     1       0.005   9.522  23.112  0.00  0.00    +0.000 C 
ATOM     26  N   UNL     1       0.876   8.761  22.211  0.00  0.00    +0.000 N 
ATOM     27  H   UNL     1       1.653   8.266  22.630  0.00  0.00    +0.000 HD
ENDBRANCH  19  26
BRANCH  21  28
ATOM     28  N   UNL     1       1.130  12.592  19.184  0.00  0.00    +0.000 N 
ATOM     29  H   UNL     1       1.656  13.113  19.887  0.00  0.00    +0.000 HD
BRANCH  28  30
ATOM     30  S   UNL     1      -0.337  13.381  18.938  0.00  0.00    +0.000 S 
ATOM     31  C   UNL     1      -0.994  13.439  20.593  0.00  0.00    +0.000 C 
ATOM     32  O   UNL     1      -0.116  14.724  18.459  0.00  0.00    +0.000 OA
ATOM     33  O   UNL     1      -1.155  12.449  18.185  0.00  0.00    +0.000 OA
ENDBRANCH  28  30
ENDBRANCH  21  28
ENDBRANCH   1  24
TORSDOF 5
ENDMDL
MODEL 8
REMARK VINA RESULT:      -8.6      1.011      1.062
REMARK  Name = 
REMARK  9 active torsions:
REMARK  status: ('A' for Active; 'I' for Inactive)
REMARK    1  A    between atoms: C_1  and  N_2
REMARK    2  A    between atoms: N_2  and  C_3
REMARK    3  A    between atoms: C_5  and  N_6
REMARK    4  A    between atoms: N_6  and  S_7
REMARK    5  A    between atoms: S_7  and  C_8
REMARK    6  A    between atoms: C_13  and  N_14
REMARK    7  A    between atoms: N_14  and  C_15
REMARK    8  A    between atoms: C_24  and  C_25
REMARK    9  A    between atoms: C_26  and  C_27
REMARK                            x       y       z     vdW  Elec       q    Type
REMARK                         _______ _______ _______ _____ _____    ______ ____
ROOT
ATOM      1  N   UNL     1       2.356   7.517  18.629  0.00  0.00    +0.000 N 
ATOM      2  H   UNL     1       1.865   7.221  17.790  0.00  0.00    +0.000 HD
ENDROOT
BRANCH   1   3
ATOM      3  C   UNL     1       3.407   6.545  18.887  0.00  0.00    +0.000 A 
ATOM      4  C   UNL     1       4.482   6.294  17.862  0.00  0.00    +0.000 A 
ATOM      5  C   UNL     1       4.487   6.396  16.419  0.00  0.00    +0.000 A 
ATOM      6  C   UNL     1       5.520   5.823  15.618  0.00  0.00    +0.000 A 
ATOM      7  C   UNL     1       6.662   5.298  16.213  0.00  0.00    +0.000 A 
ATOM      8  C   UNL     1       6.692   5.201  17.589  0.00  0.00    +0.000 A 
ATOM      9  C   UNL     1       5.568   5.522  18.323  0.00  0.00    +0.000 A 
ATOM     10  N   UNL     1       5.378   4.756  19.388  0.00  0.00    +0.000 NA
ATOM     11  C   UNL     1       4.100   4.510  19.585  0.00  0.00    +0.000 A 
ATOM     12  C   UNL     1       3.375   3.586  18.772  0.00  0.00    +0.000 A 
ATOM     13  C   UNL     1       4.084   2.728  17.746  0.00  0.00    +0.000 C 
ATOM     14  C   UNL     1       1.979   3.768  18.663  0.00  0.00    +0.000 A 
ATOM     15  C   UNL     1       1.371   4.094  17.302  0.00  0.00    +0.000 C 
ATOM     16  C   UNL     1       1.354   4.344  19.753  0.00  0.00    +0.000 A 
ATOM     17  C   UNL     1       2.123   5.210  20.515  0.00  0.00    +0.000 A 
ATOM     18  C   UNL     1       3.325   5.579  19.937  0.00  0.00    +0.000 A 
ENDBRANCH   1   3
BRANCH   1  24
ATOM     19  C   UNL     1       1.474   9.989  18.828  0.00  0.00    +0.000 A 
ATOM     20  C   UNL     1       0.575  10.841  19.575  0.00  0.00    +0.000 A 
ATOM     21  C   UNL     1      -0.179  10.400  20.669  0.00  0.00    +0.000 A 
ATOM     22  C   UNL     1       0.043   9.118  21.118  0.00  0.00    +0.000 A 
ATOM     23  C   UNL     1       0.925   8.259  20.425  0.00  0.00    +0.000 A 
ATOM     24  C   UNL     1       1.627   8.623  19.235  0.00  0.00    +0.000 A 
BRANCH  19  26
ATOM     25  C   UNL     1       2.589  11.986  17.805  0.00  0.00    +0.000 C 
ATOM     26  N   UNL     1       2.185  10.578  17.768  0.00  0.00    +0.000 N 
ATOM     27  H   UNL     1       1.947  10.190  16.864  0.00  0.00    +0.000 HD
ENDBRANCH  19  26
BRANCH  21  28
ATOM     28  N   UNL     1      -1.186  11.230  21.248  0.00  0.00    +0.000 N 
ATOM     29  H   UNL     1      -1.424  12.056  20.697  0.00  0.00    +0.000 HD
BRANCH  28  30
ATOM     30  S   UNL     1      -1.052  11.699  22.860  0.00  0.00    +0.000 S 
ATOM     31  C   UNL     1      -2.753  12.034  23.276  0.00  0.00    +0.000 C 
ATOM     32  O   UNL     1      -0.564  10.608  23.667  0.00  0.00    +0.000 OA
ATOM     33  O   UNL     1      -0.359  12.973  22.835  0.00  0.00    +0.000 OA
ENDBRANCH  28  30
ENDBRANCH  21  28
ENDBRANCH   1  24
TORSDOF 5
ENDMDL
MODEL 9
REMARK VINA RESULT:      -8.5      1.333      3.288
REMARK  Name = 
REMARK  9 active torsions:
REMARK  status: ('A' for Active; 'I' for Inactive)
REMARK    1  A    between atoms: C_1  and  N_2
REMARK    2  A    between atoms: N_2  and  C_3
REMARK    3  A    between atoms: C_5  and  N_6
REMARK    4  A    between atoms: N_6  and  S_7
REMARK    5  A    between atoms: S_7  and  C_8
REMARK    6  A    between atoms: C_13  and  N_14
REMARK    7  A    between atoms: N_14  and  C_15
REMARK    8  A    between atoms: C_24  and  C_25
REMARK    9  A    between atoms: C_26  and  C_27
REMARK                            x       y       z     vdW  Elec       q    Type
REMARK                         _______ _______ _______ _____ _____    ______ ____
ROOT
ATOM      1  N   UNL     1       2.204   7.443  20.073  0.00  0.00    +0.000 N 
ATOM      2  H   UNL     1       3.207   7.553  20.193  0.00  0.00    +0.000 HD
ENDROOT
BRANCH   1   3
ATOM      3  C   UNL     1       1.986   6.230  19.301  0.00  0.00    +0.000 A 
ATOM      4  C   UNL     1       1.769   4.912  19.998  0.00  0.00    +0.000 A 
ATOM      5  C   UNL     1       2.227   4.403  21.272  0.00  0.00    +0.000 A 
ATOM      6  C   UNL     1       2.159   3.017  21.609  0.00  0.00    +0.000 A 
ATOM      7  C   UNL     1       1.477   2.127  20.788  0.00  0.00    +0.000 A 
ATOM      8  C   UNL     1       1.016   2.587  19.572  0.00  0.00    +0.000 A 
ATOM      9  C   UNL     1       1.328   3.866  19.160  0.00  0.00    +0.000 A 
ATOM     10  N   UNL     1       1.549   3.980  17.857  0.00  0.00    +0.000 NA
ATOM     11  C   UNL     1       2.516   4.836  17.604  0.00  0.00    +0.000 A 
ATOM     12  C   UNL     1       3.889   4.510  17.823  0.00  0.00    +0.000 A 
ATOM     13  C   UNL     1       4.305   3.106  18.210  0.00  0.00    +0.000 C 
ATOM     14  C   UNL     1       4.784   5.576  18.060  0.00  0.00    +0.000 A 
ATOM     15  C   UNL     1       5.498   5.669  19.405  0.00  0.00    +0.000 C 
ATOM     16  C   UNL     1       4.463   6.782  17.467  0.00  0.00    +0.000 A 
ATOM     17  C   UNL     1       3.113   7.023  17.258  0.00  0.00    +0.000 A 
ATOM     18  C   UNL     1       2.261   6.144  17.901  0.00  0.00    +0.000 A 
ENDBRANCH   1   3
BRANCH   1  24
ATOM     19  C   UNL     1       1.125   9.834  19.860  0.00  0.00    +0.000 A 
ATOM     20  C   UNL     1       0.364  10.830  20.582  0.00  0.00    +0.000 A 
ATOM     21  C   UNL     1      -0.016  10.691  21.922  0.00  0.00    +0.000 A 
ATOM     22  C   UNL     1       0.465   9.601  22.609  0.00  0.00    +0.000 A 
ATOM     23  C   UNL     1       1.225   8.613  21.944  0.00  0.00    +0.000 A 
ATOM     24  C   UNL     1       1.539   8.648  20.550  0.00  0.00    +0.000 A 
BRANCH  19  26
ATOM     25  C   UNL     1       2.103  11.383  18.149  0.00  0.00    +0.000 C 
ATOM     26  N   UNL     1       1.456  10.122  18.524  0.00  0.00    +0.000 N 
ATOM     27  H   UNL     1       0.809   9.720  17.857  0.00  0.00    +0.000 HD
ENDBRANCH  19  26
BRANCH  21  28
ATOM     28  N   UNL     1      -0.923  11.615  22.526  0.00  0.00    +0.000 N 
ATOM     29  H   UNL     1      -1.909  11.378  22.410  0.00  0.00    +0.000 HD
BRANCH  28  30
ATOM     30  S   UNL     1      -0.743  13.264  22.243  0.00  0.00    +0.000 S 
ATOM     31  C   UNL     1      -1.567  13.962  23.661  0.00  0.00    +0.000 C 
ATOM     32  O   UNL     1       0.651  13.635  22.264  0.00  0.00    +0.000 OA
ATOM     33  O   UNL     1      -1.570  13.550  21.085  0.00  0.00    +0.000 OA
ENDBRANCH  28  30
ENDBRANCH  21  28
ENDBRANCH   1  24
TORSDOF 5
ENDMDL
