MODEL 1
REMARK VINA RESULT:      -7.4      0.000      0.000
REMARK  Name = 
REMARK  11 active torsions:
REMARK  status: ('A' for Active; 'I' for Inactive)
REMARK    1  A    between atoms: C_1  and  N_2
REMARK    2  A    between atoms: N_2  and  C_3
REMARK    3  A    between atoms: N_2  and  C_4
REMARK    4  A    between atoms: C_4  and  C_5
REMARK    5  A    between atoms: C_7  and  O_8
REMARK    6  A    between atoms: O_8  and  C_9
REMARK    7  A    between atoms: C_9  and  C_10
REMARK    8  A    between atoms: C_10  and  C_11
REMARK    9  A    between atoms: C_15  and  S_16
REMARK   10  A    between atoms: S_16  and  C_17
REMARK   11  A    between atoms: C_23  and  N_24
REMARK                            x       y       z     vdW  Elec       q    Type
REMARK                         _______ _______ _______ _____ _____    ______ ____
ROOT
ATOM      1  C   UNL     1       5.102   5.301  18.168  0.00  0.00    +0.000 A 
ATOM      2  C   UNL     1       6.242   6.135  18.026  0.00  0.00    +0.000 A 
ATOM      3  C   UNL     1       6.802   6.363  16.789  0.00  0.00    +0.000 A 
ATOM      4  C   UNL     1       6.336   5.630  15.710  0.00  0.00    +0.000 A 
ATOM      5  C   UNL     1       5.395   4.586  15.910  0.00  0.00    +0.000 A 
ATOM      6  C   UNL     1       4.799   4.345  17.162  0.00  0.00    +0.000 A 
ENDROOT
BRANCH   1   7
ATOM      7  C   UNL     1       4.233   5.872  19.288  0.00  0.00    +0.000 C 
BRANCH   7   9
ATOM      8  C   UNL     1       2.802   7.425  18.064  0.00  0.00    +0.000 C 
ATOM      9  N   UNL     1       2.914   6.435  19.103  0.00  0.00    +0.000 NA
ATOM     10  C   UNL     1       2.075   6.570  20.282  0.00  0.00    +0.000 C 
ENDBRANCH   7   9
ENDBRANCH   1   7
BRANCH   3  11
ATOM     11  O   UNL     1       7.790   7.301  16.752  0.00  0.00    +0.000 OA
BRANCH  11  12
ATOM     12  C   UNL     1       8.150   7.869  18.021  0.00  0.00    +0.000 C 
BRANCH  12  13
ATOM     13  C   UNL     1       8.185   9.394  17.842  0.00  0.00    +0.000 C 
BRANCH  13  14
ATOM     14  C   UNL     1       9.128  10.084  18.808  0.00  0.00    +0.000 C 
ATOM     15  F   UNL     1       9.826  11.041  18.140  0.00  0.00    +0.000 F 
ENDBRANCH  13  14
ENDBRANCH  12  13
ENDBRANCH  11  12
ENDBRANCH   3  11
BRANCH   6  16
ATOM     16  S   UNL     1       3.510   3.130  17.347  0.00  0.00    +0.000 S 
BRANCH  16  17
ATOM     17  C   UNL     1       2.809   2.692  18.933  0.00  0.00    +0.000 A 
ATOM     18  C   UNL     1       1.443   3.064  19.053  0.00  0.00    +0.000 A 
ATOM     19  C   UNL     1       0.748   3.012  20.269  0.00  0.00    +0.000 A 
ATOM     20  C   UNL     1       1.412   2.596  21.403  0.00  0.00    +0.000 A 
ATOM     21  F   UNL     1       0.764   2.542  22.579  0.00  0.00    +0.000 F 
ATOM     22  C   UNL     1       2.766   2.289  21.352  0.00  0.00    +0.000 A 
ATOM     23  C   UNL     1       3.482   2.353  20.130  0.00  0.00    +0.000 A 
BRANCH  23  24
ATOM     24  N   UNL     1       4.871   2.179  20.211  0.00  0.00    +0.000 N 
ATOM     25  H   UNL     1       5.406   3.012  20.432  0.00  0.00    +0.000 HD
ATOM     26  H   UNL     1       5.134   1.379  20.772  0.00  0.00    +0.000 HD
ENDBRANCH  23  24
ENDBRANCH  16  17
ENDBRANCH   6  16
TORSDOF 9
ENDMDL
MODEL 2
REMARK VINA RESULT:      -7.4      0.788      1.086
REMARK  Name = 
REMARK  11 active torsions:
REMARK  status: ('A' for Active; 'I' for Inactive)
REMARK    1  A    between atoms: C_1  and  N_2
REMARK    2  A    between atoms: N_2  and  C_3
REMARK    3  A    between atoms: N_2  and  C_4
REMARK    4  A    between atoms: C_4  and  C_5
REMARK    5  A    between atoms: C_7  and  O_8
REMARK    6  A    between atoms: O_8  and  C_9
REMARK    7  A    between atoms: C_9  and  C_10
REMARK    8  A    between atoms: C_10  and  C_11
REMARK    9  A    between atoms: C_15  and  S_16
REMARK   10  A    between atoms: S_16  and  C_17
REMARK   11  A    between atoms: C_23  and  N_24
REMARK                            x       y       z     vdW  Elec       q    Type
REMARK                         _______ _______ _______ _____ _____    ______ ____
ROOT
ATOM      1  C   UNL     1       4.642   5.948  17.524  0.00  0.00    +0.000 A 
ATOM      2  C   UNL     1       5.647   6.950  17.570  0.00  0.00    +0.000 A 
ATOM      3  C   UNL     1       6.861   6.764  16.948  0.00  0.00    +0.000 A 
ATOM      4  C   UNL     1       7.147   5.515  16.422  0.00  0.00    +0.000 A 
ATOM      5  C   UNL     1       6.256   4.431  16.635  0.00  0.00    +0.000 A 
ATOM      6  C   UNL     1       5.003   4.601  17.254  0.00  0.00    +0.000 A 
ENDROOT
BRANCH   1   7
ATOM      7  C   UNL     1       3.283   6.642  17.461  0.00  0.00    +0.000 C 
BRANCH   7   9
ATOM      8  C   UNL     1       2.306   7.081  19.655  0.00  0.00    +0.000 C 
ATOM      9  N   UNL     1       2.810   7.618  18.418  0.00  0.00    +0.000 NA
ATOM     10  C   UNL     1       2.204   8.830  17.892  0.00  0.00    +0.000 C 
ENDBRANCH   7   9
ENDBRANCH   1   7
BRANCH   3  11
ATOM     11  O   UNL     1       7.684   7.850  16.923  0.00  0.00    +0.000 OA
BRANCH  11  12
ATOM     12  C   UNL     1       8.255   8.222  18.187  0.00  0.00    +0.000 C 
BRANCH  12  13
ATOM     13  C   UNL     1       8.534   9.731  18.134  0.00  0.00    +0.000 C 
BRANCH  13  14
ATOM     14  C   UNL     1       9.266  10.243  19.358  0.00  0.00    +0.000 C 
ATOM     15  F   UNL     1      10.439  10.811  18.969  0.00  0.00    +0.000 F 
ENDBRANCH  13  14
ENDBRANCH  12  13
ENDBRANCH  11  12
ENDBRANCH   3  11
BRANCH   6  16
ATOM     16  S   UNL     1       3.844   3.253  17.370  0.00  0.00    +0.000 S 
BRANCH  16  17
ATOM     17  C   UNL     1       3.032   2.799  18.897  0.00  0.00    +0.000 A 
ATOM     18  C   UNL     1       1.692   3.264  18.967  0.00  0.00    +0.000 A 
ATOM     19  C   UNL     1       0.931   3.210  20.144  0.00  0.00    +0.000 A 
ATOM     20  C   UNL     1       1.504   2.699  21.288  0.00  0.00    +0.000 A 
ATOM     21  F   UNL     1       0.794   2.641  22.427  0.00  0.00    +0.000 F 
ATOM     22  C   UNL     1       2.834   2.296  21.289  0.00  0.00    +0.000 A 
ATOM     23  C   UNL     1       3.616   2.361  20.108  0.00  0.00    +0.000 A 
BRANCH  23  24
ATOM     24  N   UNL     1       4.984   2.083  20.249  0.00  0.00    +0.000 N 
ATOM     25  H   UNL     1       5.611   2.856  20.054  0.00  0.00    +0.000 HD
ATOM     26  H   UNL     1       5.199   1.607  21.116  0.00  0.00    +0.000 HD
ENDBRANCH  23  24
ENDBRANCH  16  17
ENDBRANCH   6  16
TORSDOF 9
ENDMDL
MODEL 3
REMARK VINA RESULT:      -7.0      3.795      5.960
REMARK  Name = 
REMARK  11 active torsions:
REMARK  status: ('A' for Active; 'I' for Inactive)
REMARK    1  A    between atoms: C_1  and  N_2
REMARK    2  A    between atoms: N_2  and  C_3
REMARK    3  A    between atoms: N_2  and  C_4
REMARK    4  A    between atoms: C_4  and  C_5
REMARK    5  A    between atoms: C_7  and  O_8
REMARK    6  A    between atoms: O_8  and  C_9
REMARK    7  A    between atoms: C_9  and  C_10
REMARK    8  A    between atoms: C_10  and  C_11
REMARK    9  A    between atoms: C_15  and  S_16
REMARK   10  A    between atoms: S_16  and  C_17
REMARK   11  A    between atoms: C_23  and  N_24
REMARK                            x       y       z     vdW  Elec       q    Type
REMARK                         _______ _______ _______ _____ _____    ______ ____
ROOT
ATOM      1  C   UNL     1       3.901   4.478  17.175  0.00  0.00    +0.000 A 
ATOM      2  C   UNL     1       4.726   4.173  16.061  0.00  0.00    +0.000 A 
ATOM      3  C   UNL     1       6.086   4.385  16.109  0.00  0.00    +0.000 A 
ATOM      4  C   UNL     1       6.609   5.058  17.201  0.00  0.00    +0.000 A 
ATOM      5  C   UNL     1       5.742   5.620  18.174  0.00  0.00    +0.000 A 
ATOM      6  C   UNL     1       4.352   5.404  18.153  0.00  0.00    +0.000 A 
ENDROOT
BRANCH   1   7
ATOM      7  C   UNL     1       2.779   3.442  17.232  0.00  0.00    +0.000 C 
BRANCH   7   9
ATOM      8  C   UNL     1       3.472   1.479  18.506  0.00  0.00    +0.000 C 
ATOM      9  N   UNL     1       2.531   2.557  18.348  0.00  0.00    +0.000 NA
ATOM     10  C   UNL     1       1.145   2.326  18.721  0.00  0.00    +0.000 C 
ENDBRANCH   7   9
ENDBRANCH   1   7
BRANCH   3  11
ATOM     11  O   UNL     1       6.795   3.910  15.047  0.00  0.00    +0.000 OA
BRANCH  11  12
ATOM     12  C   UNL     1       6.848   4.776  13.902  0.00  0.00    +0.000 C 
BRANCH  12  13
ATOM     13  C   UNL     1       6.813   3.882  12.654  0.00  0.00    +0.000 C 
BRANCH  13  14
ATOM     14  C   UNL     1       5.428   3.350  12.343  0.00  0.00    +0.000 C 
ATOM     15  F   UNL     1       5.544   2.140  11.732  0.00  0.00    +0.000 F 
ENDBRANCH  13  14
ENDBRANCH  12  13
ENDBRANCH  11  12
ENDBRANCH   3  11
BRANCH   6  16
ATOM     16  S   UNL     1       3.310   5.992  19.473  0.00  0.00    +0.000 S 
BRANCH  16  17
ATOM     17  C   UNL     1       2.222   7.400  19.296  0.00  0.00    +0.000 A 
ATOM     18  C   UNL     1       2.263   7.968  17.994  0.00  0.00    +0.000 A 
ATOM     19  C   UNL     1       1.658   9.194  17.682  0.00  0.00    +0.000 A 
ATOM     20  C   UNL     1       1.007   9.891  18.677  0.00  0.00    +0.000 A 
ATOM     21  F   UNL     1       0.424  11.069  18.400  0.00  0.00    +0.000 F 
ATOM     22  C   UNL     1       0.999   9.413  19.981  0.00  0.00    +0.000 A 
ATOM     23  C   UNL     1       1.620   8.182  20.310  0.00  0.00    +0.000 A 
BRANCH  23  24
ATOM     24  N   UNL     1       1.696   7.865  21.674  0.00  0.00    +0.000 N 
ATOM     25  H   UNL     1       2.357   8.411  22.215  0.00  0.00    +0.000 HD
ATOM     26  H   UNL     1       0.785   7.797  22.111  0.00  0.00    +0.000 HD
ENDBRANCH  23  24
ENDBRANCH  16  17
ENDBRANCH   6  16
TORSDOF 9
ENDMDL
MODEL 4
REMARK VINA RESULT:      -6.9      3.881      6.120
REMARK  Name = 
REMARK  11 active torsions:
REMARK  status: ('A' for Active; 'I' for Inactive)
REMARK    1  A    between atoms: C_1  and  N_2
REMARK    2  A    between atoms: N_2  and  C_3
REMARK    3  A    between atoms: N_2  and  C_4
REMARK    4  A    between atoms: C_4  and  C_5
REMARK    5  A    between atoms: C_7  and  O_8
REMARK    6  A    between atoms: O_8  and  C_9
REMARK    7  A    between atoms: C_9  and  C_10
REMARK    8  A    between atoms: C_10  and  C_11
REMARK    9  A    between atoms: C_15  and  S_16
REMARK   10  A    between atoms: S_16  and  C_17
REMARK   11  A    between atoms: C_23  and  N_24
REMARK                            x       y       z     vdW  Elec       q    Type
REMARK                         _______ _______ _______ _____ _____    ______ ____
ROOT
ATOM      1  C   UNL     1       4.131   4.139  17.851  0.00  0.00    +0.000 A 
ATOM      2  C   UNL     1       4.679   3.647  16.637  0.00  0.00    +0.000 A 
ATOM      3  C   UNL     1       5.504   4.431  15.863  0.00  0.00    +0.000 A 
ATOM      4  C   UNL     1       5.653   5.766  16.204  0.00  0.00    +0.000 A 
ATOM      5  C   UNL     1       4.873   6.326  17.250  0.00  0.00    +0.000 A 
ATOM      6  C   UNL     1       4.035   5.540  18.063  0.00  0.00    +0.000 A 
ENDROOT
BRANCH   1   7
ATOM      7  C   UNL     1       4.053   2.978  18.841  0.00  0.00    +0.000 C 
BRANCH   7   9
ATOM      8  C   UNL     1       1.661   2.533  18.642  0.00  0.00    +0.000 C 
ATOM      9  N   UNL     1       2.838   2.512  19.471  0.00  0.00    +0.000 NA
ATOM     10  C   UNL     1       2.685   2.762  20.895  0.00  0.00    +0.000 C 
ENDBRANCH   7   9
ENDBRANCH   1   7
BRANCH   3  11
ATOM     11  O   UNL     1       6.095   3.805  14.808  0.00  0.00    +0.000 OA
BRANCH  11  12
ATOM     12  C   UNL     1       5.654   4.232  13.510  0.00  0.00    +0.000 C 
BRANCH  12  13
ATOM     13  C   UNL     1       6.316   3.307  12.478  0.00  0.00    +0.000 C 
BRANCH  13  14
ATOM     14  C   UNL     1       5.315   2.610  11.577  0.00  0.00    +0.000 C 
ATOM     15  F   UNL     1       4.141   3.296  11.604  0.00  0.00    +0.000 F 
ENDBRANCH  13  14
ENDBRANCH  12  13
ENDBRANCH  11  12
ENDBRANCH   3  11
BRANCH   6  16
ATOM     16  S   UNL     1       3.188   6.246  19.462  0.00  0.00    +0.000 S 
BRANCH  16  17
ATOM     17  C   UNL     1       2.073   7.637  19.322  0.00  0.00    +0.000 A 
ATOM     18  C   UNL     1       2.038   8.185  18.011  0.00  0.00    +0.000 A 
ATOM     19  C   UNL     1       1.402   9.398  17.713  0.00  0.00    +0.000 A 
ATOM     20  C   UNL     1       0.795  10.102  18.730  0.00  0.00    +0.000 A 
ATOM     21  F   UNL     1       0.183  11.269  18.467  0.00  0.00    +0.000 F 
ATOM     22  C   UNL     1       0.863   9.645  20.040  0.00  0.00    +0.000 A 
ATOM     23  C   UNL     1       1.516   8.427  20.354  0.00  0.00    +0.000 A 
BRANCH  23  24
ATOM     24  N   UNL     1       1.668   8.133  21.717  0.00  0.00    +0.000 N 
ATOM     25  H   UNL     1       1.092   7.376  22.069  0.00  0.00    +0.000 HD
ATOM     26  H   UNL     1       2.638   8.055  21.995  0.00  0.00    +0.000 HD
ENDBRANCH  23  24
ENDBRANCH  16  17
ENDBRANCH   6  16
TORSDOF 9
ENDMDL
MODEL 5
REMARK VINA RESULT:      -6.8      3.451      4.997
REMARK  Name = 
REMARK  11 active torsions:
REMARK  status: ('A' for Active; 'I' for Inactive)
REMARK    1  A    between atoms: C_1  and  N_2
REMARK    2  A    between atoms: N_2  and  C_3
REMARK    3  A    between atoms: N_2  and  C_4
REMARK    4  A    between atoms: C_4  and  C_5
REMARK    5  A    between atoms: C_7  and  O_8
REMARK    6  A    between atoms: O_8  and  C_9
REMARK    7  A    between atoms: C_9  and  C_10
REMARK    8  A    between atoms: C_10  and  C_11
REMARK    9  A    between atoms: C_15  and  S_16
REMARK   10  A    between atoms: S_16  and  C_17
REMARK   11  A    between atoms: C_23  and  N_24
REMARK                            x       y       z     vdW  Elec       q    Type
REMARK                         _______ _______ _______ _____ _____    ______ ____
ROOT
ATOM      1  C   UNL     1       6.351   5.716  16.536  0.00  0.00    +0.000 A 
ATOM      2  C   UNL     1       7.125   5.184  15.471  0.00  0.00    +0.000 A 
ATOM      3  C   UNL     1       6.541   4.423  14.483  0.00  0.00    +0.000 A 
ATOM      4  C   UNL     1       5.217   4.047  14.638  0.00  0.00    +0.000 A 
ATOM      5  C   UNL     1       4.530   4.336  15.846  0.00  0.00    +0.000 A 
ATOM      6  C   UNL     1       5.101   5.124  16.863  0.00  0.00    +0.000 A 
ENDROOT
BRANCH   1   7
ATOM      7  C   UNL     1       6.929   7.081  16.906  0.00  0.00    +0.000 C 
BRANCH   7   9
ATOM      8  C   UNL     1       7.946   6.337  18.996  0.00  0.00    +0.000 C 
ATOM      9  N   UNL     1       7.925   7.304  17.930  0.00  0.00    +0.000 NA
ATOM     10  C   UNL     1       8.268   8.682  18.239  0.00  0.00    +0.000 C 
ENDBRANCH   7   9
ENDBRANCH   1   7
BRANCH   3  11
ATOM     11  O   UNL     1       7.347   4.100  13.433  0.00  0.00    +0.000 OA
BRANCH  11  12
ATOM     12  C   UNL     1       6.710   4.086  12.147  0.00  0.00    +0.000 C 
BRANCH  12  13
ATOM     13  C   UNL     1       6.929   2.691  11.545  0.00  0.00    +0.000 C 
BRANCH  13  14
ATOM     14  C   UNL     1       5.658   1.867  11.476  0.00  0.00    +0.000 C 
ATOM     15  F   UNL     1       4.589   2.706  11.421  0.00  0.00    +0.000 F 
ENDBRANCH  13  14
ENDBRANCH  12  13
ENDBRANCH  11  12
ENDBRANCH   3  11
BRANCH   6  16
ATOM     16  S   UNL     1       4.159   5.598  18.297  0.00  0.00    +0.000 S 
BRANCH  16  17
ATOM     17  C   UNL     1       3.252   4.423  19.295  0.00  0.00    +0.000 A 
ATOM     18  C   UNL     1       2.047   4.961  19.821  0.00  0.00    +0.000 A 
ATOM     19  C   UNL     1       1.283   4.301  20.793  0.00  0.00    +0.000 A 
ATOM     20  C   UNL     1       1.717   3.085  21.274  0.00  0.00    +0.000 A 
ATOM     21  F   UNL     1       1.001   2.437  22.208  0.00  0.00    +0.000 F 
ATOM     22  C   UNL     1       2.925   2.549  20.844  0.00  0.00    +0.000 A 
ATOM     23  C   UNL     1       3.713   3.217  19.872  0.00  0.00    +0.000 A 
BRANCH  23  24
ATOM     24  N   UNL     1       4.983   2.678  19.621  0.00  0.00    +0.000 N 
ATOM     25  H   UNL     1       5.554   2.501  20.441  0.00  0.00    +0.000 HD
ATOM     26  H   UNL     1       4.958   1.896  18.979  0.00  0.00    +0.000 HD
ENDBRANCH  23  24
ENDBRANCH  16  17
ENDBRANCH   6  16
TORSDOF 9
ENDMDL
MODEL 6
REMARK VINA RESULT:      -6.8      1.727      3.028
REMARK  Name = 
REMARK  11 active torsions:
REMARK  status: ('A' for Active; 'I' for Inactive)
REMARK    1  A    between atoms: C_1  and  N_2
REMARK    2  A    between atoms: N_2  and  C_3
REMARK    3  A    between atoms: N_2  and  C_4
REMARK    4  A    between atoms: C_4  and  C_5
REMARK    5  A    between atoms: C_7  and  O_8
REMARK    6  A    between atoms: O_8  and  C_9
REMARK    7  A    between atoms: C_9  and  C_10
REMARK    8  A    between atoms: C_10  and  C_11
REMARK    9  A    between atoms: C_15  and  S_16
REMARK   10  A    between atoms: S_16  and  C_17
REMARK   11  A    between atoms: C_23  and  N_24
REMARK                            x       y       z     vdW  Elec       q    Type
REMARK                         _______ _______ _______ _____ _____    ______ ____
ROOT
ATOM      1  C   UNL     1       5.553   5.598  16.200  0.00  0.00    +0.000 A 
ATOM      2  C   UNL     1       6.336   6.779  16.288  0.00  0.00    +0.000 A 
ATOM      3  C   UNL     1       7.210   6.972  17.334  0.00  0.00    +0.000 A 
ATOM      4  C   UNL     1       7.188   6.071  18.386  0.00  0.00    +0.000 A 
ATOM      5  C   UNL     1       6.200   5.053  18.431  0.00  0.00    +0.000 A 
ATOM      6  C   UNL     1       5.306   4.828  17.368  0.00  0.00    +0.000 A 
ENDROOT
BRANCH   1   7
ATOM      7  C   UNL     1       5.409   5.234  14.723  0.00  0.00    +0.000 C 
BRANCH   7   9
ATOM      8  C   UNL     1       7.601   5.084  13.660  0.00  0.00    +0.000 C 
ATOM      9  N   UNL     1       6.355   4.436  13.974  0.00  0.00    +0.000 NA
ATOM     10  C   UNL     1       5.814   3.477  13.024  0.00  0.00    +0.000 C 
ENDBRANCH   7   9
ENDBRANCH   1   7
BRANCH   3  11
ATOM     11  O   UNL     1       8.020   8.063  17.232  0.00  0.00    +0.000 OA
BRANCH  11  12
ATOM     12  C   UNL     1       8.374   8.688  18.476  0.00  0.00    +0.000 C 
BRANCH  12  13
ATOM     13  C   UNL     1       8.670  10.164  18.175  0.00  0.00    +0.000 C 
BRANCH  13  14
ATOM     14  C   UNL     1       9.856  10.703  18.950  0.00  0.00    +0.000 C 
ATOM     15  F   UNL     1      10.642  11.429  18.111  0.00  0.00    +0.000 F 
ENDBRANCH  13  14
ENDBRANCH  12  13
ENDBRANCH  11  12
ENDBRANCH   3  11
BRANCH   6  16
ATOM     16  S   UNL     1       4.181   3.448  17.389  0.00  0.00    +0.000 S 
BRANCH  16  17
ATOM     17  C   UNL     1       3.259   2.969  18.845  0.00  0.00    +0.000 A 
ATOM     18  C   UNL     1       1.969   3.562  18.900  0.00  0.00    +0.000 A 
ATOM     19  C   UNL     1       1.154   3.501  20.039  0.00  0.00    +0.000 A 
ATOM     20  C   UNL     1       1.621   2.852  21.162  0.00  0.00    +0.000 A 
ATOM     21  F   UNL     1       0.857   2.785  22.265  0.00  0.00    +0.000 F 
ATOM     22  C   UNL     1       2.903   2.318  21.183  0.00  0.00    +0.000 A 
ATOM     23  C   UNL     1       3.741   2.388  20.041  0.00  0.00    +0.000 A 
BRANCH  23  24
ATOM     24  N   UNL     1       5.067   1.963  20.212  0.00  0.00    +0.000 N 
ATOM     25  H   UNL     1       5.326   1.706  21.158  0.00  0.00    +0.000 HD
ATOM     26  H   UNL     1       5.350   1.278  19.523  0.00  0.00    +0.000 HD
ENDBRANCH  23  24
ENDBRANCH  16  17
ENDBRANCH   6  16
TORSDOF 9
ENDMDL
MODEL 7
REMARK VINA RESULT:      -6.8      1.751      3.150
REMARK  Name = 
REMARK  11 active torsions:
REMARK  status: ('A' for Active; 'I' for Inactive)
REMARK    1  A    between atoms: C_1  and  N_2
REMARK    2  A    between atoms: N_2  and  C_3
REMARK    3  A    between atoms: N_2  and  C_4
REMARK    4  A    between atoms: C_4  and  C_5
REMARK    5  A    between atoms: C_7  and  O_8
REMARK    6  A    between atoms: O_8  and  C_9
REMARK    7  A    between atoms: C_9  and  C_10
REMARK    8  A    between atoms: C_10  and  C_11
REMARK    9  A    between atoms: C_15  and  S_16
REMARK   10  A    between atoms: S_16  and  C_17
REMARK   11  A    between atoms: C_23  and  N_24
REMARK                            x       y       z     vdW  Elec       q    Type
REMARK                         _______ _______ _______ _____ _____    ______ ____
ROOT
ATOM      1  C   UNL     1       5.817   4.912  16.116  0.00  0.00    +0.000 A 
ATOM      2  C   UNL     1       6.682   6.036  16.059  0.00  0.00    +0.000 A 
ATOM      3  C   UNL     1       7.060   6.697  17.206  0.00  0.00    +0.000 A 
ATOM      4  C   UNL     1       6.447   6.348  18.399  0.00  0.00    +0.000 A 
ATOM      5  C   UNL     1       5.371   5.423  18.403  0.00  0.00    +0.000 A 
ATOM      6  C   UNL     1       4.977   4.725  17.246  0.00  0.00    +0.000 A 
ENDROOT
BRANCH   1   7
ATOM      7  C   UNL     1       6.241   3.932  15.022  0.00  0.00    +0.000 C 
BRANCH   7   9
ATOM      8  C   UNL     1       5.663   3.373  12.717  0.00  0.00    +0.000 C 
ATOM      9  N   UNL     1       6.351   4.261  13.618  0.00  0.00    +0.000 NA
ATOM     10  C   UNL     1       7.589   4.877  13.171  0.00  0.00    +0.000 C 
ENDBRANCH   7   9
ENDBRANCH   1   7
BRANCH   3  11
ATOM     11  O   UNL     1       8.013   7.657  17.048  0.00  0.00    +0.000 OA
BRANCH  11  12
ATOM     12  C   UNL     1       7.728   8.920  17.670  0.00  0.00    +0.000 C 
BRANCH  12  13
ATOM     13  C   UNL     1       8.867   9.207  18.659  0.00  0.00    +0.000 C 
BRANCH  13  14
ATOM     14  C   UNL     1       9.099  10.688  18.883  0.00  0.00    +0.000 C 
ATOM     15  F   UNL     1       9.353  11.283  17.686  0.00  0.00    +0.000 F 
ENDBRANCH  13  14
ENDBRANCH  12  13
ENDBRANCH  11  12
ENDBRANCH   3  11
BRANCH   6  16
ATOM     16  S   UNL     1       3.727   3.460  17.316  0.00  0.00    +0.000 S 
BRANCH  16  17
ATOM     17  C   UNL     1       2.956   2.940  18.845  0.00  0.00    +0.000 A 
ATOM     18  C   UNL     1       1.598   3.344  18.941  0.00  0.00    +0.000 A 
ATOM     19  C   UNL     1       0.856   3.233  20.126  0.00  0.00    +0.000 A 
ATOM     20  C   UNL     1       1.467   2.726  21.252  0.00  0.00    +0.000 A 
ATOM     21  F   UNL     1       0.775   2.615  22.399  0.00  0.00    +0.000 F 
ATOM     22  C   UNL     1       2.813   2.383  21.229  0.00  0.00    +0.000 A 
ATOM     23  C   UNL     1       3.575   2.506  20.040  0.00  0.00    +0.000 A 
BRANCH  23  24
ATOM     24  N   UNL     1       4.955   2.286  20.158  0.00  0.00    +0.000 N 
ATOM     25  H   UNL     1       5.430   2.845  20.858  0.00  0.00    +0.000 HD
ATOM     26  H   UNL     1       5.193   1.303  20.207  0.00  0.00    +0.000 HD
ENDBRANCH  23  24
ENDBRANCH  16  17
ENDBRANCH   6  16
TORSDOF 9
ENDMDL
MODEL 8
REMARK VINA RESULT:      -6.6      3.752      5.818
REMARK  Name = 
REMARK  11 active torsions:
REMARK  status: ('A' for Active; 'I' for Inactive)
REMARK    1  A    between atoms: C_1  and  N_2
REMARK    2  A    between atoms: N_2  and  C_3
REMARK    3  A    between atoms: N_2  and  C_4
REMARK    4  A    between atoms: C_4  and  C_5
REMARK    5  A    between atoms: C_7  and  O_8
REMARK    6  A    between atoms: O_8  and  C_9
REMARK    7  A    between atoms: C_9  and  C_10
REMARK    8  A    between atoms: C_10  and  C_11
REMARK    9  A    between atoms: C_15  and  S_16
REMARK   10  A    between atoms: S_16  and  C_17
REMARK   11  A    between atoms: C_23  and  N_24
REMARK                            x       y       z     vdW  Elec       q    Type
REMARK                         _______ _______ _______ _____ _____    ______ ____
ROOT
ATOM      1  C   UNL     1       3.540   4.657  17.608  0.00  0.00    +0.000 A 
ATOM      2  C   UNL     1       4.536   4.437  16.621  0.00  0.00    +0.000 A 
ATOM      3  C   UNL     1       5.873   4.561  16.924  0.00  0.00    +0.000 A 
ATOM      4  C   UNL     1       6.223   5.067  18.166  0.00  0.00    +0.000 A 
ATOM      5  C   UNL     1       5.221   5.560  19.042  0.00  0.00    +0.000 A 
ATOM      6  C   UNL     1       3.848   5.431  18.759  0.00  0.00    +0.000 A 
ENDROOT
BRANCH   1   7
ATOM      7  C   UNL     1       2.388   3.690  17.342  0.00  0.00    +0.000 C 
BRANCH   7   9
ATOM      8  C   UNL     1       0.952   2.507  18.923  0.00  0.00    +0.000 C 
ATOM      9  N   UNL     1       2.132   2.484  18.099  0.00  0.00    +0.000 NA
ATOM     10  C   UNL     1       3.285   1.730  18.562  0.00  0.00    +0.000 C 
ENDBRANCH   7   9
ENDBRANCH   1   7
BRANCH   3  11
ATOM     11  O   UNL     1       6.739   4.174  15.946  0.00  0.00    +0.000 OA
BRANCH  11  12
ATOM     12  C   UNL     1       6.132   3.651  14.755  0.00  0.00    +0.000 C 
BRANCH  12  13
ATOM     13  C   UNL     1       6.854   4.288  13.559  0.00  0.00    +0.000 C 
BRANCH  13  14
ATOM     14  C   UNL     1       6.489   3.648  12.234  0.00  0.00    +0.000 C 
ATOM     15  F   UNL     1       5.175   3.296  12.259  0.00  0.00    +0.000 F 
ENDBRANCH  13  14
ENDBRANCH  12  13
ENDBRANCH  11  12
ENDBRANCH   3  11
BRANCH   6  16
ATOM     16  S   UNL     1       2.615   5.920  19.947  0.00  0.00    +0.000 S 
BRANCH  16  17
ATOM     17  C   UNL     1       1.938   7.573  20.020  0.00  0.00    +0.000 A 
ATOM     18  C   UNL     1       1.142   7.792  21.176  0.00  0.00    +0.000 A 
ATOM     19  C   UNL     1       0.345   8.934  21.343  0.00  0.00    +0.000 A 
ATOM     20  C   UNL     1       0.315   9.881  20.343  0.00  0.00    +0.000 A 
ATOM     21  F   UNL     1      -0.445  10.981  20.482  0.00  0.00    +0.000 F 
ATOM     22  C   UNL     1       1.019   9.680  19.163  0.00  0.00    +0.000 A 
ATOM     23  C   UNL     1       1.817   8.522  18.978  0.00  0.00    +0.000 A 
BRANCH  23  24
ATOM     24  N   UNL     1       2.359   8.335  17.698  0.00  0.00    +0.000 N 
ATOM     25  H   UNL     1       3.088   7.634  17.629  0.00  0.00    +0.000 HD
ATOM     26  H   UNL     1       1.649   8.241  16.982  0.00  0.00    +0.000 HD
ENDBRANCH  23  24
ENDBRANCH  16  17
ENDBRANCH   6  16
TORSDOF 9
ENDMDL
MODEL 9
REMARK VINA RESULT:      -6.6      3.672      5.908
REMARK  Name = 
REMARK  11 active torsions:
REMARK  status: ('A' for Active; 'I' for Inactive)
REMARK    1  A    between atoms: C_1  and  N_2
REMARK    2  A    between atoms: N_2  and  C_3
REMARK    3  A    between atoms: N_2  and  C_4
REMARK    4  A    between atoms: C_4  and  C_5
REMARK    5  A    between atoms: C_7  and  O_8
REMARK    6  A    between atoms: O_8  and  C_9
REMARK    7  A    between atoms: C_9  and  C_10
REMARK    8  A    between atoms: C_10  and  C_11
REMARK    9  A    between atoms: C_15  and  S_16
REMARK   10  A    between atoms: S_16  and  C_17
REMARK   11  A    between atoms: C_23  and  N_24
REMARK                            x       y       z     vdW  Elec       q    Type
REMARK                         _______ _______ _______ _____ _____    ______ ____
ROOT
ATOM      1  C   UNL     1       3.507   4.221  18.081  0.00  0.00    +0.000 A 
ATOM      2  C   UNL     1       4.106   3.683  16.912  0.00  0.00    +0.000 A 
ATOM      3  C   UNL     1       5.143   4.335  16.285  0.00  0.00    +0.000 A 
ATOM      4  C   UNL     1       5.479   5.608  16.717  0.00  0.00    +0.000 A 
ATOM      5  C   UNL     1       4.685   6.260  17.696  0.00  0.00    +0.000 A 
ATOM      6  C   UNL     1       3.630   5.609  18.361  0.00  0.00    +0.000 A 
ENDROOT
BRANCH   1   7
ATOM      7  C   UNL     1       3.108   3.058  18.988  0.00  0.00    +0.000 C 
BRANCH   7   9
ATOM      8  C   UNL     1       1.805   2.565  20.993  0.00  0.00    +0.000 C 
ATOM      9  N   UNL     1       1.803   2.893  19.591  0.00  0.00    +0.000 NA
ATOM     10  C   UNL     1       0.745   2.350  18.755  0.00  0.00    +0.000 C 
ENDBRANCH   7   9
ENDBRANCH   1   7
BRANCH   3  11
ATOM     11  O   UNL     1       5.742   3.651  15.270  0.00  0.00    +0.000 OA
BRANCH  11  12
ATOM     12  C   UNL     1       6.482   4.453  14.337  0.00  0.00    +0.000 C 
BRANCH  12  13
ATOM     13  C   UNL     1       6.418   3.744  12.976  0.00  0.00    +0.000 C 
BRANCH  13  14
ATOM     14  C   UNL     1       7.188   4.470  11.891  0.00  0.00    +0.000 C 
ATOM     15  F   UNL     1       8.088   5.309  12.471  0.00  0.00    +0.000 F 
ENDBRANCH  13  14
ENDBRANCH  12  13
ENDBRANCH  11  12
ENDBRANCH   3  11
BRANCH   6  16
ATOM     16  S   UNL     1       2.752   6.403  19.692  0.00  0.00    +0.000 S 
BRANCH  16  17
ATOM     17  C   UNL     1       1.843   7.928  19.481  0.00  0.00    +0.000 A 
ATOM     18  C   UNL     1       1.953   8.458  18.168  0.00  0.00    +0.000 A 
ATOM     19  C   UNL     1       1.502   9.741  17.828  0.00  0.00    +0.000 A 
ATOM     20  C   UNL     1       0.940  10.534  18.805  0.00  0.00    +0.000 A 
ATOM     21  F   UNL     1       0.505  11.768  18.500  0.00  0.00    +0.000 F 
ATOM     22  C   UNL     1       0.874  10.090  20.119  0.00  0.00    +0.000 A 
ATOM     23  C   UNL     1       1.341   8.799  20.476  0.00  0.00    +0.000 A 
BRANCH  23  24
ATOM     24  N   UNL     1       1.377   8.506  21.847  0.00  0.00    +0.000 N 
ATOM     25  H   UNL     1       0.502   8.192  22.252  0.00  0.00    +0.000 HD
ATOM     26  H   UNL     1       2.164   7.922  22.102  0.00  0.00    +0.000 HD
ENDBRANCH  23  24
ENDBRANCH  16  17
ENDBRANCH   6  16
TORSDOF 9
ENDMDL
