MODEL 1
REMARK VINA RESULT:      -7.9      0.000      0.000
REMARK  Name = 
REMARK  6 active torsions:
REMARK  status: ('A' for Active; 'I' for Inactive)
REMARK    1  A    between atoms: C_1  and  O_2
REMARK    2  A    between atoms: O_2  and  C_3
REMARK    3  A    between atoms: C_8  and  C_9
REMARK    4  A    between atoms: C_10  and  C_11
REMARK    5  A    between atoms: C_14  and  C_15
REMARK    6  A    between atoms: C_21  and  C_22
REMARK                            x       y       z     vdW  Elec       q    Type
REMARK                         _______ _______ _______ _____ _____    ______ ____
ROOT
ATOM      1  C   UNL     1       1.033   8.424  20.068  0.00  0.00    +0.000 A 
ATOM      2  C   UNL     1       1.722   7.205  19.964  0.00  0.00    +0.000 A 
ATOM      3  C   UNL     1       2.606   6.944  18.898  0.00  0.00    +0.000 A 
ATOM      4  C   UNL     1       2.775   7.948  17.947  0.00  0.00    +0.000 A 
ATOM      5  C   UNL     1       2.061   9.154  17.987  0.00  0.00    +0.000 A 
ATOM      6  C   UNL     1       1.189   9.408  19.073  0.00  0.00    +0.000 A 
ATOM      7  N   UNL     1       3.744   7.509  17.074  0.00  0.00    +0.000 N 
ATOM      8  C   UNL     1       4.175   6.260  17.431  0.00  0.00    +0.000 A 
ATOM      9  N   UNL     1       5.143   5.588  16.793  0.00  0.00    +0.000 NA
ATOM     10  C   UNL     1       5.364   4.388  17.352  0.00  0.00    +0.000 A 
ATOM     11  N   UNL     1       4.726   3.835  18.399  0.00  0.00    +0.000 NA
ATOM     12  C   UNL     1       3.737   4.550  18.993  0.00  0.00    +0.000 A 
ATOM     13  C   UNL     1       3.444   5.843  18.534  0.00  0.00    +0.000 A 
ATOM     14  H   UNL     1       4.130   8.034  16.303  0.00  0.00    +0.000 HD
ENDROOT
BRANCH   6  15
ATOM     15  C   UNL     1       0.526  10.712  19.161  0.00  0.00    +0.000 A 
ATOM     16  C   UNL     1       0.906  11.956  19.759  0.00  0.00    +0.000 A 
ATOM     17  C   UNL     1       2.111  12.332  20.535  0.00  0.00    +0.000 C 
ATOM     18  N   UNL     1      -0.022  12.901  19.555  0.00  0.00    +0.000 NA
ATOM     19  O   UNL     1      -1.016  12.305  18.819  0.00  0.00    +0.000 OA
ATOM     20  C   UNL     1      -0.696  11.008  18.577  0.00  0.00    +0.000 A 
ATOM     21  C   UNL     1      -1.683  10.268  17.763  0.00  0.00    +0.000 C 
ENDBRANCH   6  15
BRANCH  12  22
ATOM     22  C   UNL     1       3.036   3.923  20.091  0.00  0.00    +0.000 A 
ATOM     23  C   UNL     1       1.697   4.044  20.552  0.00  0.00    +0.000 A 
ATOM     24  C   UNL     1       1.591   3.252  21.675  0.00  0.00    +0.000 A 
ATOM     25  O   UNL     1       2.756   2.592  21.891  0.00  0.00    +0.000 OA
ATOM     26  C   UNL     1       3.616   2.980  20.912  0.00  0.00    +0.000 A 
ENDBRANCH  12  22
BRANCH   1  28
ATOM     27  C   UNL     1       0.810   9.125  22.339  0.00  0.00    +0.000 C 
ATOM     28  O   UNL     1       0.200   8.698  21.125  0.00  0.00    +0.000 OA
ENDBRANCH   1  28
TORSDOF 3
ENDMDL
MODEL 2
REMARK VINA RESULT:      -7.6      2.209      3.565
REMARK  Name = 
REMARK  6 active torsions:
REMARK  status: ('A' for Active; 'I' for Inactive)
REMARK    1  A    between atoms: C_1  and  O_2
REMARK    2  A    between atoms: O_2  and  C_3
REMARK    3  A    between atoms: C_8  and  C_9
REMARK    4  A    between atoms: C_10  and  C_11
REMARK    5  A    between atoms: C_14  and  C_15
REMARK    6  A    between atoms: C_21  and  C_22
REMARK                            x       y       z     vdW  Elec       q    Type
REMARK                         _______ _______ _______ _____ _____    ______ ____
ROOT
ATOM      1  C   UNL     1       1.838   9.275  18.315  0.00  0.00    +0.000 A 
ATOM      2  C   UNL     1       2.588   8.095  18.190  0.00  0.00    +0.000 A 
ATOM      3  C   UNL     1       2.509   7.064  19.148  0.00  0.00    +0.000 A 
ATOM      4  C   UNL     1       1.651   7.260  20.229  0.00  0.00    +0.000 A 
ATOM      5  C   UNL     1       0.930   8.448  20.415  0.00  0.00    +0.000 A 
ATOM      6  C   UNL     1       1.008   9.467  19.436  0.00  0.00    +0.000 A 
ATOM      7  N   UNL     1       1.667   6.097  20.963  0.00  0.00    +0.000 N 
ATOM      8  C   UNL     1       2.517   5.187  20.395  0.00  0.00    +0.000 A 
ATOM      9  N   UNL     1       2.712   3.947  20.864  0.00  0.00    +0.000 NA
ATOM     10  C   UNL     1       3.597   3.269  20.116  0.00  0.00    +0.000 A 
ATOM     11  N   UNL     1       4.273   3.705  19.039  0.00  0.00    +0.000 NA
ATOM     12  C   UNL     1       4.055   4.978  18.622  0.00  0.00    +0.000 A 
ATOM     13  C   UNL     1       3.112   5.775  19.289  0.00  0.00    +0.000 A 
ATOM     14  H   UNL     1       1.106   5.903  21.780  0.00  0.00    +0.000 HD
ENDROOT
BRANCH   6  15
ATOM     15  C   UNL     1       0.173  10.663  19.588  0.00  0.00    +0.000 A 
ATOM     16  C   UNL     1       0.379  11.911  20.257  0.00  0.00    +0.000 A 
ATOM     17  C   UNL     1       1.518  12.403  21.067  0.00  0.00    +0.000 C 
ATOM     18  N   UNL     1      -0.668  12.732  20.095  0.00  0.00    +0.000 NA
ATOM     19  O   UNL     1      -1.569  12.049  19.315  0.00  0.00    +0.000 OA
ATOM     20  C   UNL     1      -1.074  10.823  19.006  0.00  0.00    +0.000 A 
ATOM     21  C   UNL     1      -1.949  10.003  18.141  0.00  0.00    +0.000 C 
ENDBRANCH   6  15
BRANCH  12  22
ATOM     22  C   UNL     1       4.819   5.442  17.486  0.00  0.00    +0.000 A 
ATOM     23  C   UNL     1       4.773   5.096  16.108  0.00  0.00    +0.000 A 
ATOM     24  C   UNL     1       5.771   5.815  15.485  0.00  0.00    +0.000 A 
ATOM     25  O   UNL     1       6.378   6.638  16.376  0.00  0.00    +0.000 OA
ATOM     26  C   UNL     1       5.778   6.429  17.578  0.00  0.00    +0.000 A 
ENDBRANCH  12  22
BRANCH   1  28
ATOM     27  C   UNL     1       2.680  11.409  17.653  0.00  0.00    +0.000 C 
ATOM     28  O   UNL     1       1.882  10.266  17.364  0.00  0.00    +0.000 OA
ENDBRANCH   1  28
TORSDOF 3
ENDMDL
MODEL 3
REMARK VINA RESULT:      -7.5      0.409      1.569
REMARK  Name = 
REMARK  6 active torsions:
REMARK  status: ('A' for Active; 'I' for Inactive)
REMARK    1  A    between atoms: C_1  and  O_2
REMARK    2  A    between atoms: O_2  and  C_3
REMARK    3  A    between atoms: C_8  and  C_9
REMARK    4  A    between atoms: C_10  and  C_11
REMARK    5  A    between atoms: C_14  and  C_15
REMARK    6  A    between atoms: C_21  and  C_22
REMARK                            x       y       z     vdW  Elec       q    Type
REMARK                         _______ _______ _______ _____ _____    ______ ____
ROOT
ATOM      1  C   UNL     1       0.908   8.468  20.037  0.00  0.00    +0.000 A 
ATOM      2  C   UNL     1       1.631   7.267  19.948  0.00  0.00    +0.000 A 
ATOM      3  C   UNL     1       2.552   7.035  18.907  0.00  0.00    +0.000 A 
ATOM      4  C   UNL     1       2.724   8.048  17.967  0.00  0.00    +0.000 A 
ATOM      5  C   UNL     1       1.979   9.236  17.991  0.00  0.00    +0.000 A 
ATOM      6  C   UNL     1       1.069   9.461  19.052  0.00  0.00    +0.000 A 
ATOM      7  N   UNL     1       3.729   7.638  17.121  0.00  0.00    +0.000 N 
ATOM      8  C   UNL     1       4.180   6.398  17.485  0.00  0.00    +0.000 A 
ATOM      9  N   UNL     1       5.183   5.755  16.873  0.00  0.00    +0.000 NA
ATOM     10  C   UNL     1       5.419   4.558  17.432  0.00  0.00    +0.000 A 
ATOM     11  N   UNL     1       4.765   3.983  18.457  0.00  0.00    +0.000 NA
ATOM     12  C   UNL     1       3.741   4.670  19.025  0.00  0.00    +0.000 A 
ATOM     13  C   UNL     1       3.428   5.957  18.563  0.00  0.00    +0.000 A 
ATOM     14  H   UNL     1       4.124   8.177  16.364  0.00  0.00    +0.000 HD
ENDROOT
BRANCH   6  15
ATOM     15  C   UNL     1       0.370  10.748  19.127  0.00  0.00    +0.000 A 
ATOM     16  C   UNL     1      -0.926  11.174  18.695  0.00  0.00    +0.000 A 
ATOM     17  C   UNL     1      -2.001  10.445  17.983  0.00  0.00    +0.000 C 
ATOM     18  N   UNL     1      -1.150  12.457  19.012  0.00  0.00    +0.000 NA
ATOM     19  O   UNL     1      -0.019  12.892  19.658  0.00  0.00    +0.000 OA
ATOM     20  C   UNL     1       0.885  11.882  19.735  0.00  0.00    +0.000 A 
ATOM     21  C   UNL     1       2.138  12.225  20.440  0.00  0.00    +0.000 C 
ENDBRANCH   6  15
BRANCH  12  22
ATOM     22  C   UNL     1       3.024   4.020  20.098  0.00  0.00    +0.000 A 
ATOM     23  C   UNL     1       1.673   4.116  20.530  0.00  0.00    +0.000 A 
ATOM     24  C   UNL     1       1.552   3.308  21.640  0.00  0.00    +0.000 A 
ATOM     25  O   UNL     1       2.721   2.662  21.875  0.00  0.00    +0.000 OA
ATOM     26  C   UNL     1       3.598   3.074  20.922  0.00  0.00    +0.000 A 
ENDBRANCH  12  22
BRANCH   1  28
ATOM     27  C   UNL     1       0.603   9.128  22.311  0.00  0.00    +0.000 C 
ATOM     28  O   UNL     1       0.038   8.715  21.071  0.00  0.00    +0.000 OA
ENDBRANCH   1  28
TORSDOF 3
ENDMDL
MODEL 4
REMARK VINA RESULT:      -7.5      2.271      3.907
REMARK  Name = 
REMARK  6 active torsions:
REMARK  status: ('A' for Active; 'I' for Inactive)
REMARK    1  A    between atoms: C_1  and  O_2
REMARK    2  A    between atoms: O_2  and  C_3
REMARK    3  A    between atoms: C_8  and  C_9
REMARK    4  A    between atoms: C_10  and  C_11
REMARK    5  A    between atoms: C_14  and  C_15
REMARK    6  A    between atoms: C_21  and  C_22
REMARK                            x       y       z     vdW  Elec       q    Type
REMARK                         _______ _______ _______ _____ _____    ______ ____
ROOT
ATOM      1  C   UNL     1       1.896   8.809  18.319  0.00  0.00    +0.000 A 
ATOM      2  C   UNL     1       2.728   7.686  18.185  0.00  0.00    +0.000 A 
ATOM      3  C   UNL     1       2.698   6.628  19.115  0.00  0.00    +0.000 A 
ATOM      4  C   UNL     1       1.803   6.736  20.178  0.00  0.00    +0.000 A 
ATOM      5  C   UNL     1       0.998   7.867  20.375  0.00  0.00    +0.000 A 
ATOM      6  C   UNL     1       1.029   8.914  19.423  0.00  0.00    +0.000 A 
ATOM      7  N   UNL     1       1.882   5.558  20.884  0.00  0.00    +0.000 N 
ATOM      8  C   UNL     1       2.806   4.724  20.316  0.00  0.00    +0.000 A 
ATOM      9  N   UNL     1       3.075   3.488  20.759  0.00  0.00    +0.000 NA
ATOM     10  C   UNL     1       4.022   2.892  20.018  0.00  0.00    +0.000 A 
ATOM     11  N   UNL     1       4.692   3.401  18.970  0.00  0.00    +0.000 NA
ATOM     12  C   UNL     1       4.396   4.667  18.578  0.00  0.00    +0.000 A 
ATOM     13  C   UNL     1       3.385   5.379  19.240  0.00  0.00    +0.000 A 
ATOM     14  H   UNL     1       1.316   5.305  21.681  0.00  0.00    +0.000 HD
ENDROOT
BRANCH   6  15
ATOM     15  C   UNL     1       0.110  10.046  19.582  0.00  0.00    +0.000 A 
ATOM     16  C   UNL     1      -1.006  10.505  18.813  0.00  0.00    +0.000 A 
ATOM     17  C   UNL     1      -1.592   9.994  17.552  0.00  0.00    +0.000 C 
ATOM     18  N   UNL     1      -1.576  11.582  19.371  0.00  0.00    +0.000 NA
ATOM     19  O   UNL     1      -0.857  11.843  20.512  0.00  0.00    +0.000 OA
ATOM     20  C   UNL     1       0.141  10.933  20.647  0.00  0.00    +0.000 A 
ATOM     21  C   UNL     1       0.968  11.097  21.861  0.00  0.00    +0.000 C 
ENDBRANCH   6  15
BRANCH  12  22
ATOM     22  C   UNL     1       5.154   5.212  17.474  0.00  0.00    +0.000 A 
ATOM     23  C   UNL     1       5.100   4.965  16.075  0.00  0.00    +0.000 A 
ATOM     24  C   UNL     1       6.094   5.728  15.500  0.00  0.00    +0.000 A 
ATOM     25  O   UNL     1       6.706   6.485  16.443  0.00  0.00    +0.000 OA
ATOM     26  C   UNL     1       6.113   6.190  17.631  0.00  0.00    +0.000 A 
ENDBRANCH  12  22
BRANCH   1  28
ATOM     27  C   UNL     1       2.528  11.044  17.767  0.00  0.00    +0.000 C 
ATOM     28  O   UNL     1       1.895   9.824  17.394  0.00  0.00    +0.000 OA
ENDBRANCH   1  28
TORSDOF 3
ENDMDL
MODEL 5
REMARK VINA RESULT:      -7.2      2.053      6.945
REMARK  Name = 
REMARK  6 active torsions:
REMARK  status: ('A' for Active; 'I' for Inactive)
REMARK    1  A    between atoms: C_1  and  O_2
REMARK    2  A    between atoms: O_2  and  C_3
REMARK    3  A    between atoms: C_8  and  C_9
REMARK    4  A    between atoms: C_10  and  C_11
REMARK    5  A    between atoms: C_14  and  C_15
REMARK    6  A    between atoms: C_21  and  C_22
REMARK                            x       y       z     vdW  Elec       q    Type
REMARK                         _______ _______ _______ _____ _____    ______ ____
ROOT
ATOM      1  C   UNL     1       2.489   6.641  19.630  0.00  0.00    +0.000 A 
ATOM      2  C   UNL     1       1.801   7.779  20.082  0.00  0.00    +0.000 A 
ATOM      3  C   UNL     1       1.698   8.942  19.294  0.00  0.00    +0.000 A 
ATOM      4  C   UNL     1       2.304   8.921  18.040  0.00  0.00    +0.000 A 
ATOM      5  C   UNL     1       3.048   7.825  17.579  0.00  0.00    +0.000 A 
ATOM      6  C   UNL     1       3.129   6.658  18.376  0.00  0.00    +0.000 A 
ATOM      7  N   UNL     1       1.988  10.111  17.426  0.00  0.00    +0.000 N 
ATOM      8  C   UNL     1       1.223  10.886  18.256  0.00  0.00    +0.000 A 
ATOM      9  N   UNL     1       0.728  12.084  17.920  0.00  0.00    +0.000 NA
ATOM     10  C   UNL     1       0.015  12.624  18.921  0.00  0.00    +0.000 A 
ATOM     11  N   UNL     1      -0.203  12.116  20.146  0.00  0.00    +0.000 NA
ATOM     12  C   UNL     1       0.342  10.909  20.442  0.00  0.00    +0.000 A 
ATOM     13  C   UNL     1       1.068  10.216  19.461  0.00  0.00    +0.000 A 
ATOM     14  H   UNL     1       2.235  10.377  16.484  0.00  0.00    +0.000 HD
ENDROOT
BRANCH   6  15
ATOM     15  C   UNL     1       3.821   5.481  17.842  0.00  0.00    +0.000 A 
ATOM     16  C   UNL     1       3.360   4.196  17.414  0.00  0.00    +0.000 A 
ATOM     17  C   UNL     1       2.000   3.606  17.401  0.00  0.00    +0.000 C 
ATOM     18  N   UNL     1       4.369   3.439  16.961  0.00  0.00    +0.000 NA
ATOM     19  O   UNL     1       5.501   4.209  17.075  0.00  0.00    +0.000 OA
ATOM     20  C   UNL     1       5.183   5.423  17.591  0.00  0.00    +0.000 A 
ATOM     21  C   UNL     1       6.323   6.354  17.732  0.00  0.00    +0.000 C 
ENDBRANCH   6  15
BRANCH  12  22
ATOM     22  C   UNL     1       0.130  10.396  21.776  0.00  0.00    +0.000 A 
ATOM     23  C   UNL     1       0.842   9.436  22.547  0.00  0.00    +0.000 A 
ATOM     24  C   UNL     1       0.160   9.297  23.736  0.00  0.00    +0.000 A 
ATOM     25  O   UNL     1      -0.882  10.164  23.780  0.00  0.00    +0.000 OA
ATOM     26  C   UNL     1      -0.877  10.847  22.604  0.00  0.00    +0.000 A 
ENDBRANCH  12  22
BRANCH   1  28
ATOM     27  C   UNL     1       1.336   4.819  20.653  0.00  0.00    +0.000 C 
ATOM     28  O   UNL     1       2.560   5.492  20.378  0.00  0.00    +0.000 OA
ENDBRANCH   1  28
TORSDOF 3
ENDMDL
MODEL 6
REMARK VINA RESULT:      -7.1      2.036      6.790
REMARK  Name = 
REMARK  6 active torsions:
REMARK  status: ('A' for Active; 'I' for Inactive)
REMARK    1  A    between atoms: C_1  and  O_2
REMARK    2  A    between atoms: O_2  and  C_3
REMARK    3  A    between atoms: C_8  and  C_9
REMARK    4  A    between atoms: C_10  and  C_11
REMARK    5  A    between atoms: C_14  and  C_15
REMARK    6  A    between atoms: C_21  and  C_22
REMARK                            x       y       z     vdW  Elec       q    Type
REMARK                         _______ _______ _______ _____ _____    ______ ____
ROOT
ATOM      1  C   UNL     1       2.502   6.695  19.630  0.00  0.00    +0.000 A 
ATOM      2  C   UNL     1       1.801   7.823  20.087  0.00  0.00    +0.000 A 
ATOM      3  C   UNL     1       1.682   8.987  19.303  0.00  0.00    +0.000 A 
ATOM      4  C   UNL     1       2.285   8.977  18.047  0.00  0.00    +0.000 A 
ATOM      5  C   UNL     1       3.040   7.891  17.581  0.00  0.00    +0.000 A 
ATOM      6  C   UNL     1       3.137   6.723  18.374  0.00  0.00    +0.000 A 
ATOM      7  N   UNL     1       1.953  10.165  17.438  0.00  0.00    +0.000 N 
ATOM      8  C   UNL     1       1.181  10.928  18.272  0.00  0.00    +0.000 A 
ATOM      9  N   UNL     1       0.671  12.121  17.941  0.00  0.00    +0.000 NA
ATOM     10  C   UNL     1      -0.046  12.650  18.945  0.00  0.00    +0.000 A 
ATOM     11  N   UNL     1      -0.255  12.135  20.169  0.00  0.00    +0.000 NA
ATOM     12  C   UNL     1       0.305  10.933  20.460  0.00  0.00    +0.000 A 
ATOM     13  C   UNL     1       1.037  10.253  19.475  0.00  0.00    +0.000 A 
ATOM     14  H   UNL     1       2.194  10.436  16.496  0.00  0.00    +0.000 HD
ENDROOT
BRANCH   6  15
ATOM     15  C   UNL     1       3.842   5.556  17.835  0.00  0.00    +0.000 A 
ATOM     16  C   UNL     1       5.230   5.268  17.634  0.00  0.00    +0.000 A 
ATOM     17  C   UNL     1       6.438   6.091  17.879  0.00  0.00    +0.000 C 
ATOM     18  N   UNL     1       5.408   4.037  17.136  0.00  0.00    +0.000 NA
ATOM     19  O   UNL     1       4.152   3.494  17.009  0.00  0.00    +0.000 OA
ATOM     20  C   UNL     1       3.220   4.387  17.426  0.00  0.00    +0.000 A 
ATOM     21  C   UNL     1       1.825   3.901  17.364  0.00  0.00    +0.000 C 
ENDBRANCH   6  15
BRANCH  12  22
ATOM     22  C   UNL     1       0.103  10.414  21.793  0.00  0.00    +0.000 A 
ATOM     23  C   UNL     1       0.829   9.462  22.559  0.00  0.00    +0.000 A 
ATOM     24  C   UNL     1       0.151   9.310  23.750  0.00  0.00    +0.000 A 
ATOM     25  O   UNL     1      -0.901  10.164  23.799  0.00  0.00    +0.000 OA
ATOM     26  C   UNL     1      -0.908  10.850  22.625  0.00  0.00    +0.000 A 
ENDBRANCH  12  22
BRANCH   1  28
ATOM     27  C   UNL     1       1.367   4.890  20.705  0.00  0.00    +0.000 C 
ATOM     28  O   UNL     1       2.588   5.544  20.374  0.00  0.00    +0.000 OA
ENDBRANCH   1  28
TORSDOF 3
ENDMDL
MODEL 7
REMARK VINA RESULT:      -7.0      2.129      6.943
REMARK  Name = 
REMARK  6 active torsions:
REMARK  status: ('A' for Active; 'I' for Inactive)
REMARK    1  A    between atoms: C_1  and  O_2
REMARK    2  A    between atoms: O_2  and  C_3
REMARK    3  A    between atoms: C_8  and  C_9
REMARK    4  A    between atoms: C_10  and  C_11
REMARK    5  A    between atoms: C_14  and  C_15
REMARK    6  A    between atoms: C_21  and  C_22
REMARK                            x       y       z     vdW  Elec       q    Type
REMARK                         _______ _______ _______ _____ _____    ______ ____
ROOT
ATOM      1  C   UNL     1       1.797   5.539  20.118  0.00  0.00    +0.000 A 
ATOM      2  C   UNL     1       1.461   6.882  20.351  0.00  0.00    +0.000 A 
ATOM      3  C   UNL     1       1.814   7.900  19.443  0.00  0.00    +0.000 A 
ATOM      4  C   UNL     1       2.508   7.522  18.296  0.00  0.00    +0.000 A 
ATOM      5  C   UNL     1       2.910   6.200  18.058  0.00  0.00    +0.000 A 
ATOM      6  C   UNL     1       2.535   5.186  18.972  0.00  0.00    +0.000 A 
ATOM      7  N   UNL     1       2.651   8.654  17.527  0.00  0.00    +0.000 N 
ATOM      8  C   UNL     1       2.088   9.731  18.157  0.00  0.00    +0.000 A 
ATOM      9  N   UNL     1       2.035  10.963  17.635  0.00  0.00    +0.000 NA
ATOM     10  C   UNL     1       1.430  11.828  18.465  0.00  0.00    +0.000 A 
ATOM     11  N   UNL     1       0.937  11.585  19.692  0.00  0.00    +0.000 NA
ATOM     12  C   UNL     1       1.038  10.324  20.182  0.00  0.00    +0.000 A 
ATOM     13  C   UNL     1       1.605   9.315  19.389  0.00  0.00    +0.000 A 
ATOM     14  H   UNL     1       3.064   8.698  16.607  0.00  0.00    +0.000 HD
ENDROOT
BRANCH   6  15
ATOM     15  C   UNL     1       2.871   3.793  18.664  0.00  0.00    +0.000 A 
ATOM     16  C   UNL     1       2.072   2.617  18.496  0.00  0.00    +0.000 A 
ATOM     17  C   UNL     1       0.610   2.411  18.615  0.00  0.00    +0.000 C 
ATOM     18  N   UNL     1       2.826   1.554  18.182  0.00  0.00    +0.000 NA
ATOM     19  O   UNL     1       4.121   2.009  18.131  0.00  0.00    +0.000 OA
ATOM     20  C   UNL     1       4.154   3.336  18.410  0.00  0.00    +0.000 A 
ATOM     21  C   UNL     1       5.500   3.946  18.355  0.00  0.00    +0.000 C 
ENDBRANCH   6  15
BRANCH  12  22
ATOM     22  C   UNL     1       0.538  10.091  21.518  0.00  0.00    +0.000 A 
ATOM     23  C   UNL     1      -0.758  10.235  22.082  0.00  0.00    +0.000 A 
ATOM     24  C   UNL     1      -0.645   9.923  23.420  0.00  0.00    +0.000 A 
ATOM     25  O   UNL     1       0.620   9.523  23.700  0.00  0.00    +0.000 OA
ATOM     26  C   UNL     1       1.323   9.598  22.539  0.00  0.00    +0.000 A 
ENDBRANCH  12  22
BRANCH   1  28
ATOM     27  C   UNL     1       2.443   3.962  21.791  0.00  0.00    +0.000 C 
ATOM     28  O   UNL     1       1.423   4.538  20.981  0.00  0.00    +0.000 OA
ENDBRANCH   1  28
TORSDOF 3
ENDMDL
MODEL 8
REMARK VINA RESULT:      -6.9      2.535      4.147
REMARK  Name = 
REMARK  6 active torsions:
REMARK  status: ('A' for Active; 'I' for Inactive)
REMARK    1  A    between atoms: C_1  and  O_2
REMARK    2  A    between atoms: O_2  and  C_3
REMARK    3  A    between atoms: C_8  and  C_9
REMARK    4  A    between atoms: C_10  and  C_11
REMARK    5  A    between atoms: C_14  and  C_15
REMARK    6  A    between atoms: C_21  and  C_22
REMARK                            x       y       z     vdW  Elec       q    Type
REMARK                         _______ _______ _______ _____ _____    ______ ____
ROOT
ATOM      1  C   UNL     1       2.215   8.077  19.293  0.00  0.00    +0.000 A 
ATOM      2  C   UNL     1       2.817   6.928  18.755  0.00  0.00    +0.000 A 
ATOM      3  C   UNL     1       2.533   5.641  19.256  0.00  0.00    +0.000 A 
ATOM      4  C   UNL     1       1.624   5.551  20.308  0.00  0.00    +0.000 A 
ATOM      5  C   UNL     1       1.048   6.680  20.908  0.00  0.00    +0.000 A 
ATOM      6  C   UNL     1       1.331   7.964  20.383  0.00  0.00    +0.000 A 
ATOM      7  N   UNL     1       1.435   4.211  20.555  0.00  0.00    +0.000 N 
ATOM      8  C   UNL     1       2.205   3.459  19.710  0.00  0.00    +0.000 A 
ATOM      9  N   UNL     1       2.205   2.119  19.686  0.00  0.00    +0.000 NA
ATOM     10  C   UNL     1       3.053   1.640  18.762  0.00  0.00    +0.000 A 
ATOM     11  N   UNL     1       3.861   2.336  17.944  0.00  0.00    +0.000 NA
ATOM     12  C   UNL     1       3.839   3.690  18.028  0.00  0.00    +0.000 A 
ATOM     13  C   UNL     1       2.955   4.317  18.920  0.00  0.00    +0.000 A 
ATOM     14  H   UNL     1       0.792   3.816  21.226  0.00  0.00    +0.000 HD
ENDROOT
BRANCH   6  15
ATOM     15  C   UNL     1       0.645   9.129  20.949  0.00  0.00    +0.000 A 
ATOM     16  C   UNL     1      -0.372   9.999  20.440  0.00  0.00    +0.000 A 
ATOM     17  C   UNL     1      -1.057  10.027  19.126  0.00  0.00    +0.000 C 
ATOM     18  N   UNL     1      -0.721  10.925  21.343  0.00  0.00    +0.000 NA
ATOM     19  O   UNL     1       0.046  10.679  22.456  0.00  0.00    +0.000 OA
ATOM     20  C   UNL     1       0.855   9.613  22.231  0.00  0.00    +0.000 A 
ATOM     21  C   UNL     1       1.711   9.233  23.375  0.00  0.00    +0.000 C 
ENDBRANCH   6  15
BRANCH  12  22
ATOM     22  C   UNL     1       4.743   4.421  17.168  0.00  0.00    +0.000 A 
ATOM     23  C   UNL     1       4.747   4.637  15.763  0.00  0.00    +0.000 A 
ATOM     24  C   UNL     1       5.881   5.367  15.477  0.00  0.00    +0.000 A 
ATOM     25  O   UNL     1       6.535   5.680  16.623  0.00  0.00    +0.000 OA
ATOM     26  C   UNL     1       5.826   5.130  17.645  0.00  0.00    +0.000 A 
ENDBRANCH  12  22
BRANCH   1  28
ATOM     27  C   UNL     1       1.960   9.608  17.479  0.00  0.00    +0.000 C 
ATOM     28  O   UNL     1       2.459   9.329  18.783  0.00  0.00    +0.000 OA
ENDBRANCH   1  28
TORSDOF 3
ENDMDL
MODEL 9
REMARK VINA RESULT:      -6.7      4.834      9.345
REMARK  Name = 
REMARK  6 active torsions:
REMARK  status: ('A' for Active; 'I' for Inactive)
REMARK    1  A    between atoms: C_1  and  O_2
REMARK    2  A    between atoms: O_2  and  C_3
REMARK    3  A    between atoms: C_8  and  C_9
REMARK    4  A    between atoms: C_10  and  C_11
REMARK    5  A    between atoms: C_14  and  C_15
REMARK    6  A    between atoms: C_21  and  C_22
REMARK                            x       y       z     vdW  Elec       q    Type
REMARK                         _______ _______ _______ _____ _____    ______ ____
ROOT
ATOM      1  C   UNL     1      -1.701  12.268  18.952  0.00  0.00    +0.000 A 
ATOM      2  C   UNL     1      -2.918  12.370  19.646  0.00  0.00    +0.000 A 
ATOM      3  C   UNL     1      -2.965  12.404  21.054  0.00  0.00    +0.000 A 
ATOM      4  C   UNL     1      -1.752  12.337  21.736  0.00  0.00    +0.000 A 
ATOM      5  C   UNL     1      -0.523  12.177  21.079  0.00  0.00    +0.000 A 
ATOM      6  C   UNL     1      -0.492  12.160  19.664  0.00  0.00    +0.000 A 
ATOM      7  N   UNL     1      -2.040  12.487  23.073  0.00  0.00    +0.000 N 
ATOM      8  C   UNL     1      -3.389  12.626  23.256  0.00  0.00    +0.000 A 
ATOM      9  N   UNL     1      -3.968  12.829  24.447  0.00  0.00    +0.000 NA
ATOM     10  C   UNL     1      -5.302  12.929  24.339  0.00  0.00    +0.000 A 
ATOM     11  N   UNL     1      -6.050  12.823  23.226  0.00  0.00    +0.000 NA
ATOM     12  C   UNL     1      -5.413  12.593  22.050  0.00  0.00    +0.000 A 
ATOM     13  C   UNL     1      -4.012  12.519  22.022  0.00  0.00    +0.000 A 
ATOM     14  H   UNL     1      -1.366  12.537  23.823  0.00  0.00    +0.000 HD
ENDROOT
BRANCH   6  15
ATOM     15  C   UNL     1       0.806  12.096  18.984  0.00  0.00    +0.000 A 
ATOM     16  C   UNL     1       1.777  13.093  18.651  0.00  0.00    +0.000 A 
ATOM     17  C   UNL     1       1.773  14.560  18.860  0.00  0.00    +0.000 C 
ATOM     18  N   UNL     1       2.846  12.554  18.049  0.00  0.00    +0.000 NA
ATOM     19  O   UNL     1       2.604  11.204  17.983  0.00  0.00    +0.000 OA
ATOM     20  C   UNL     1       1.398  10.924  18.540  0.00  0.00    +0.000 A 
ATOM     21  C   UNL     1       1.040   9.490  18.553  0.00  0.00    +0.000 C 
ENDBRANCH   6  15
BRANCH  12  22
ATOM     22  C   UNL     1      -6.235  12.441  20.871  0.00  0.00    +0.000 A 
ATOM     23  C   UNL     1      -6.627  13.365  19.864  0.00  0.00    +0.000 A 
ATOM     24  C   UNL     1      -7.462  12.685  19.004  0.00  0.00    +0.000 A 
ATOM     25  O   UNL     1      -7.550  11.383  19.373  0.00  0.00    +0.000 OA
ATOM     26  C   UNL     1      -6.782  11.235  20.485  0.00  0.00    +0.000 A 
ENDBRANCH  12  22
BRANCH   1  28
ATOM     27  C   UNL     1      -2.356  11.243  16.898  0.00  0.00    +0.000 C 
ATOM     28  O   UNL     1      -1.648  12.272  17.580  0.00  0.00    +0.000 OA
ENDBRANCH   1  28
TORSDOF 3
ENDMDL
