MODEL 1
REMARK VINA RESULT:      -8.3      0.000      0.000
REMARK  Name = 
REMARK  8 active torsions:
REMARK  status: ('A' for Active; 'I' for Inactive)
REMARK    1  A    between atoms: O_1  and  C_2
REMARK    2  A    between atoms: C_2  and  C_3
REMARK    3  A    between atoms: C_5  and  C_6
REMARK    4  A    between atoms: C_8  and  C_9
REMARK    5  A    between atoms: C_9  and  C_10
REMARK    6  A    between atoms: C_23  and  O_24
REMARK    7  A    between atoms: C_25  and  O_26
REMARK    8  A    between atoms: C_27  and  O_28
REMARK                            x       y       z     vdW  Elec       q    Type
REMARK                         _______ _______ _______ _____ _____    ______ ____
ROOT
ATOM      1  C   UNL     1       2.169   6.723  19.125  0.00  0.00    +0.000 A 
ATOM      2  C   UNL     1       1.884   7.915  18.435  0.00  0.00    +0.000 A 
ATOM      3  C   UNL     1       1.375   9.036  19.110  0.00  0.00    +0.000 A 
ATOM      4  C   UNL     1       1.115   8.944  20.486  0.00  0.00    +0.000 A 
ATOM      5  C   UNL     1       1.402   7.768  21.181  0.00  0.00    +0.000 A 
ATOM      6  C   UNL     1       1.931   6.676  20.499  0.00  0.00    +0.000 A 
ATOM      7  F   UNL     1       2.199   5.554  21.183  0.00  0.00    +0.000 F 
ENDROOT
BRANCH   1  10
ATOM      8  C   UNL     1       2.184   3.139  18.194  0.00  0.00    +0.000 C 
ATOM      9  O   UNL     1       1.823   4.376  18.817  0.00  0.00    +0.000 OA
ATOM     10  C   UNL     1       2.652   5.476  18.411  0.00  0.00    +0.000 C 
ATOM     11  C   UNL     1       4.142   5.215  18.728  0.00  0.00    +0.000 C 
ATOM     12  C   UNL     1       4.579   3.851  18.172  0.00  0.00    +0.000 C 
ATOM     13  C   UNL     1       3.613   2.739  18.616  0.00  0.00    +0.000 C 
BRANCH  11  14
ATOM     14  O   UNL     1       4.988   6.246  18.200  0.00  0.00    +0.000 OA
ATOM     15  H   UNL     1       5.791   6.306  18.745  0.00  0.00    +0.000 HD
ENDBRANCH  11  14
BRANCH  12  16
ATOM     16  O   UNL     1       5.929   3.568  18.567  0.00  0.00    +0.000 OA
ATOM     17  H   UNL     1       6.455   3.408  17.766  0.00  0.00    +0.000 HD
ENDBRANCH  12  16
BRANCH  13  18
ATOM     18  O   UNL     1       4.055   1.495  18.077  0.00  0.00    +0.000 OA
ATOM     19  H   UNL     1       4.168   1.592  17.114  0.00  0.00    +0.000 HD
ENDBRANCH  13  18
BRANCH   8  20
ATOM     20  C   UNL     1       1.122   2.100  18.570  0.00  0.00    +0.000 C 
BRANCH  20  21
ATOM     21  O   UNL     1       0.179   2.635  19.489  0.00  0.00    +0.000 OA
ATOM     22  H   UNL     1       0.680   3.204  20.104  0.00  0.00    +0.000 HD
ENDBRANCH  20  21
ENDBRANCH   8  20
ENDBRANCH   1  10
BRANCH   3  23
ATOM     23  C   UNL     1       1.089  10.320  18.356  0.00  0.00    +0.000 C 
BRANCH  23  24
ATOM     24  C   UNL     1      -0.366  10.698  18.366  0.00  0.00    +0.000 A 
ATOM     25  C   UNL     1      -1.396  10.158  17.625  0.00  0.00    +0.000 A 
ATOM     26  C   UNL     1      -2.678  10.726  17.938  0.00  0.00    +0.000 A 
ATOM     27  C   UNL     1      -3.968  10.424  17.440  0.00  0.00    +0.000 A 
ATOM     28  C   UNL     1      -5.094  11.084  17.942  0.00  0.00    +0.000 A 
ATOM     29  C   UNL     1      -4.957  12.054  18.925  0.00  0.00    +0.000 A 
ATOM     30  C   UNL     1      -3.694  12.394  19.414  0.00  0.00    +0.000 A 
ATOM     31  C   UNL     1      -2.563  11.718  18.913  0.00  0.00    +0.000 A 
ATOM     32  S   UNL     1      -0.923  11.959  19.375  0.00  0.00    +0.000 S 
ENDBRANCH  23  24
ENDBRANCH   3  23
TORSDOF 8
ENDMDL
MODEL 2
REMARK VINA RESULT:      -8.2      1.780      3.009
REMARK  Name = 
REMARK  8 active torsions:
REMARK  status: ('A' for Active; 'I' for Inactive)
REMARK    1  A    between atoms: O_1  and  C_2
REMARK    2  A    between atoms: C_2  and  C_3
REMARK    3  A    between atoms: C_5  and  C_6
REMARK    4  A    between atoms: C_8  and  C_9
REMARK    5  A    between atoms: C_9  and  C_10
REMARK    6  A    between atoms: C_23  and  O_24
REMARK    7  A    between atoms: C_25  and  O_26
REMARK    8  A    between atoms: C_27  and  O_28
REMARK                            x       y       z     vdW  Elec       q    Type
REMARK                         _______ _______ _______ _____ _____    ______ ____
ROOT
ATOM      1  C   UNL     1       3.230   6.328  19.261  0.00  0.00    +0.000 A 
ATOM      2  C   UNL     1       2.993   7.513  18.542  0.00  0.00    +0.000 A 
ATOM      3  C   UNL     1       1.941   8.373  18.894  0.00  0.00    +0.000 A 
ATOM      4  C   UNL     1       1.095   8.018  19.955  0.00  0.00    +0.000 A 
ATOM      5  C   UNL     1       1.326   6.848  20.680  0.00  0.00    +0.000 A 
ATOM      6  C   UNL     1       2.390   6.021  20.332  0.00  0.00    +0.000 A 
ATOM      7  F   UNL     1       2.596   4.900  21.040  0.00  0.00    +0.000 F 
ENDROOT
BRANCH   1  10
ATOM      8  C   UNL     1       6.692   5.084  18.836  0.00  0.00    +0.000 C 
ATOM      9  O   UNL     1       5.588   5.933  19.167  0.00  0.00    +0.000 OA
ATOM     10  C   UNL     1       4.313   5.347  18.860  0.00  0.00    +0.000 C 
ATOM     11  C   UNL     1       4.194   4.994  17.359  0.00  0.00    +0.000 C 
ATOM     12  C   UNL     1       5.403   4.162  16.905  0.00  0.00    +0.000 C 
ATOM     13  C   UNL     1       6.723   4.837  17.315  0.00  0.00    +0.000 C 
BRANCH  11  14
ATOM     14  O   UNL     1       2.981   4.284  17.073  0.00  0.00    +0.000 OA
ATOM     15  H   UNL     1       2.491   4.760  16.381  0.00  0.00    +0.000 HD
ENDBRANCH  11  14
BRANCH  12  16
ATOM     16  O   UNL     1       5.341   3.936  15.490  0.00  0.00    +0.000 OA
ATOM     17  H   UNL     1       5.399   4.795  15.040  0.00  0.00    +0.000 HD
ENDBRANCH  12  16
BRANCH  13  18
ATOM     18  O   UNL     1       7.814   4.031  16.875  0.00  0.00    +0.000 OA
ATOM     19  H   UNL     1       8.388   4.567  16.298  0.00  0.00    +0.000 HD
ENDBRANCH  13  18
BRANCH   8  20
ATOM     20  C   UNL     1       7.965   5.745  19.375  0.00  0.00    +0.000 C 
BRANCH  20  21
ATOM     21  O   UNL     1       8.190   5.401  20.736  0.00  0.00    +0.000 OA
ATOM     22  H   UNL     1       8.574   6.190  21.163  0.00  0.00    +0.000 HD
ENDBRANCH  20  21
ENDBRANCH   8  20
ENDBRANCH   1  10
BRANCH   3  23
ATOM     23  C   UNL     1       1.708   9.657  18.120  0.00  0.00    +0.000 C 
BRANCH  23  24
ATOM     24  C   UNL     1       0.281  10.126  18.172  0.00  0.00    +0.000 A 
ATOM     25  C   UNL     1      -0.812   9.620  17.501  0.00  0.00    +0.000 A 
ATOM     26  C   UNL     1      -2.041  10.282  17.839  0.00  0.00    +0.000 A 
ATOM     27  C   UNL     1      -3.368  10.040  17.410  0.00  0.00    +0.000 A 
ATOM     28  C   UNL     1      -4.429  10.792  17.927  0.00  0.00    +0.000 A 
ATOM     29  C   UNL     1      -4.188  11.796  18.855  0.00  0.00    +0.000 A 
ATOM     30  C   UNL     1      -2.886  12.077  19.274  0.00  0.00    +0.000 A 
ATOM     31  C   UNL     1      -1.823  11.308  18.760  0.00  0.00    +0.000 A 
ATOM     32  S   UNL     1      -0.151  11.465  19.141  0.00  0.00    +0.000 S 
ENDBRANCH  23  24
ENDBRANCH   3  23
TORSDOF 8
ENDMDL
MODEL 3
REMARK VINA RESULT:      -8.0      1.182      2.641
REMARK  Name = 
REMARK  8 active torsions:
REMARK  status: ('A' for Active; 'I' for Inactive)
REMARK    1  A    between atoms: O_1  and  C_2
REMARK    2  A    between atoms: C_2  and  C_3
REMARK    3  A    between atoms: C_5  and  C_6
REMARK    4  A    between atoms: C_8  and  C_9
REMARK    5  A    between atoms: C_9  and  C_10
REMARK    6  A    between atoms: C_23  and  O_24
REMARK    7  A    between atoms: C_25  and  O_26
REMARK    8  A    between atoms: C_27  and  O_28
REMARK                            x       y       z     vdW  Elec       q    Type
REMARK                         _______ _______ _______ _____ _____    ______ ____
ROOT
ATOM      1  C   UNL     1       2.567   6.678  19.483  0.00  0.00    +0.000 A 
ATOM      2  C   UNL     1       2.309   7.816  18.698  0.00  0.00    +0.000 A 
ATOM      3  C   UNL     1       1.487   8.850  19.174  0.00  0.00    +0.000 A 
ATOM      4  C   UNL     1       0.888   8.720  20.436  0.00  0.00    +0.000 A 
ATOM      5  C   UNL     1       1.145   7.598  21.227  0.00  0.00    +0.000 A 
ATOM      6  C   UNL     1       1.983   6.596  20.748  0.00  0.00    +0.000 A 
ATOM      7  F   UNL     1       2.217   5.525  21.521  0.00  0.00    +0.000 F 
ENDROOT
BRANCH   1  10
ATOM      8  C   UNL     1       5.414   5.029  17.783  0.00  0.00    +0.000 C 
ATOM      9  O   UNL     1       4.552   6.045  18.305  0.00  0.00    +0.000 OA
ATOM     10  C   UNL     1       3.392   5.516  18.968  0.00  0.00    +0.000 C 
ATOM     11  C   UNL     1       2.547   4.633  18.021  0.00  0.00    +0.000 C 
ATOM     12  C   UNL     1       3.431   3.575  17.342  0.00  0.00    +0.000 C 
ATOM     13  C   UNL     1       4.671   4.220  16.701  0.00  0.00    +0.000 C 
BRANCH  11  14
ATOM     14  O   UNL     1       1.467   3.991  18.713  0.00  0.00    +0.000 OA
ATOM     15  H   UNL     1       1.161   3.233  18.185  0.00  0.00    +0.000 HD
ENDBRANCH  11  14
BRANCH  12  16
ATOM     16  O   UNL     1       2.664   2.834  16.383  0.00  0.00    +0.000 OA
ATOM     17  H   UNL     1       3.244   2.607  15.637  0.00  0.00    +0.000 HD
ENDBRANCH  12  16
BRANCH  13  18
ATOM     18  O   UNL     1       5.460   3.203  16.087  0.00  0.00    +0.000 OA
ATOM     19  H   UNL     1       4.892   2.434  15.899  0.00  0.00    +0.000 HD
ENDBRANCH  13  18
BRANCH   8  20
ATOM     20  C   UNL     1       6.685   5.716  17.270  0.00  0.00    +0.000 C 
BRANCH  20  21
ATOM     21  O   UNL     1       7.723   4.773  17.036  0.00  0.00    +0.000 OA
ATOM     22  H   UNL     1       8.249   5.117  16.290  0.00  0.00    +0.000 HD
ENDBRANCH  20  21
ENDBRANCH   8  20
ENDBRANCH   1  10
BRANCH   3  23
ATOM     23  C   UNL     1       1.231  10.080  18.324  0.00  0.00    +0.000 C 
BRANCH  23  24
ATOM     24  C   UNL     1      -0.210  10.505  18.321  0.00  0.00    +0.000 A 
ATOM     25  C   UNL     1      -1.252   9.996  17.573  0.00  0.00    +0.000 A 
ATOM     26  C   UNL     1      -2.516  10.607  17.873  0.00  0.00    +0.000 A 
ATOM     27  C   UNL     1      -3.811  10.346  17.366  0.00  0.00    +0.000 A 
ATOM     28  C   UNL     1      -4.920  11.045  17.856  0.00  0.00    +0.000 A 
ATOM     29  C   UNL     1      -4.758  12.014  18.836  0.00  0.00    +0.000 A 
ATOM     30  C   UNL     1      -3.488  12.314  19.334  0.00  0.00    +0.000 A 
ATOM     31  C   UNL     1      -2.377  11.600  18.845  0.00  0.00    +0.000 A 
ATOM     32  S   UNL     1      -0.733  11.788  19.319  0.00  0.00    +0.000 S 
ENDBRANCH  23  24
ENDBRANCH   3  23
TORSDOF 8
ENDMDL
MODEL 4
REMARK VINA RESULT:      -7.9      0.683      1.191
REMARK  Name = 
REMARK  8 active torsions:
REMARK  status: ('A' for Active; 'I' for Inactive)
REMARK    1  A    between atoms: O_1  and  C_2
REMARK    2  A    between atoms: C_2  and  C_3
REMARK    3  A    between atoms: C_5  and  C_6
REMARK    4  A    between atoms: C_8  and  C_9
REMARK    5  A    between atoms: C_9  and  C_10
REMARK    6  A    between atoms: C_23  and  O_24
REMARK    7  A    between atoms: C_25  and  O_26
REMARK    8  A    between atoms: C_27  and  O_28
REMARK                            x       y       z     vdW  Elec       q    Type
REMARK                         _______ _______ _______ _____ _____    ______ ____
ROOT
ATOM      1  C   UNL     1       2.139   6.763  19.119  0.00  0.00    +0.000 A 
ATOM      2  C   UNL     1       1.806   7.942  18.428  0.00  0.00    +0.000 A 
ATOM      3  C   UNL     1       1.300   9.060  19.110  0.00  0.00    +0.000 A 
ATOM      4  C   UNL     1       1.090   8.977  20.495  0.00  0.00    +0.000 A 
ATOM      5  C   UNL     1       1.423   7.814  21.191  0.00  0.00    +0.000 A 
ATOM      6  C   UNL     1       1.949   6.725  20.501  0.00  0.00    +0.000 A 
ATOM      7  F   UNL     1       2.262   5.615  21.186  0.00  0.00    +0.000 F 
ENDROOT
BRANCH   1  10
ATOM      8  C   UNL     1       2.169   3.176  18.196  0.00  0.00    +0.000 C 
ATOM      9  O   UNL     1       1.807   4.412  18.823  0.00  0.00    +0.000 OA
ATOM     10  C   UNL     1       2.620   5.519  18.400  0.00  0.00    +0.000 C 
ATOM     11  C   UNL     1       4.117   5.271  18.693  0.00  0.00    +0.000 C 
ATOM     12  C   UNL     1       4.557   3.909  18.134  0.00  0.00    +0.000 C 
ATOM     13  C   UNL     1       3.607   2.790  18.596  0.00  0.00    +0.000 C 
BRANCH  11  14
ATOM     14  O   UNL     1       4.946   6.308  18.149  0.00  0.00    +0.000 OA
ATOM     15  H   UNL     1       4.711   6.442  17.214  0.00  0.00    +0.000 HD
ENDBRANCH  11  14
BRANCH  12  16
ATOM     16  O   UNL     1       5.915   3.638  18.507  0.00  0.00    +0.000 OA
ATOM     17  H   UNL     1       6.284   2.998  17.875  0.00  0.00    +0.000 HD
ENDBRANCH  12  16
BRANCH  13  18
ATOM     18  O   UNL     1       4.051   1.549  18.053  0.00  0.00    +0.000 OA
ATOM     19  H   UNL     1       4.985   1.637  17.789  0.00  0.00    +0.000 HD
ENDBRANCH  13  18
BRANCH   8  20
ATOM     20  C   UNL     1       1.122   2.130  18.593  0.00  0.00    +0.000 C 
BRANCH  20  21
ATOM     21  O   UNL     1       0.173   2.668  19.505  0.00  0.00    +0.000 OA
ATOM     22  H   UNL     1      -0.436   3.220  18.980  0.00  0.00    +0.000 HD
ENDBRANCH  20  21
ENDBRANCH   8  20
ENDBRANCH   1  10
BRANCH   3  23
ATOM     23  C   UNL     1       0.963  10.331  18.355  0.00  0.00    +0.000 C 
BRANCH  23  24
ATOM     24  C   UNL     1      -0.468  10.757  18.526  0.00  0.00    +0.000 A 
ATOM     25  C   UNL     1      -1.005  11.590  19.485  0.00  0.00    +0.000 A 
ATOM     26  C   UNL     1      -2.411  11.826  19.308  0.00  0.00    +0.000 A 
ATOM     27  C   UNL     1      -3.309  12.640  20.038  0.00  0.00    +0.000 A 
ATOM     28  C   UNL     1      -4.645  12.757  19.639  0.00  0.00    +0.000 A 
ATOM     29  C   UNL     1      -5.107  12.063  18.530  0.00  0.00    +0.000 A 
ATOM     30  C   UNL     1      -4.251  11.229  17.807  0.00  0.00    +0.000 A 
ATOM     31  C   UNL     1      -2.904  11.124  18.206  0.00  0.00    +0.000 A 
ATOM     32  S   UNL     1      -1.673  10.177  17.464  0.00  0.00    +0.000 S 
ENDBRANCH  23  24
ENDBRANCH   3  23
TORSDOF 8
ENDMDL
MODEL 5
REMARK VINA RESULT:      -7.7      0.998      1.418
REMARK  Name = 
REMARK  8 active torsions:
REMARK  status: ('A' for Active; 'I' for Inactive)
REMARK    1  A    between atoms: O_1  and  C_2
REMARK    2  A    between atoms: C_2  and  C_3
REMARK    3  A    between atoms: C_5  and  C_6
REMARK    4  A    between atoms: C_8  and  C_9
REMARK    5  A    between atoms: C_9  and  C_10
REMARK    6  A    between atoms: C_23  and  O_24
REMARK    7  A    between atoms: C_25  and  O_26
REMARK    8  A    between atoms: C_27  and  O_28
REMARK                            x       y       z     vdW  Elec       q    Type
REMARK                         _______ _______ _______ _____ _____    ______ ____
ROOT
ATOM      1  C   UNL     1       2.206   6.756  19.063  0.00  0.00    +0.000 A 
ATOM      2  C   UNL     1       2.010   7.954  18.355  0.00  0.00    +0.000 A 
ATOM      3  C   UNL     1       1.507   9.098  18.996  0.00  0.00    +0.000 A 
ATOM      4  C   UNL     1       1.162   9.024  20.354  0.00  0.00    +0.000 A 
ATOM      5  C   UNL     1       1.360   7.840  21.068  0.00  0.00    +0.000 A 
ATOM      6  C   UNL     1       1.884   6.725  20.421  0.00  0.00    +0.000 A 
ATOM      7  F   UNL     1       2.067   5.597  21.123  0.00  0.00    +0.000 F 
ENDROOT
BRANCH   1  10
ATOM      8  C   UNL     1       2.196   3.148  18.227  0.00  0.00    +0.000 C 
ATOM      9  O   UNL     1       1.844   4.403  18.818  0.00  0.00    +0.000 OA
ATOM     10  C   UNL     1       2.680   5.487  18.383  0.00  0.00    +0.000 C 
ATOM     11  C   UNL     1       4.169   5.225  18.707  0.00  0.00    +0.000 C 
ATOM     12  C   UNL     1       4.596   3.843  18.188  0.00  0.00    +0.000 C 
ATOM     13  C   UNL     1       3.622   2.750  18.660  0.00  0.00    +0.000 C 
BRANCH  11  14
ATOM     14  O   UNL     1       5.021   6.235  18.152  0.00  0.00    +0.000 OA
ATOM     15  H   UNL     1       4.470   6.947  17.784  0.00  0.00    +0.000 HD
ENDBRANCH  11  14
BRANCH  12  16
ATOM     16  O   UNL     1       5.944   3.561  18.590  0.00  0.00    +0.000 OA
ATOM     17  H   UNL     1       6.171   4.148  19.331  0.00  0.00    +0.000 HD
ENDBRANCH  12  16
BRANCH  13  18
ATOM     18  O   UNL     1       4.056   1.489  18.155  0.00  0.00    +0.000 OA
ATOM     19  H   UNL     1       3.753   1.399  17.233  0.00  0.00    +0.000 HD
ENDBRANCH  13  18
BRANCH   8  20
ATOM     20  C   UNL     1       1.127   2.127  18.631  0.00  0.00    +0.000 C 
BRANCH  20  21
ATOM     21  O   UNL     1       0.145   2.713  19.476  0.00  0.00    +0.000 OA
ATOM     22  H   UNL     1      -0.028   3.606  19.124  0.00  0.00    +0.000 HD
ENDBRANCH  20  21
ENDBRANCH   8  20
ENDBRANCH   1  10
BRANCH   3  23
ATOM     23  C   UNL     1       1.318  10.389  18.223  0.00  0.00    +0.000 C 
BRANCH  23  24
ATOM     24  C   UNL     1       0.212  11.247  18.771  0.00  0.00    +0.000 A 
ATOM     25  C   UNL     1      -1.150  11.051  18.679  0.00  0.00    +0.000 A 
ATOM     26  C   UNL     1      -1.914  12.047  19.377  0.00  0.00    +0.000 A 
ATOM     27  C   UNL     1      -3.312  12.179  19.558  0.00  0.00    +0.000 A 
ATOM     28  C   UNL     1      -3.831  13.219  20.336  0.00  0.00    +0.000 A 
ATOM     29  C   UNL     1      -2.981  14.144  20.926  0.00  0.00    +0.000 A 
ATOM     30  C   UNL     1      -1.599  14.056  20.740  0.00  0.00    +0.000 A 
ATOM     31  C   UNL     1      -1.081  12.999  19.966  0.00  0.00    +0.000 A 
ATOM     32  S   UNL     1       0.576  12.686  19.617  0.00  0.00    +0.000 S 
ENDBRANCH  23  24
ENDBRANCH   3  23
TORSDOF 8
ENDMDL
MODEL 6
REMARK VINA RESULT:      -7.6      2.114      3.566
REMARK  Name = 
REMARK  8 active torsions:
REMARK  status: ('A' for Active; 'I' for Inactive)
REMARK    1  A    between atoms: O_1  and  C_2
REMARK    2  A    between atoms: C_2  and  C_3
REMARK    3  A    between atoms: C_5  and  C_6
REMARK    4  A    between atoms: C_8  and  C_9
REMARK    5  A    between atoms: C_9  and  C_10
REMARK    6  A    between atoms: C_23  and  O_24
REMARK    7  A    between atoms: C_25  and  O_26
REMARK    8  A    between atoms: C_27  and  O_28
REMARK                            x       y       z     vdW  Elec       q    Type
REMARK                         _______ _______ _______ _____ _____    ______ ____
ROOT
ATOM      1  C   UNL     1       3.295   6.171  19.264  0.00  0.00    +0.000 A 
ATOM      2  C   UNL     1       3.001   7.349  18.555  0.00  0.00    +0.000 A 
ATOM      3  C   UNL     1       1.924   8.168  18.931  0.00  0.00    +0.000 A 
ATOM      4  C   UNL     1       1.112   7.777  20.006  0.00  0.00    +0.000 A 
ATOM      5  C   UNL     1       1.400   6.613  20.720  0.00  0.00    +0.000 A 
ATOM      6  C   UNL     1       2.488   5.828  20.349  0.00  0.00    +0.000 A 
ATOM      7  F   UNL     1       2.748   4.713  21.047  0.00  0.00    +0.000 F 
ENDROOT
BRANCH   1  10
ATOM      8  C   UNL     1       6.792   5.036  18.816  0.00  0.00    +0.000 C 
ATOM      9  O   UNL     1       5.663   5.844  19.168  0.00  0.00    +0.000 OA
ATOM     10  C   UNL     1       4.406   5.232  18.839  0.00  0.00    +0.000 C 
ATOM     11  C   UNL     1       4.301   4.921  17.328  0.00  0.00    +0.000 C 
ATOM     12  C   UNL     1       5.535   4.137  16.853  0.00  0.00    +0.000 C 
ATOM     13  C   UNL     1       6.834   4.835  17.288  0.00  0.00    +0.000 C 
BRANCH  11  14
ATOM     14  O   UNL     1       3.110   4.186  17.016  0.00  0.00    +0.000 OA
ATOM     15  H   UNL     1       2.998   3.475  17.670  0.00  0.00    +0.000 HD
ENDBRANCH  11  14
BRANCH  12  16
ATOM     16  O   UNL     1       5.484   3.951  15.432  0.00  0.00    +0.000 OA
ATOM     17  H   UNL     1       5.049   3.100  15.250  0.00  0.00    +0.000 HD
ENDBRANCH  12  16
BRANCH  13  18
ATOM     18  O   UNL     1       7.949   4.073  16.830  0.00  0.00    +0.000 OA
ATOM     19  H   UNL     1       8.326   4.510  16.044  0.00  0.00    +0.000 HD
ENDBRANCH  13  18
BRANCH   8  20
ATOM     20  C   UNL     1       8.045   5.716  19.380  0.00  0.00    +0.000 C 
BRANCH  20  21
ATOM     21  O   UNL     1       8.266   5.350  20.735  0.00  0.00    +0.000 OA
ATOM     22  H   UNL     1       8.054   6.135  21.274  0.00  0.00    +0.000 HD
ENDBRANCH  20  21
ENDBRANCH   8  20
ENDBRANCH   1  10
BRANCH   3  23
ATOM     23  C   UNL     1       1.630   9.445  18.168  0.00  0.00    +0.000 C 
BRANCH  23  24
ATOM     24  C   UNL     1       0.618  10.320  18.852  0.00  0.00    +0.000 A 
ATOM     25  C   UNL     1       0.792  11.133  19.953  0.00  0.00    +0.000 A 
ATOM     26  C   UNL     1      -0.386  11.878  20.300  0.00  0.00    +0.000 A 
ATOM     27  C   UNL     1      -0.606  12.835  21.319  0.00  0.00    +0.000 A 
ATOM     28  C   UNL     1      -1.843  13.479  21.432  0.00  0.00    +0.000 A 
ATOM     29  C   UNL     1      -2.874  13.174  20.555  0.00  0.00    +0.000 A 
ATOM     30  C   UNL     1      -2.695  12.211  19.559  0.00  0.00    +0.000 A 
ATOM     31  C   UNL     1      -1.444  11.574  19.441  0.00  0.00    +0.000 A 
ATOM     32  S   UNL     1      -0.994  10.377  18.289  0.00  0.00    +0.000 S 
ENDBRANCH  23  24
ENDBRANCH   3  23
TORSDOF 8
ENDMDL
MODEL 7
REMARK VINA RESULT:      -7.5      3.248      5.200
REMARK  Name = 
REMARK  8 active torsions:
REMARK  status: ('A' for Active; 'I' for Inactive)
REMARK    1  A    between atoms: O_1  and  C_2
REMARK    2  A    between atoms: C_2  and  C_3
REMARK    3  A    between atoms: C_5  and  C_6
REMARK    4  A    between atoms: C_8  and  C_9
REMARK    5  A    between atoms: C_9  and  C_10
REMARK    6  A    between atoms: C_23  and  O_24
REMARK    7  A    between atoms: C_25  and  O_26
REMARK    8  A    between atoms: C_27  and  O_28
REMARK                            x       y       z     vdW  Elec       q    Type
REMARK                         _______ _______ _______ _____ _____    ______ ____
ROOT
ATOM      1  C   UNL     1       3.842   3.839  18.855  0.00  0.00    +0.000 A 
ATOM      2  C   UNL     1       3.185   4.807  19.635  0.00  0.00    +0.000 A 
ATOM      3  C   UNL     1       2.006   4.495  20.330  0.00  0.00    +0.000 A 
ATOM      4  C   UNL     1       1.460   3.209  20.207  0.00  0.00    +0.000 A 
ATOM      5  C   UNL     1       2.108   2.238  19.440  0.00  0.00    +0.000 A 
ATOM      6  C   UNL     1       3.291   2.559  18.780  0.00  0.00    +0.000 A 
ATOM      7  F   UNL     1       3.898   1.613  18.048  0.00  0.00    +0.000 F 
ENDROOT
BRANCH   1  10
ATOM      8  C   UNL     1       7.164   5.327  18.177  0.00  0.00    +0.000 C 
ATOM      9  O   UNL     1       5.953   4.965  18.848  0.00  0.00    +0.000 OA
ATOM     10  C   UNL     1       5.076   4.165  18.039  0.00  0.00    +0.000 C 
ATOM     11  C   UNL     1       4.682   4.894  16.733  0.00  0.00    +0.000 C 
ATOM     12  C   UNL     1       5.935   5.403  16.003  0.00  0.00    +0.000 C 
ATOM     13  C   UNL     1       6.840   6.207  16.953  0.00  0.00    +0.000 C 
BRANCH  11  14
ATOM     14  O   UNL     1       3.922   4.048  15.859  0.00  0.00    +0.000 OA
ATOM     15  H   UNL     1       3.411   4.605  15.247  0.00  0.00    +0.000 HD
ENDBRANCH  11  14
BRANCH  12  16
ATOM     16  O   UNL     1       5.556   6.174  14.854  0.00  0.00    +0.000 OA
ATOM     17  H   UNL     1       5.552   5.586  14.079  0.00  0.00    +0.000 HD
ENDBRANCH  12  16
BRANCH  13  18
ATOM     18  O   UNL     1       7.986   6.656  16.235  0.00  0.00    +0.000 OA
ATOM     19  H   UNL     1       8.536   7.199  16.829  0.00  0.00    +0.000 HD
ENDBRANCH  13  18
BRANCH   8  20
ATOM     20  C   UNL     1       8.075   6.014  19.200  0.00  0.00    +0.000 C 
BRANCH  20  21
ATOM     21  O   UNL     1       7.909   5.456  20.497  0.00  0.00    +0.000 OA
ATOM     22  H   UNL     1       7.115   5.873  20.880  0.00  0.00    +0.000 HD
ENDBRANCH  20  21
ENDBRANCH   8  20
ENDBRANCH   1  10
BRANCH   3  23
ATOM     23  C   UNL     1       1.318   5.545  21.183  0.00  0.00    +0.000 C 
BRANCH  23  24
ATOM     24  C   UNL     1       1.391   6.925  20.592  0.00  0.00    +0.000 A 
ATOM     25  C   UNL     1       1.914   7.309  19.374  0.00  0.00    +0.000 A 
ATOM     26  C   UNL     1       1.759   8.712  19.109  0.00  0.00    +0.000 A 
ATOM     27  C   UNL     1       2.116   9.481  17.975  0.00  0.00    +0.000 A 
ATOM     28  C   UNL     1       1.812  10.846  17.920  0.00  0.00    +0.000 A 
ATOM     29  C   UNL     1       1.172  11.463  18.985  0.00  0.00    +0.000 A 
ATOM     30  C   UNL     1       0.835  10.736  20.129  0.00  0.00    +0.000 A 
ATOM     31  C   UNL     1       1.132   9.359  20.174  0.00  0.00    +0.000 A 
ATOM     32  S   UNL     1       0.800   8.269  21.464  0.00  0.00    +0.000 S 
ENDBRANCH  23  24
ENDBRANCH   3  23
TORSDOF 8
ENDMDL
MODEL 8
REMARK VINA RESULT:      -7.5      1.973      3.510
REMARK  Name = 
REMARK  8 active torsions:
REMARK  status: ('A' for Active; 'I' for Inactive)
REMARK    1  A    between atoms: O_1  and  C_2
REMARK    2  A    between atoms: C_2  and  C_3
REMARK    3  A    between atoms: C_5  and  C_6
REMARK    4  A    between atoms: C_8  and  C_9
REMARK    5  A    between atoms: C_9  and  C_10
REMARK    6  A    between atoms: C_23  and  O_24
REMARK    7  A    between atoms: C_25  and  O_26
REMARK    8  A    between atoms: C_27  and  O_28
REMARK                            x       y       z     vdW  Elec       q    Type
REMARK                         _______ _______ _______ _____ _____    ______ ____
ROOT
ATOM      1  C   UNL     1       3.267   5.274  19.447  0.00  0.00    +0.000 A 
ATOM      2  C   UNL     1       3.151   6.662  19.638  0.00  0.00    +0.000 A 
ATOM      3  C   UNL     1       2.019   7.214  20.258  0.00  0.00    +0.000 A 
ATOM      4  C   UNL     1       0.976   6.364  20.655  0.00  0.00    +0.000 A 
ATOM      5  C   UNL     1       1.084   4.984  20.476  0.00  0.00    +0.000 A 
ATOM      6  C   UNL     1       2.226   4.454  19.883  0.00  0.00    +0.000 A 
ATOM      7  F   UNL     1       2.311   3.125  19.719  0.00  0.00    +0.000 F 
ENDROOT
BRANCH   1  10
ATOM      8  C   UNL     1       6.808   4.895  18.433  0.00  0.00    +0.000 C 
ATOM      9  O   UNL     1       5.625   5.398  19.061  0.00  0.00    +0.000 OA
ATOM     10  C   UNL     1       4.443   4.657  18.718  0.00  0.00    +0.000 C 
ATOM     11  C   UNL     1       4.194   4.658  17.192  0.00  0.00    +0.000 C 
ATOM     12  C   UNL     1       5.461   4.221  16.440  0.00  0.00    +0.000 C 
ATOM     13  C   UNL     1       6.684   5.031  16.902  0.00  0.00    +0.000 C 
BRANCH  11  14
ATOM     14  O   UNL     1       3.098   3.805  16.831  0.00  0.00    +0.000 OA
ATOM     15  H   UNL     1       3.252   3.454  15.937  0.00  0.00    +0.000 HD
ENDBRANCH  11  14
BRANCH  12  16
ATOM     16  O   UNL     1       5.256   4.332  15.024  0.00  0.00    +0.000 OA
ATOM     17  H   UNL     1       6.068   4.044  14.574  0.00  0.00    +0.000 HD
ENDBRANCH  12  16
BRANCH  13  18
ATOM     18  O   UNL     1       7.833   4.592  16.181  0.00  0.00    +0.000 OA
ATOM     19  H   UNL     1       7.709   4.798  15.236  0.00  0.00    +0.000 HD
ENDBRANCH  13  18
BRANCH   8  20
ATOM     20  C   UNL     1       8.005   5.652  19.019  0.00  0.00    +0.000 C 
BRANCH  20  21
ATOM     21  O   UNL     1       8.032   5.558  20.437  0.00  0.00    +0.000 OA
ATOM     22  H   UNL     1       8.156   6.465  20.775  0.00  0.00    +0.000 HD
ENDBRANCH  20  21
ENDBRANCH   8  20
ENDBRANCH   1  10
BRANCH   3  23
ATOM     23  C   UNL     1       1.917   8.712  20.474  0.00  0.00    +0.000 C 
BRANCH  23  24
ATOM     24  C   UNL     1       0.786   9.341  19.710  0.00  0.00    +0.000 A 
ATOM     25  C   UNL     1       0.391   9.100  18.410  0.00  0.00    +0.000 A 
ATOM     26  C   UNL     1      -0.777   9.843  18.025  0.00  0.00    +0.000 A 
ATOM     27  C   UNL     1      -1.510   9.848  16.815  0.00  0.00    +0.000 A 
ATOM     28  C   UNL     1      -2.665  10.628  16.689  0.00  0.00    +0.000 A 
ATOM     29  C   UNL     1      -3.094  11.418  17.745  0.00  0.00    +0.000 A 
ATOM     30  C   UNL     1      -2.374  11.457  18.941  0.00  0.00    +0.000 A 
ATOM     31  C   UNL     1      -1.219  10.660  19.067  0.00  0.00    +0.000 A 
ATOM     32  S   UNL     1      -0.189  10.538  20.442  0.00  0.00    +0.000 S 
ENDBRANCH  23  24
ENDBRANCH   3  23
TORSDOF 8
ENDMDL
MODEL 9
REMARK VINA RESULT:      -7.5      2.379      3.803
REMARK  Name = 
REMARK  8 active torsions:
REMARK  status: ('A' for Active; 'I' for Inactive)
REMARK    1  A    between atoms: O_1  and  C_2
REMARK    2  A    between atoms: C_2  and  C_3
REMARK    3  A    between atoms: C_5  and  C_6
REMARK    4  A    between atoms: C_8  and  C_9
REMARK    5  A    between atoms: C_9  and  C_10
REMARK    6  A    between atoms: C_23  and  O_24
REMARK    7  A    between atoms: C_25  and  O_26
REMARK    8  A    between atoms: C_27  and  O_28
REMARK                            x       y       z     vdW  Elec       q    Type
REMARK                         _______ _______ _______ _____ _____    ______ ____
ROOT
ATOM      1  C   UNL     1       3.365   5.735  19.427  0.00  0.00    +0.000 A 
ATOM      2  C   UNL     1       3.046   7.013  18.933  0.00  0.00    +0.000 A 
ATOM      3  C   UNL     1       1.933   7.717  19.419  0.00  0.00    +0.000 A 
ATOM      4  C   UNL     1       1.110   7.114  20.382  0.00  0.00    +0.000 A 
ATOM      5  C   UNL     1       1.422   5.849  20.884  0.00  0.00    +0.000 A 
ATOM      6  C   UNL     1       2.545   5.178  20.409  0.00  0.00    +0.000 A 
ATOM      7  F   UNL     1       2.829   3.963  20.902  0.00  0.00    +0.000 F 
ENDROOT
BRANCH   1  10
ATOM      8  C   UNL     1       6.908   4.903  18.742  0.00  0.00    +0.000 C 
ATOM      9  O   UNL     1       5.744   5.591  19.211  0.00  0.00    +0.000 OA
ATOM     10  C   UNL     1       4.518   4.923  18.872  0.00  0.00    +0.000 C 
ATOM     11  C   UNL     1       4.368   4.749  17.343  0.00  0.00    +0.000 C 
ATOM     12  C   UNL     1       5.630   4.103  16.749  0.00  0.00    +0.000 C 
ATOM     13  C   UNL     1       6.897   4.850  17.201  0.00  0.00    +0.000 C 
BRANCH  11  14
ATOM     14  O   UNL     1       3.217   3.962  17.006  0.00  0.00    +0.000 OA
ATOM     15  H   UNL     1       2.456   4.278  17.523  0.00  0.00    +0.000 HD
ENDBRANCH  11  14
BRANCH  12  16
ATOM     16  O   UNL     1       5.529   4.049  15.319  0.00  0.00    +0.000 OA
ATOM     17  H   UNL     1       4.883   3.362  15.084  0.00  0.00    +0.000 HD
ENDBRANCH  12  16
BRANCH  13  18
ATOM     18  O   UNL     1       8.039   4.217  16.630  0.00  0.00    +0.000 OA
ATOM     19  H   UNL     1       7.792   3.317  16.348  0.00  0.00    +0.000 HD
ENDBRANCH  13  18
BRANCH   8  20
ATOM     20  C   UNL     1       8.135   5.615  19.321  0.00  0.00    +0.000 C 
BRANCH  20  21
ATOM     21  O   UNL     1       8.251   5.391  20.720  0.00  0.00    +0.000 OA
ATOM     22  H   UNL     1       9.205   5.335  20.915  0.00  0.00    +0.000 HD
ENDBRANCH  20  21
ENDBRANCH   8  20
ENDBRANCH   1  10
BRANCH   3  23
ATOM     23  C   UNL     1       1.612   9.102  18.890  0.00  0.00    +0.000 C 
BRANCH  23  24
ATOM     24  C   UNL     1       0.701   9.882  19.796  0.00  0.00    +0.000 A 
ATOM     25  C   UNL     1      -0.311  10.754  19.450  0.00  0.00    +0.000 A 
ATOM     26  C   UNL     1      -1.021  11.277  20.584  0.00  0.00    +0.000 A 
ATOM     27  C   UNL     1      -2.131  12.152  20.654  0.00  0.00    +0.000 A 
ATOM     28  C   UNL     1      -2.695  12.485  21.890  0.00  0.00    +0.000 A 
ATOM     29  C   UNL     1      -2.160  11.973  23.064  0.00  0.00    +0.000 A 
ATOM     30  C   UNL     1      -1.046  11.131  23.027  0.00  0.00    +0.000 A 
ATOM     31  C   UNL     1      -0.490  10.789  21.779  0.00  0.00    +0.000 A 
ATOM     32  S   UNL     1       0.864   9.765  21.493  0.00  0.00    +0.000 S 
ENDBRANCH  23  24
ENDBRANCH   3  23
TORSDOF 8
ENDMDL
