MODEL 1
REMARK VINA RESULT:      -6.0      0.000      0.000
REMARK  Name = 
REMARK  4 active torsions:
REMARK  status: ('A' for Active; 'I' for Inactive)
REMARK    1  A    between atoms: C_1  and  C_2
REMARK    2  A    between atoms: C_2  and  C_4
REMARK    3  A    between atoms: C_4  and  S_5
REMARK    4  A    between atoms: S_5  and  C_6
REMARK                            x       y       z     vdW  Elec       q    Type
REMARK                         _______ _______ _______ _____ _____    ______ ____
ROOT
ATOM      1  C   UNL     1       4.361   4.119  18.341  0.00  0.00    +0.000 A 
ATOM      2  N   UNL     1       5.335   3.998  19.196  0.00  0.00    +0.000 NA
ATOM      3  C   UNL     1       6.178   4.991  18.808  0.00  0.00    +0.000 A 
ATOM      4  N   UNL     1       7.307   5.321  19.351  0.00  0.00    +0.000 NA
ATOM      5  C   UNL     1       7.947   6.403  18.758  0.00  0.00    +0.000 A 
ATOM      6  C   UNL     1       7.471   7.080  17.693  0.00  0.00    +0.000 A 
ATOM      7  N   UNL     1       6.285   6.731  17.091  0.00  0.00    +0.000 N 
ATOM      8  C   UNL     1       5.583   5.690  17.621  0.00  0.00    +0.000 A 
ATOM      9  N   UNL     1       4.465   5.108  17.362  0.00  0.00    +0.000 NA
ATOM     10  H   UNL     1       5.918   7.276  16.324  0.00  0.00    +0.000 HD
ENDROOT
BRANCH   1  11
ATOM     11  S   UNL     1       2.969   3.088  18.453  0.00  0.00    +0.000 S 
BRANCH  11  12
ATOM     12  C   UNL     1       3.126   2.510  20.155  0.00  0.00    +0.000 C 
BRANCH  12  14
ATOM     13  C   UNL     1       0.995   3.957  20.332  0.00  0.00    +0.000 C 
ATOM     14  C   UNL     1       2.105   3.209  21.026  0.00  0.00    +0.000 C 
ATOM     15  O   UNL     1       2.172   3.174  22.257  0.00  0.00    +0.000 OA
ENDBRANCH  12  14
ENDBRANCH  11  12
ENDBRANCH   1  11
TORSDOF 3
ENDMDL
MODEL 2
REMARK VINA RESULT:      -5.9      0.350      1.613
REMARK  Name = 
REMARK  4 active torsions:
REMARK  status: ('A' for Active; 'I' for Inactive)
REMARK    1  A    between atoms: C_1  and  C_2
REMARK    2  A    between atoms: C_2  and  C_4
REMARK    3  A    between atoms: C_4  and  S_5
REMARK    4  A    between atoms: S_5  and  C_6
REMARK                            x       y       z     vdW  Elec       q    Type
REMARK                         _______ _______ _______ _____ _____    ______ ____
ROOT
ATOM      1  C   UNL     1       4.352   4.149  18.533  0.00  0.00    +0.000 A 
ATOM      2  N   UNL     1       4.330   5.056  17.600  0.00  0.00    +0.000 NA
ATOM      3  C   UNL     1       5.513   5.695  17.797  0.00  0.00    +0.000 A 
ATOM      4  N   UNL     1       5.998   6.682  17.112  0.00  0.00    +0.000 NA
ATOM      5  C   UNL     1       7.251   7.120  17.524  0.00  0.00    +0.000 A 
ATOM      6  C   UNL     1       7.940   6.595  18.558  0.00  0.00    +0.000 A 
ATOM      7  N   UNL     1       7.431   5.562  19.310  0.00  0.00    +0.000 N 
ATOM      8  C   UNL     1       6.213   5.059  18.962  0.00  0.00    +0.000 A 
ATOM      9  N   UNL     1       5.452   4.115  19.391  0.00  0.00    +0.000 NA
ATOM     10  H   UNL     1       7.979   5.149  20.052  0.00  0.00    +0.000 HD
ENDROOT
BRANCH   1  11
ATOM     11  S   UNL     1       3.054   3.004  18.669  0.00  0.00    +0.000 S 
BRANCH  11  12
ATOM     12  C   UNL     1       3.146   2.612  20.428  0.00  0.00    +0.000 C 
BRANCH  12  14
ATOM     13  C   UNL     1       0.990   4.033  20.413  0.00  0.00    +0.000 C 
ATOM     14  C   UNL     1       1.851   3.006  21.105  0.00  0.00    +0.000 C 
ATOM     15  O   UNL     1       1.507   2.512  22.182  0.00  0.00    +0.000 OA
ENDBRANCH  12  14
ENDBRANCH  11  12
ENDBRANCH   1  11
TORSDOF 3
ENDMDL
MODEL 3
REMARK VINA RESULT:      -5.9      3.520      5.959
REMARK  Name = 
REMARK  4 active torsions:
REMARK  status: ('A' for Active; 'I' for Inactive)
REMARK    1  A    between atoms: C_1  and  C_2
REMARK    2  A    between atoms: C_2  and  C_4
REMARK    3  A    between atoms: C_4  and  S_5
REMARK    4  A    between atoms: S_5  and  C_6
REMARK                            x       y       z     vdW  Elec       q    Type
REMARK                         _______ _______ _______ _____ _____    ______ ____
ROOT
ATOM      1  C   UNL     1       4.417   4.962  18.034  0.00  0.00    +0.000 A 
ATOM      2  N   UNL     1       3.660   4.294  17.213  0.00  0.00    +0.000 NA
ATOM      3  C   UNL     1       2.736   3.757  18.053  0.00  0.00    +0.000 A 
ATOM      4  N   UNL     1       1.725   3.010  17.737  0.00  0.00    +0.000 NA
ATOM      5  C   UNL     1       0.924   2.627  18.805  0.00  0.00    +0.000 A 
ATOM      6  C   UNL     1       1.149   2.973  20.090  0.00  0.00    +0.000 A 
ATOM      7  N   UNL     1       2.228   3.748  20.446  0.00  0.00    +0.000 N 
ATOM      8  C   UNL     1       3.057   4.183  19.455  0.00  0.00    +0.000 A 
ATOM      9  N   UNL     1       4.111   4.918  19.395  0.00  0.00    +0.000 NA
ATOM     10  H   UNL     1       2.357   4.039  21.405  0.00  0.00    +0.000 HD
ENDROOT
BRANCH   1  11
ATOM     11  S   UNL     1       5.746   5.900  17.429  0.00  0.00    +0.000 S 
BRANCH  11  12
ATOM     12  C   UNL     1       6.799   4.590  16.773  0.00  0.00    +0.000 C 
BRANCH  12  14
ATOM     13  C   UNL     1       5.966   3.969  14.410  0.00  0.00    +0.000 C 
ATOM     14  C   UNL     1       6.930   4.743  15.273  0.00  0.00    +0.000 C 
ATOM     15  O   UNL     1       7.789   5.470  14.768  0.00  0.00    +0.000 OA
ENDBRANCH  12  14
ENDBRANCH  11  12
ENDBRANCH   1  11
TORSDOF 3
ENDMDL
MODEL 4
REMARK VINA RESULT:      -5.9      2.478      5.402
REMARK  Name = 
REMARK  4 active torsions:
REMARK  status: ('A' for Active; 'I' for Inactive)
REMARK    1  A    between atoms: C_1  and  C_2
REMARK    2  A    between atoms: C_2  and  C_4
REMARK    3  A    between atoms: C_4  and  S_5
REMARK    4  A    between atoms: S_5  and  C_6
REMARK                            x       y       z     vdW  Elec       q    Type
REMARK                         _______ _______ _______ _____ _____    ______ ____
ROOT
ATOM      1  C   UNL     1       4.687   4.305  17.973  0.00  0.00    +0.000 A 
ATOM      2  N   UNL     1       3.449   4.677  17.817  0.00  0.00    +0.000 NA
ATOM      3  C   UNL     1       2.838   4.073  18.870  0.00  0.00    +0.000 A 
ATOM      4  N   UNL     1       1.585   4.139  19.196  0.00  0.00    +0.000 NA
ATOM      5  C   UNL     1       1.242   3.439  20.346  0.00  0.00    +0.000 A 
ATOM      6  C   UNL     1       2.111   2.725  21.091  0.00  0.00    +0.000 A 
ATOM      7  N   UNL     1       3.439   2.626  20.749  0.00  0.00    +0.000 N 
ATOM      8  C   UNL     1       3.865   3.298  19.642  0.00  0.00    +0.000 A 
ATOM      9  N   UNL     1       4.991   3.463  19.043  0.00  0.00    +0.000 NA
ATOM     10  H   UNL     1       4.087   2.126  21.342  0.00  0.00    +0.000 HD
ENDROOT
BRANCH   1  11
ATOM     11  S   UNL     1       5.913   4.878  16.885  0.00  0.00    +0.000 S 
BRANCH  11  12
ATOM     12  C   UNL     1       7.394   4.561  17.867  0.00  0.00    +0.000 C 
BRANCH  12  14
ATOM     13  C   UNL     1       7.886   7.062  18.278  0.00  0.00    +0.000 C 
ATOM     14  C   UNL     1       7.607   5.694  18.848  0.00  0.00    +0.000 C 
ATOM     15  O   UNL     1       7.557   5.513  20.067  0.00  0.00    +0.000 OA
ENDBRANCH  12  14
ENDBRANCH  11  12
ENDBRANCH   1  11
TORSDOF 3
ENDMDL
MODEL 5
REMARK VINA RESULT:      -5.8      1.073      1.158
REMARK  Name = 
REMARK  4 active torsions:
REMARK  status: ('A' for Active; 'I' for Inactive)
REMARK    1  A    between atoms: C_1  and  C_2
REMARK    2  A    between atoms: C_2  and  C_4
REMARK    3  A    between atoms: C_4  and  S_5
REMARK    4  A    between atoms: S_5  and  C_6
REMARK                            x       y       z     vdW  Elec       q    Type
REMARK                         _______ _______ _______ _____ _____    ______ ____
ROOT
ATOM      1  C   UNL     1       4.227   3.317  18.361  0.00  0.00    +0.000 A 
ATOM      2  N   UNL     1       4.950   3.590  19.408  0.00  0.00    +0.000 NA
ATOM      3  C   UNL     1       5.821   4.512  18.917  0.00  0.00    +0.000 A 
ATOM      4  N   UNL     1       6.756   5.133  19.564  0.00  0.00    +0.000 NA
ATOM      5  C   UNL     1       7.480   6.049  18.811  0.00  0.00    +0.000 A 
ATOM      6  C   UNL     1       7.267   6.296  17.502  0.00  0.00    +0.000 A 
ATOM      7  N   UNL     1       6.293   5.631  16.794  0.00  0.00    +0.000 N 
ATOM      8  C   UNL     1       5.523   4.727  17.462  0.00  0.00    +0.000 A 
ATOM      9  N   UNL     1       4.537   3.958  17.161  0.00  0.00    +0.000 NA
ATOM     10  H   UNL     1       6.114   5.860  15.826  0.00  0.00    +0.000 HD
ENDROOT
BRANCH   1  11
ATOM     11  S   UNL     1       2.898   2.206  18.485  0.00  0.00    +0.000 S 
BRANCH  11  12
ATOM     12  C   UNL     1       1.529   3.358  18.716  0.00  0.00    +0.000 C 
BRANCH  12  14
ATOM     13  C   UNL     1       1.699   5.147  20.569  0.00  0.00    +0.000 C 
ATOM     14  C   UNL     1       1.409   3.719  20.180  0.00  0.00    +0.000 C 
ATOM     15  O   UNL     1       1.087   2.884  21.029  0.00  0.00    +0.000 OA
ENDBRANCH  12  14
ENDBRANCH  11  12
ENDBRANCH   1  11
TORSDOF 3
ENDMDL
MODEL 6
REMARK VINA RESULT:      -5.8      3.501      5.740
REMARK  Name = 
REMARK  4 active torsions:
REMARK  status: ('A' for Active; 'I' for Inactive)
REMARK    1  A    between atoms: C_1  and  C_2
REMARK    2  A    between atoms: C_2  and  C_4
REMARK    3  A    between atoms: C_4  and  S_5
REMARK    4  A    between atoms: S_5  and  C_6
REMARK                            x       y       z     vdW  Elec       q    Type
REMARK                         _______ _______ _______ _____ _____    ______ ____
ROOT
ATOM      1  C   UNL     1       4.795   4.878  18.007  0.00  0.00    +0.000 A 
ATOM      2  N   UNL     1       4.933   3.836  18.774  0.00  0.00    +0.000 NA
ATOM      3  C   UNL     1       3.661   3.362  18.839  0.00  0.00    +0.000 A 
ATOM      4  N   UNL     1       3.245   2.308  19.469  0.00  0.00    +0.000 NA
ATOM      5  C   UNL     1       1.887   2.046  19.338  0.00  0.00    +0.000 A 
ATOM      6  C   UNL     1       1.029   2.807  18.627  0.00  0.00    +0.000 A 
ATOM      7  N   UNL     1       1.448   3.940  17.970  0.00  0.00    +0.000 N 
ATOM      8  C   UNL     1       2.771   4.261  18.032  0.00  0.00    +0.000 A 
ATOM      9  N   UNL     1       3.515   5.191  17.546  0.00  0.00    +0.000 NA
ATOM     10  H   UNL     1       0.804   4.473  17.403  0.00  0.00    +0.000 HD
ENDROOT
BRANCH   1  11
ATOM     11  S   UNL     1       6.182   5.822  17.559  0.00  0.00    +0.000 S 
BRANCH  11  12
ATOM     12  C   UNL     1       7.151   4.580  16.680  0.00  0.00    +0.000 C 
BRANCH  12  14
ATOM     13  C   UNL     1       5.855   4.093  14.501  0.00  0.00    +0.000 C 
ATOM     14  C   UNL     1       7.006   4.783  15.187  0.00  0.00    +0.000 C 
ATOM     15  O   UNL     1       7.795   5.485  14.549  0.00  0.00    +0.000 OA
ENDBRANCH  12  14
ENDBRANCH  11  12
ENDBRANCH   1  11
TORSDOF 3
ENDMDL
MODEL 7
REMARK VINA RESULT:      -5.8      3.046      5.385
REMARK  Name = 
REMARK  4 active torsions:
REMARK  status: ('A' for Active; 'I' for Inactive)
REMARK    1  A    between atoms: C_1  and  C_2
REMARK    2  A    between atoms: C_2  and  C_4
REMARK    3  A    between atoms: C_4  and  S_5
REMARK    4  A    between atoms: S_5  and  C_6
REMARK                            x       y       z     vdW  Elec       q    Type
REMARK                         _______ _______ _______ _____ _____    ______ ____
ROOT
ATOM      1  C   UNL     1       5.430   4.875  19.224  0.00  0.00    +0.000 A 
ATOM      2  N   UNL     1       5.339   3.580  19.320  0.00  0.00    +0.000 NA
ATOM      3  C   UNL     1       3.993   3.392  19.347  0.00  0.00    +0.000 A 
ATOM      4  N   UNL     1       3.358   2.265  19.415  0.00  0.00    +0.000 NA
ATOM      5  C   UNL     1       1.973   2.372  19.396  0.00  0.00    +0.000 A 
ATOM      6  C   UNL     1       1.299   3.539  19.323  0.00  0.00    +0.000 A 
ATOM      7  N   UNL     1       1.957   4.746  19.272  0.00  0.00    +0.000 N 
ATOM      8  C   UNL     1       3.320   4.731  19.268  0.00  0.00    +0.000 A 
ATOM      9  N   UNL     1       4.249   5.618  19.204  0.00  0.00    +0.000 NA
ATOM     10  H   UNL     1       1.440   5.609  19.170  0.00  0.00    +0.000 HD
ENDROOT
BRANCH   1  11
ATOM     11  S   UNL     1       6.987   5.633  19.092  0.00  0.00    +0.000 S 
BRANCH  11  12
ATOM     12  C   UNL     1       6.850   6.378  17.454  0.00  0.00    +0.000 C 
BRANCH  12  14
ATOM     13  C   UNL     1       5.770   5.253  15.397  0.00  0.00    +0.000 C 
ATOM     14  C   UNL     1       6.898   5.296  16.397  0.00  0.00    +0.000 C 
ATOM     15  O   UNL     1       7.819   4.478  16.348  0.00  0.00    +0.000 OA
ENDBRANCH  12  14
ENDBRANCH  11  12
ENDBRANCH   1  11
TORSDOF 3
ENDMDL
MODEL 8
REMARK VINA RESULT:      -5.8      3.365      5.756
REMARK  Name = 
REMARK  4 active torsions:
REMARK  status: ('A' for Active; 'I' for Inactive)
REMARK    1  A    between atoms: C_1  and  C_2
REMARK    2  A    between atoms: C_2  and  C_4
REMARK    3  A    between atoms: C_4  and  S_5
REMARK    4  A    between atoms: S_5  and  C_6
REMARK                            x       y       z     vdW  Elec       q    Type
REMARK                         _______ _______ _______ _____ _____    ______ ____
ROOT
ATOM      1  C   UNL     1       5.114   4.969  18.510  0.00  0.00    +0.000 A 
ATOM      2  N   UNL     1       3.935   5.424  18.201  0.00  0.00    +0.000 NA
ATOM      3  C   UNL     1       3.117   4.534  18.821  0.00  0.00    +0.000 A 
ATOM      4  N   UNL     1       1.821   4.542  18.848  0.00  0.00    +0.000 NA
ATOM      5  C   UNL     1       1.244   3.518  19.589  0.00  0.00    +0.000 A 
ATOM      6  C   UNL     1       1.940   2.562  20.239  0.00  0.00    +0.000 A 
ATOM      7  N   UNL     1       3.315   2.525  20.204  0.00  0.00    +0.000 N 
ATOM      8  C   UNL     1       3.962   3.505  19.512  0.00  0.00    +0.000 A 
ATOM      9  N   UNL     1       5.191   3.809  19.282  0.00  0.00    +0.000 NA
ATOM     10  H   UNL     1       3.823   1.831  20.733  0.00  0.00    +0.000 HD
ENDROOT
BRANCH   1  11
ATOM     11  S   UNL     1       6.539   5.815  17.991  0.00  0.00    +0.000 S 
BRANCH  11  12
ATOM     12  C   UNL     1       7.330   4.539  16.989  0.00  0.00    +0.000 C 
BRANCH  12  14
ATOM     13  C   UNL     1       5.812   4.063  14.955  0.00  0.00    +0.000 C 
ATOM     14  C   UNL     1       7.014   4.771  15.527  0.00  0.00    +0.000 C 
ATOM     15  O   UNL     1       7.708   5.509  14.823  0.00  0.00    +0.000 OA
ENDBRANCH  12  14
ENDBRANCH  11  12
ENDBRANCH   1  11
TORSDOF 3
ENDMDL
MODEL 9
REMARK VINA RESULT:      -5.8      1.457      2.219
REMARK  Name = 
REMARK  4 active torsions:
REMARK  status: ('A' for Active; 'I' for Inactive)
REMARK    1  A    between atoms: C_1  and  C_2
REMARK    2  A    between atoms: C_2  and  C_4
REMARK    3  A    between atoms: C_4  and  S_5
REMARK    4  A    between atoms: S_5  and  C_6
REMARK                            x       y       z     vdW  Elec       q    Type
REMARK                         _______ _______ _______ _____ _____    ______ ____
ROOT
ATOM      1  C   UNL     1       4.790   3.997  18.095  0.00  0.00    +0.000 A 
ATOM      2  N   UNL     1       4.799   4.863  17.123  0.00  0.00    +0.000 NA
ATOM      3  C   UNL     1       5.847   5.658  17.463  0.00  0.00    +0.000 A 
ATOM      4  N   UNL     1       6.306   6.679  16.809  0.00  0.00    +0.000 NA
ATOM      5  C   UNL     1       7.414   7.291  17.381  0.00  0.00    +0.000 A 
ATOM      6  C   UNL     1       7.994   6.895  18.533  0.00  0.00    +0.000 A 
ATOM      7  N   UNL     1       7.508   5.827  19.252  0.00  0.00    +0.000 N 
ATOM      8  C   UNL     1       6.432   5.157  18.751  0.00  0.00    +0.000 A 
ATOM      9  N   UNL     1       5.738   4.135  19.109  0.00  0.00    +0.000 NA
ATOM     10  H   UNL     1       7.981   5.513  20.087  0.00  0.00    +0.000 HD
ENDROOT
BRANCH   1  11
ATOM     11  S   UNL     1       3.640   2.695  18.092  0.00  0.00    +0.000 S 
BRANCH  11  12
ATOM     12  C   UNL     1       2.103   3.617  17.885  0.00  0.00    +0.000 C 
BRANCH  12  14
ATOM     13  C   UNL     1       0.993   3.689  20.215  0.00  0.00    +0.000 C 
ATOM     14  C   UNL     1       1.055   3.080  18.837  0.00  0.00    +0.000 C 
ATOM     15  O   UNL     1       0.280   2.181  18.505  0.00  0.00    +0.000 OA
ENDBRANCH  12  14
ENDBRANCH  11  12
ENDBRANCH   1  11
TORSDOF 3
ENDMDL
