MODEL 1
REMARK VINA RESULT:      -8.4      0.000      0.000
REMARK  Name = 
REMARK  5 active torsions:
REMARK  status: ('A' for Active; 'I' for Inactive)
REMARK    1  A    between atoms: C_2  and  O_3
REMARK    2  A    between atoms: C_2  and  C_4
REMARK    3  A    between atoms: C_4  and  O_5
REMARK    4  A    between atoms: O_5  and  C_6
REMARK    5  A    between atoms: C_7  and  C_8
REMARK                            x       y       z     vdW  Elec       q    Type
REMARK                         _______ _______ _______ _____ _____    ______ ____
ROOT
ATOM      1  C   UNL     1       6.121   5.099  16.070  0.00  0.00    +0.000 A 
ATOM      2  C   UNL     1       5.070   4.219  16.233  0.00  0.00    +0.000 A 
ATOM      3  N   UNL     1       4.923   3.546  15.047  0.00  0.00    +0.000 N 
ATOM      4  C   UNL     1       5.852   3.967  14.125  0.00  0.00    +0.000 A 
ATOM      5  C   UNL     1       6.045   3.556  12.799  0.00  0.00    +0.000 A 
ATOM      6  C   UNL     1       7.083   4.145  12.077  0.00  0.00    +0.000 A 
ATOM      7  C   UNL     1       7.901   5.105  12.663  0.00  0.00    +0.000 A 
ATOM      8  C   UNL     1       7.697   5.505  13.990  0.00  0.00    +0.000 A 
ATOM      9  C   UNL     1       6.641   4.942  14.744  0.00  0.00    +0.000 A 
ATOM     10  H   UNL     1       4.211   2.854  14.866  0.00  0.00    +0.000 HD
ENDROOT
BRANCH   2  11
ATOM     11  C   UNL     1       4.198   3.977  17.340  0.00  0.00    +0.000 A 
ATOM     12  C   UNL     1       2.946   4.491  17.606  0.00  0.00    +0.000 A 
ATOM     13  C   UNL     1       2.519   3.989  18.865  0.00  0.00    +0.000 A 
ATOM     14  C   UNL     1       1.364   4.168  19.650  0.00  0.00    +0.000 A 
ATOM     15  C   UNL     1       1.270   3.523  20.888  0.00  0.00    +0.000 A 
ATOM     16  C   UNL     1       2.302   2.706  21.343  0.00  0.00    +0.000 A 
ATOM     17  C   UNL     1       3.456   2.505  20.577  0.00  0.00    +0.000 A 
ATOM     18  C   UNL     1       3.534   3.161  19.343  0.00  0.00    +0.000 A 
ATOM     19  N   UNL     1       4.530   3.156  18.390  0.00  0.00    +0.000 N 
ATOM     20  H   UNL     1       5.399   2.650  18.471  0.00  0.00    +0.000 HD
ENDBRANCH   2  11
BRANCH   1  21
ATOM     21  O   UNL     1       6.522   5.894  17.094  0.00  0.00    +0.000 OA
BRANCH  21  22
ATOM     22  C   UNL     1       7.521   5.313  17.927  0.00  0.00    +0.000 C 
BRANCH  22  24
ATOM     23  O   UNL     1       5.898   5.574  19.709  0.00  0.00    +0.000 OA
ATOM     24  C   UNL     1       7.066   5.465  19.366  0.00  0.00    +0.000 C 
BRANCH  24  25
ATOM     25  O   UNL     1       8.094   5.508  20.251  0.00  0.00    +0.000 OA
ATOM     26  H   UNL     1       7.754   5.597  21.169  0.00  0.00    +0.000 HD
ENDBRANCH  24  25
ENDBRANCH  22  24
ENDBRANCH  21  22
ENDBRANCH   1  21
TORSDOF 5
ENDMDL
MODEL 2
REMARK VINA RESULT:      -8.2      0.791      1.128
REMARK  Name = 
REMARK  5 active torsions:
REMARK  status: ('A' for Active; 'I' for Inactive)
REMARK    1  A    between atoms: C_2  and  O_3
REMARK    2  A    between atoms: C_2  and  C_4
REMARK    3  A    between atoms: C_4  and  O_5
REMARK    4  A    between atoms: O_5  and  C_6
REMARK    5  A    between atoms: C_7  and  C_8
REMARK                            x       y       z     vdW  Elec       q    Type
REMARK                         _______ _______ _______ _____ _____    ______ ____
ROOT
ATOM      1  C   UNL     1       6.138   5.055  15.962  0.00  0.00    +0.000 A 
ATOM      2  C   UNL     1       5.059   4.204  16.095  0.00  0.00    +0.000 A 
ATOM      3  N   UNL     1       4.901   3.565  14.892  0.00  0.00    +0.000 N 
ATOM      4  C   UNL     1       5.849   3.980  13.987  0.00  0.00    +0.000 A 
ATOM      5  C   UNL     1       6.040   3.597  12.653  0.00  0.00    +0.000 A 
ATOM      6  C   UNL     1       7.101   4.172  11.953  0.00  0.00    +0.000 A 
ATOM      7  C   UNL     1       7.943   5.091  12.569  0.00  0.00    +0.000 A 
ATOM      8  C   UNL     1       7.741   5.465  13.904  0.00  0.00    +0.000 A 
ATOM      9  C   UNL     1       6.663   4.915  14.636  0.00  0.00    +0.000 A 
ATOM     10  H   UNL     1       4.170   2.900  14.688  0.00  0.00    +0.000 HD
ENDROOT
BRANCH   2  11
ATOM     11  C   UNL     1       4.171   3.962  17.190  0.00  0.00    +0.000 A 
ATOM     12  C   UNL     1       3.650   2.773  17.657  0.00  0.00    +0.000 A 
ATOM     13  C   UNL     1       2.769   3.067  18.732  0.00  0.00    +0.000 A 
ATOM     14  C   UNL     1       1.955   2.284  19.573  0.00  0.00    +0.000 A 
ATOM     15  C   UNL     1       1.171   2.913  20.547  0.00  0.00    +0.000 A 
ATOM     16  C   UNL     1       1.195   4.298  20.692  0.00  0.00    +0.000 A 
ATOM     17  C   UNL     1       2.003   5.097  19.875  0.00  0.00    +0.000 A 
ATOM     18  C   UNL     1       2.778   4.451  18.904  0.00  0.00    +0.000 A 
ATOM     19  N   UNL     1       3.652   4.965  17.971  0.00  0.00    +0.000 N 
ATOM     20  H   UNL     1       3.851   5.947  17.851  0.00  0.00    +0.000 HD
ENDBRANCH   2  11
BRANCH   1  21
ATOM     21  O   UNL     1       6.554   5.812  17.009  0.00  0.00    +0.000 OA
BRANCH  21  22
ATOM     22  C   UNL     1       7.555   5.196  17.812  0.00  0.00    +0.000 C 
BRANCH  22  24
ATOM     23  O   UNL     1       6.027   5.517  19.666  0.00  0.00    +0.000 OA
ATOM     24  C   UNL     1       7.177   5.409  19.265  0.00  0.00    +0.000 C 
BRANCH  24  25
ATOM     25  O   UNL     1       8.250   5.510  20.089  0.00  0.00    +0.000 OA
ATOM     26  H   UNL     1       8.342   6.430  20.423  0.00  0.00    +0.000 HD
ENDBRANCH  24  25
ENDBRANCH  22  24
ENDBRANCH  21  22
ENDBRANCH   1  21
TORSDOF 5
ENDMDL
MODEL 3
REMARK VINA RESULT:      -8.1      4.226      5.540
REMARK  Name = 
REMARK  5 active torsions:
REMARK  status: ('A' for Active; 'I' for Inactive)
REMARK    1  A    between atoms: C_2  and  O_3
REMARK    2  A    between atoms: C_2  and  C_4
REMARK    3  A    between atoms: C_4  and  O_5
REMARK    4  A    between atoms: O_5  and  C_6
REMARK    5  A    between atoms: C_7  and  C_8
REMARK                            x       y       z     vdW  Elec       q    Type
REMARK                         _______ _______ _______ _____ _____    ______ ____
ROOT
ATOM      1  C   UNL     1       2.943   5.497  18.408  0.00  0.00    +0.000 A 
ATOM      2  C   UNL     1       2.879   6.876  18.409  0.00  0.00    +0.000 A 
ATOM      3  N   UNL     1       3.798   7.322  17.494  0.00  0.00    +0.000 N 
ATOM      4  C   UNL     1       4.452   6.268  16.902  0.00  0.00    +0.000 A 
ATOM      5  C   UNL     1       5.464   6.275  15.933  0.00  0.00    +0.000 A 
ATOM      6  C   UNL     1       5.952   5.046  15.489  0.00  0.00    +0.000 A 
ATOM      7  C   UNL     1       5.441   3.854  15.992  0.00  0.00    +0.000 A 
ATOM      8  C   UNL     1       4.429   3.863  16.960  0.00  0.00    +0.000 A 
ATOM      9  C   UNL     1       3.925   5.092  17.445  0.00  0.00    +0.000 A 
ATOM     10  H   UNL     1       3.988   8.294  17.300  0.00  0.00    +0.000 HD
ENDROOT
BRANCH   2  11
ATOM     11  C   UNL     1       2.091   7.788  19.180  0.00  0.00    +0.000 A 
ATOM     12  C   UNL     1       1.464   8.955  18.795  0.00  0.00    +0.000 A 
ATOM     13  C   UNL     1       0.858   9.532  19.944  0.00  0.00    +0.000 A 
ATOM     14  C   UNL     1       0.111  10.703  20.173  0.00  0.00    +0.000 A 
ATOM     15  C   UNL     1      -0.331  10.992  21.469  0.00  0.00    +0.000 A 
ATOM     16  C   UNL     1      -0.042  10.131  22.525  0.00  0.00    +0.000 A 
ATOM     17  C   UNL     1       0.692   8.957  22.321  0.00  0.00    +0.000 A 
ATOM     18  C   UNL     1       1.128   8.686  21.019  0.00  0.00    +0.000 A 
ATOM     19  N   UNL     1       1.858   7.628  20.523  0.00  0.00    +0.000 N 
ATOM     20  H   UNL     1       2.207   6.861  21.079  0.00  0.00    +0.000 HD
ENDBRANCH   2  11
BRANCH   1  21
ATOM     21  O   UNL     1       2.124   4.767  19.205  0.00  0.00    +0.000 OA
BRANCH  21  22
ATOM     22  C   UNL     1       2.785   4.128  20.292  0.00  0.00    +0.000 C 
BRANCH  22  24
ATOM     23  O   UNL     1       1.936   2.913  22.211  0.00  0.00    +0.000 OA
ATOM     24  C   UNL     1       1.733   3.402  21.109  0.00  0.00    +0.000 C 
BRANCH  24  25
ATOM     25  O   UNL     1       0.536   3.308  20.479  0.00  0.00    +0.000 OA
ATOM     26  H   UNL     1      -0.088   3.987  20.822  0.00  0.00    +0.000 HD
ENDBRANCH  24  25
ENDBRANCH  22  24
ENDBRANCH  21  22
ENDBRANCH   1  21
TORSDOF 5
ENDMDL
MODEL 4
REMARK VINA RESULT:      -7.9      4.590      6.181
REMARK  Name = 
REMARK  5 active torsions:
REMARK  status: ('A' for Active; 'I' for Inactive)
REMARK    1  A    between atoms: C_2  and  O_3
REMARK    2  A    between atoms: C_2  and  C_4
REMARK    3  A    between atoms: C_4  and  O_5
REMARK    4  A    between atoms: O_5  and  C_6
REMARK    5  A    between atoms: C_7  and  C_8
REMARK                            x       y       z     vdW  Elec       q    Type
REMARK                         _______ _______ _______ _____ _____    ______ ____
ROOT
ATOM      1  C   UNL     1       2.845   5.905  19.577  0.00  0.00    +0.000 A 
ATOM      2  C   UNL     1       2.471   7.203  19.291  0.00  0.00    +0.000 A 
ATOM      3  N   UNL     1       3.102   7.555  18.125  0.00  0.00    +0.000 N 
ATOM      4  C   UNL     1       3.872   6.520  17.652  0.00  0.00    +0.000 A 
ATOM      5  C   UNL     1       4.683   6.459  16.511  0.00  0.00    +0.000 A 
ATOM      6  C   UNL     1       5.357   5.266  16.252  0.00  0.00    +0.000 A 
ATOM      7  C   UNL     1       5.219   4.173  17.100  0.00  0.00    +0.000 A 
ATOM      8  C   UNL     1       4.405   4.248  18.237  0.00  0.00    +0.000 A 
ATOM      9  C   UNL     1       3.722   5.449  18.539  0.00  0.00    +0.000 A 
ATOM     10  H   UNL     1       3.032   8.463  17.688  0.00  0.00    +0.000 HD
ENDROOT
BRANCH   2  11
ATOM     11  C   UNL     1       1.634   8.126  19.994  0.00  0.00    +0.000 A 
ATOM     12  C   UNL     1       1.029   9.283  19.551  0.00  0.00    +0.000 A 
ATOM     13  C   UNL     1       0.351   9.878  20.649  0.00  0.00    +0.000 A 
ATOM     14  C   UNL     1      -0.413  11.050  20.809  0.00  0.00    +0.000 A 
ATOM     15  C   UNL     1      -0.935  11.360  22.069  0.00  0.00    +0.000 A 
ATOM     16  C   UNL     1      -0.710  10.520  23.157  0.00  0.00    +0.000 A 
ATOM     17  C   UNL     1       0.038   9.345  23.021  0.00  0.00    +0.000 A 
ATOM     18  C   UNL     1       0.555   9.052  21.754  0.00  0.00    +0.000 A 
ATOM     19  N   UNL     1       1.318   7.988  21.324  0.00  0.00    +0.000 N 
ATOM     20  H   UNL     1       1.634   7.233  21.914  0.00  0.00    +0.000 HD
ENDBRANCH   2  11
BRANCH   1  21
ATOM     21  O   UNL     1       2.355   5.270  20.671  0.00  0.00    +0.000 OA
BRANCH  21  22
ATOM     22  C   UNL     1       1.240   4.425  20.404  0.00  0.00    +0.000 C 
BRANCH  22  24
ATOM     23  O   UNL     1       1.726   2.771  22.108  0.00  0.00    +0.000 OA
ATOM     24  C   UNL     1       1.575   3.041  20.925  0.00  0.00    +0.000 C 
BRANCH  24  25
ATOM     25  O   UNL     1       1.733   2.122  19.941  0.00  0.00    +0.000 OA
ATOM     26  H   UNL     1       2.377   2.442  19.271  0.00  0.00    +0.000 HD
ENDBRANCH  24  25
ENDBRANCH  22  24
ENDBRANCH  21  22
ENDBRANCH   1  21
TORSDOF 5
ENDMDL
MODEL 5
REMARK VINA RESULT:      -7.9      4.516      6.060
REMARK  Name = 
REMARK  5 active torsions:
REMARK  status: ('A' for Active; 'I' for Inactive)
REMARK    1  A    between atoms: C_2  and  O_3
REMARK    2  A    between atoms: C_2  and  C_4
REMARK    3  A    between atoms: C_4  and  O_5
REMARK    4  A    between atoms: O_5  and  C_6
REMARK    5  A    between atoms: C_7  and  C_8
REMARK                            x       y       z     vdW  Elec       q    Type
REMARK                         _______ _______ _______ _____ _____    ______ ____
ROOT
ATOM      1  C   UNL     1       2.586   5.736  18.781  0.00  0.00    +0.000 A 
ATOM      2  C   UNL     1       2.552   7.112  18.887  0.00  0.00    +0.000 A 
ATOM      3  N   UNL     1       3.442   7.607  17.968  0.00  0.00    +0.000 N 
ATOM      4  C   UNL     1       4.048   6.589  17.272  0.00  0.00    +0.000 A 
ATOM      5  C   UNL     1       5.019   6.650  16.264  0.00  0.00    +0.000 A 
ATOM      6  C   UNL     1       5.461   5.449  15.709  0.00  0.00    +0.000 A 
ATOM      7  C   UNL     1       4.945   4.233  16.144  0.00  0.00    +0.000 A 
ATOM      8  C   UNL     1       3.975   4.187  17.153  0.00  0.00    +0.000 A 
ATOM      9  C   UNL     1       3.518   5.385  17.749  0.00  0.00    +0.000 A 
ATOM     10  H   UNL     1       3.645   8.588  17.839  0.00  0.00    +0.000 HD
ENDROOT
BRANCH   2  11
ATOM     11  C   UNL     1       1.817   7.978  19.756  0.00  0.00    +0.000 A 
ATOM     12  C   UNL     1       1.498   7.827  21.090  0.00  0.00    +0.000 A 
ATOM     13  C   UNL     1       0.701   8.935  21.483  0.00  0.00    +0.000 A 
ATOM     14  C   UNL     1       0.080   9.316  22.688  0.00  0.00    +0.000 A 
ATOM     15  C   UNL     1      -0.674  10.494  22.728  0.00  0.00    +0.000 A 
ATOM     16  C   UNL     1      -0.807  11.290  21.593  0.00  0.00    +0.000 A 
ATOM     17  C   UNL     1      -0.192  10.938  20.386  0.00  0.00    +0.000 A 
ATOM     18  C   UNL     1       0.555   9.755  20.364  0.00  0.00    +0.000 A 
ATOM     19  N   UNL     1       1.259   9.161  19.338  0.00  0.00    +0.000 N 
ATOM     20  H   UNL     1       1.321   9.525  18.399  0.00  0.00    +0.000 HD
ENDBRANCH   2  11
BRANCH   1  21
ATOM     21  O   UNL     1       1.785   4.963  19.556  0.00  0.00    +0.000 OA
BRANCH  21  22
ATOM     22  C   UNL     1       2.469   4.277  20.600  0.00  0.00    +0.000 C 
BRANCH  22  24
ATOM     23  O   UNL     1       1.734   2.599  22.187  0.00  0.00    +0.000 OA
ATOM     24  C   UNL     1       1.520   3.239  21.168  0.00  0.00    +0.000 C 
BRANCH  24  25
ATOM     25  O   UNL     1       0.412   3.053  20.409  0.00  0.00    +0.000 OA
ATOM     26  H   UNL     1      -0.346   2.775  20.969  0.00  0.00    +0.000 HD
ENDBRANCH  24  25
ENDBRANCH  22  24
ENDBRANCH  21  22
ENDBRANCH   1  21
TORSDOF 5
ENDMDL
MODEL 6
REMARK VINA RESULT:      -7.9      0.995      6.338
REMARK  Name = 
REMARK  5 active torsions:
REMARK  status: ('A' for Active; 'I' for Inactive)
REMARK    1  A    between atoms: C_2  and  O_3
REMARK    2  A    between atoms: C_2  and  C_4
REMARK    3  A    between atoms: C_4  and  O_5
REMARK    4  A    between atoms: O_5  and  C_6
REMARK    5  A    between atoms: C_7  and  C_8
REMARK                            x       y       z     vdW  Elec       q    Type
REMARK                         _______ _______ _______ _____ _____    ______ ____
ROOT
ATOM      1  C   UNL     1       4.626   3.858  18.550  0.00  0.00    +0.000 A 
ATOM      2  C   UNL     1       4.355   3.867  17.197  0.00  0.00    +0.000 A 
ATOM      3  N   UNL     1       3.027   3.557  17.051  0.00  0.00    +0.000 N 
ATOM      4  C   UNL     1       2.434   3.351  18.274  0.00  0.00    +0.000 A 
ATOM      5  C   UNL     1       1.111   3.005  18.578  0.00  0.00    +0.000 A 
ATOM      6  C   UNL     1       0.764   2.867  19.922  0.00  0.00    +0.000 A 
ATOM      7  C   UNL     1       1.706   3.074  20.924  0.00  0.00    +0.000 A 
ATOM      8  C   UNL     1       3.026   3.419  20.605  0.00  0.00    +0.000 A 
ATOM      9  C   UNL     1       3.415   3.549  19.252  0.00  0.00    +0.000 A 
ATOM     10  H   UNL     1       2.554   3.466  16.164  0.00  0.00    +0.000 HD
ENDROOT
BRANCH   2  11
ATOM     11  C   UNL     1       5.196   4.097  16.063  0.00  0.00    +0.000 A 
ATOM     12  C   UNL     1       6.228   4.997  15.897  0.00  0.00    +0.000 A 
ATOM     13  C   UNL     1       6.710   4.878  14.566  0.00  0.00    +0.000 A 
ATOM     14  C   UNL     1       7.717   5.529  13.828  0.00  0.00    +0.000 A 
ATOM     15  C   UNL     1       7.925   5.174  12.490  0.00  0.00    +0.000 A 
ATOM     16  C   UNL     1       7.151   4.184  11.891  0.00  0.00    +0.000 A 
ATOM     17  C   UNL     1       6.150   3.516  12.606  0.00  0.00    +0.000 A 
ATOM     18  C   UNL     1       5.954   3.886  13.942  0.00  0.00    +0.000 A 
ATOM     19  N   UNL     1       5.059   3.416  14.878  0.00  0.00    +0.000 N 
ATOM     20  H   UNL     1       4.371   2.699  14.704  0.00  0.00    +0.000 HD
ENDBRANCH   2  11
BRANCH   1  21
ATOM     21  O   UNL     1       5.868   4.156  19.009  0.00  0.00    +0.000 OA
BRANCH  21  22
ATOM     22  C   UNL     1       6.027   5.507  19.429  0.00  0.00    +0.000 C 
BRANCH  22  24
ATOM     23  O   UNL     1       8.125   6.428  18.639  0.00  0.00    +0.000 OA
ATOM     24  C   UNL     1       7.514   5.799  19.490  0.00  0.00    +0.000 C 
BRANCH  24  25
ATOM     25  O   UNL     1       8.122   5.257  20.574  0.00  0.00    +0.000 OA
ATOM     26  H   UNL     1       8.034   4.278  20.564  0.00  0.00    +0.000 HD
ENDBRANCH  24  25
ENDBRANCH  22  24
ENDBRANCH  21  22
ENDBRANCH   1  21
TORSDOF 5
ENDMDL
MODEL 7
REMARK VINA RESULT:      -7.9      4.069      5.316
REMARK  Name = 
REMARK  5 active torsions:
REMARK  status: ('A' for Active; 'I' for Inactive)
REMARK    1  A    between atoms: C_2  and  O_3
REMARK    2  A    between atoms: C_2  and  C_4
REMARK    3  A    between atoms: C_4  and  O_5
REMARK    4  A    between atoms: O_5  and  C_6
REMARK    5  A    between atoms: C_7  and  C_8
REMARK                            x       y       z     vdW  Elec       q    Type
REMARK                         _______ _______ _______ _____ _____    ______ ____
ROOT
ATOM      1  C   UNL     1       3.311   5.311  18.023  0.00  0.00    +0.000 A 
ATOM      2  C   UNL     1       3.242   6.689  18.066  0.00  0.00    +0.000 A 
ATOM      3  N   UNL     1       4.200   7.165  17.207  0.00  0.00    +0.000 N 
ATOM      4  C   UNL     1       4.883   6.132  16.611  0.00  0.00    +0.000 A 
ATOM      5  C   UNL     1       5.937   6.172  15.689  0.00  0.00    +0.000 A 
ATOM      6  C   UNL     1       6.448   4.958  15.228  0.00  0.00    +0.000 A 
ATOM      7  C   UNL     1       5.918   3.751  15.670  0.00  0.00    +0.000 A 
ATOM      8  C   UNL     1       4.864   3.726  16.591  0.00  0.00    +0.000 A 
ATOM      9  C   UNL     1       4.335   4.938  17.093  0.00  0.00    +0.000 A 
ATOM     10  H   UNL     1       4.395   8.144  17.053  0.00  0.00    +0.000 HD
ENDROOT
BRANCH   2  11
ATOM     11  C   UNL     1       2.418   7.575  18.829  0.00  0.00    +0.000 A 
ATOM     12  C   UNL     1       1.774   8.733  18.445  0.00  0.00    +0.000 A 
ATOM     13  C   UNL     1       1.132   9.282  19.586  0.00  0.00    +0.000 A 
ATOM     14  C   UNL     1       0.354  10.434  19.812  0.00  0.00    +0.000 A 
ATOM     15  C   UNL     1      -0.123  10.698  21.101  0.00  0.00    +0.000 A 
ATOM     16  C   UNL     1       0.161   9.831  22.153  0.00  0.00    +0.000 A 
ATOM     17  C   UNL     1       0.925   8.675  21.952  0.00  0.00    +0.000 A 
ATOM     18  C   UNL     1       1.395   8.429  20.657  0.00  0.00    +0.000 A 
ATOM     19  N   UNL     1       2.159   7.393  20.165  0.00  0.00    +0.000 N 
ATOM     20  H   UNL     1       2.512   6.627  20.720  0.00  0.00    +0.000 HD
ENDBRANCH   2  11
BRANCH   1  21
ATOM     21  O   UNL     1       2.458   4.554  18.759  0.00  0.00    +0.000 OA
BRANCH  21  22
ATOM     22  C   UNL     1       1.390   3.983  18.010  0.00  0.00    +0.000 C 
BRANCH  22  24
ATOM     23  O   UNL     1       0.229   2.104  19.008  0.00  0.00    +0.000 OA
ATOM     24  C   UNL     1       1.229   2.544  18.459  0.00  0.00    +0.000 C 
BRANCH  24  25
ATOM     25  O   UNL     1       2.328   1.784  18.228  0.00  0.00    +0.000 OA
ATOM     26  H   UNL     1       3.135   2.345  18.200  0.00  0.00    +0.000 HD
ENDBRANCH  24  25
ENDBRANCH  22  24
ENDBRANCH  21  22
ENDBRANCH   1  21
TORSDOF 5
ENDMDL
MODEL 8
REMARK VINA RESULT:      -7.8      1.088      6.328
REMARK  Name = 
REMARK  5 active torsions:
REMARK  status: ('A' for Active; 'I' for Inactive)
REMARK    1  A    between atoms: C_2  and  O_3
REMARK    2  A    between atoms: C_2  and  C_4
REMARK    3  A    between atoms: C_4  and  O_5
REMARK    4  A    between atoms: O_5  and  C_6
REMARK    5  A    between atoms: C_7  and  C_8
REMARK                            x       y       z     vdW  Elec       q    Type
REMARK                         _______ _______ _______ _____ _____    ______ ____
ROOT
ATOM      1  C   UNL     1       4.536   3.785  18.478  0.00  0.00    +0.000 A 
ATOM      2  C   UNL     1       4.183   3.808  17.143  0.00  0.00    +0.000 A 
ATOM      3  N   UNL     1       2.842   3.527  17.078  0.00  0.00    +0.000 N 
ATOM      4  C   UNL     1       2.321   3.324  18.334  0.00  0.00    +0.000 A 
ATOM      5  C   UNL     1       1.011   3.004  18.717  0.00  0.00    +0.000 A 
ATOM      6  C   UNL     1       0.745   2.864  20.079  0.00  0.00    +0.000 A 
ATOM      7  C   UNL     1       1.751   3.045  21.022  0.00  0.00    +0.000 A 
ATOM      8  C   UNL     1       3.055   3.365  20.624  0.00  0.00    +0.000 A 
ATOM      9  C   UNL     1       3.363   3.495  19.250  0.00  0.00    +0.000 A 
ATOM     10  H   UNL     1       2.314   3.452  16.221  0.00  0.00    +0.000 HD
ENDROOT
BRANCH   2  11
ATOM     11  C   UNL     1       4.957   4.028  15.961  0.00  0.00    +0.000 A 
ATOM     12  C   UNL     1       4.870   3.424  14.724  0.00  0.00    +0.000 A 
ATOM     13  C   UNL     1       5.904   3.948  13.902  0.00  0.00    +0.000 A 
ATOM     14  C   UNL     1       6.316   3.709  12.577  0.00  0.00    +0.000 A 
ATOM     15  C   UNL     1       7.419   4.402  12.067  0.00  0.00    +0.000 A 
ATOM     16  C   UNL     1       8.104   5.325  12.855  0.00  0.00    +0.000 A 
ATOM     17  C   UNL     1       7.707   5.586  14.172  0.00  0.00    +0.000 A 
ATOM     18  C   UNL     1       6.604   4.881  14.666  0.00  0.00    +0.000 A 
ATOM     19  N   UNL     1       5.996   4.924  15.901  0.00  0.00    +0.000 N 
ATOM     20  H   UNL     1       6.298   5.505  16.669  0.00  0.00    +0.000 HD
ENDBRANCH   2  11
BRANCH   1  21
ATOM     21  O   UNL     1       5.809   4.053  18.860  0.00  0.00    +0.000 OA
BRANCH  21  22
ATOM     22  C   UNL     1       5.987   5.346  19.430  0.00  0.00    +0.000 C 
BRANCH  22  24
ATOM     23  O   UNL     1       7.912   6.167  18.206  0.00  0.00    +0.000 OA
ATOM     24  C   UNL     1       7.442   5.734  19.248  0.00  0.00    +0.000 C 
BRANCH  24  25
ATOM     25  O   UNL     1       8.197   5.515  20.354  0.00  0.00    +0.000 OA
ATOM     26  H   UNL     1       9.114   5.266  20.101  0.00  0.00    +0.000 HD
ENDBRANCH  24  25
ENDBRANCH  22  24
ENDBRANCH  21  22
ENDBRANCH   1  21
TORSDOF 5
ENDMDL
MODEL 9
REMARK VINA RESULT:      -7.8      1.042      1.221
REMARK  Name = 
REMARK  5 active torsions:
REMARK  status: ('A' for Active; 'I' for Inactive)
REMARK    1  A    between atoms: C_2  and  O_3
REMARK    2  A    between atoms: C_2  and  C_4
REMARK    3  A    between atoms: C_4  and  O_5
REMARK    4  A    between atoms: O_5  and  C_6
REMARK    5  A    between atoms: C_7  and  C_8
REMARK                            x       y       z     vdW  Elec       q    Type
REMARK                         _______ _______ _______ _____ _____    ______ ____
ROOT
ATOM      1  C   UNL     1       6.241   4.915  16.144  0.00  0.00    +0.000 A 
ATOM      2  C   UNL     1       5.114   4.125  16.247  0.00  0.00    +0.000 A 
ATOM      3  N   UNL     1       4.886   3.586  15.006  0.00  0.00    +0.000 N 
ATOM      4  C   UNL     1       5.837   4.006  14.107  0.00  0.00    +0.000 A 
ATOM      5  C   UNL     1       5.970   3.709  12.744  0.00  0.00    +0.000 A 
ATOM      6  C   UNL     1       7.048   4.266  12.056  0.00  0.00    +0.000 A 
ATOM      7  C   UNL     1       7.963   5.084  12.711  0.00  0.00    +0.000 A 
ATOM      8  C   UNL     1       7.817   5.371  14.074  0.00  0.00    +0.000 A 
ATOM      9  C   UNL     1       6.724   4.839  14.796  0.00  0.00    +0.000 A 
ATOM     10  H   UNL     1       4.109   2.984  14.778  0.00  0.00    +0.000 HD
ENDROOT
BRANCH   2  11
ATOM     11  C   UNL     1       4.239   3.859  17.347  0.00  0.00    +0.000 A 
ATOM     12  C   UNL     1       2.905   4.170  17.509  0.00  0.00    +0.000 A 
ATOM     13  C   UNL     1       2.505   3.746  18.805  0.00  0.00    +0.000 A 
ATOM     14  C   UNL     1       1.297   3.805  19.525  0.00  0.00    +0.000 A 
ATOM     15  C   UNL     1       1.250   3.298  20.828  0.00  0.00    +0.000 A 
ATOM     16  C   UNL     1       2.382   2.734  21.411  0.00  0.00    +0.000 A 
ATOM     17  C   UNL     1       3.592   2.655  20.713  0.00  0.00    +0.000 A 
ATOM     18  C   UNL     1       3.621   3.170  19.412  0.00  0.00    +0.000 A 
ATOM     19  N   UNL     1       4.651   3.233  18.498  0.00  0.00    +0.000 N 
ATOM     20  H   UNL     1       5.589   2.902  18.668  0.00  0.00    +0.000 HD
ENDBRANCH   2  11
BRANCH   1  21
ATOM     21  O   UNL     1       6.731   5.566  17.229  0.00  0.00    +0.000 OA
BRANCH  21  22
ATOM     22  C   UNL     1       6.564   6.979  17.185  0.00  0.00    +0.000 C 
BRANCH  22  24
ATOM     23  O   UNL     1       8.132   8.733  17.767  0.00  0.00    +0.000 OA
ATOM     24  C   UNL     1       7.709   7.603  17.960  0.00  0.00    +0.000 C 
BRANCH  24  25
ATOM     25  O   UNL     1       8.256   6.764  18.875  0.00  0.00    +0.000 OA
ATOM     26  H   UNL     1       7.698   6.724  19.683  0.00  0.00    +0.000 HD
ENDBRANCH  24  25
ENDBRANCH  22  24
ENDBRANCH  21  22
ENDBRANCH   1  21
TORSDOF 5
ENDMDL
