MODEL 1
REMARK VINA RESULT:      -5.8      0.000      0.000
REMARK  Name = 
REMARK  7 active torsions:
REMARK  status: ('A' for Active; 'I' for Inactive)
REMARK    1  A    between atoms: C_1  and  N_2
REMARK    2  A    between atoms: C_4  and  S_5
REMARK    3  A    between atoms: S_5  and  N_6
REMARK    4  A    between atoms: N_11  and  C_12
REMARK    5  A    between atoms: C_12  and  C_14
REMARK    6  A    between atoms: C_14  and  C_15
REMARK    7  A    between atoms: C_15  and  S_16
REMARK                            x       y       z     vdW  Elec       q    Type
REMARK                         _______ _______ _______ _____ _____    ______ ____
ROOT
ATOM      1  C   UNL     1       4.146   6.916  17.422  0.00  0.00    +0.000 C 
ATOM      2  N   UNL     1       4.200   5.701  18.210  0.00  0.00    +0.000 N 
ATOM      3  N   UNL     1       2.998   5.300  18.780  0.00  0.00    +0.000 NA
ATOM      4  C   UNL     1       3.188   4.169  19.404  0.00  0.00    +0.000 A 
ATOM      5  S   UNL     1       4.804   3.494  19.361  0.00  0.00    +0.000 S 
ATOM      6  C   UNL     1       5.315   4.894  18.397  0.00  0.00    +0.000 A 
ATOM      7  N   UNL     1       6.560   4.870  18.111  0.00  0.00    +0.000 NA
ENDROOT
BRANCH   4   8
ATOM      8  S   UNL     1       1.857   3.357  20.271  0.00  0.00    +0.000 S 
ATOM      9  O   UNL     1       0.805   4.340  20.407  0.00  0.00    +0.000 OA
ATOM     10  O   UNL     1       1.658   2.087  19.607  0.00  0.00    +0.000 OA
BRANCH   8  11
ATOM     11  N   UNL     1       2.363   2.995  21.842  0.00  0.00    +0.000 NA
ATOM     12  H   UNL     1       3.279   3.378  22.068  0.00  0.00    +0.000 HD
ATOM     13  H   UNL     1       2.200   2.026  22.111  0.00  0.00    +0.000 HD
ENDBRANCH   8  11
ENDBRANCH   4   8
BRANCH   7  14
ATOM     14  C   UNL     1       7.185   5.838  17.381  0.00  0.00    +0.000 C 
ATOM     15  O   UNL     1       7.331   5.832  16.166  0.00  0.00    +0.000 OA
BRANCH  14  16
ATOM     16  C   UNL     1       7.806   6.915  18.250  0.00  0.00    +0.000 C 
BRANCH  16  17
ATOM     17  C   UNL     1       7.705   8.267  17.561  0.00  0.00    +0.000 C 
BRANCH  17  18
ATOM     18  S   UNL     1       8.679   9.525  18.440  0.00  0.00    +0.000 S 
ATOM     19  H   UNL     1       7.792  10.525  18.327  0.00  0.00    +0.000 HD
ENDBRANCH  17  18
ENDBRANCH  16  17
ENDBRANCH  14  16
ENDBRANCH   7  14
TORSDOF 6
ENDMDL
MODEL 2
REMARK VINA RESULT:      -5.7      2.759      6.424
REMARK  Name = 
REMARK  7 active torsions:
REMARK  status: ('A' for Active; 'I' for Inactive)
REMARK    1  A    between atoms: C_1  and  N_2
REMARK    2  A    between atoms: C_4  and  S_5
REMARK    3  A    between atoms: S_5  and  N_6
REMARK    4  A    between atoms: N_11  and  C_12
REMARK    5  A    between atoms: C_12  and  C_14
REMARK    6  A    between atoms: C_14  and  C_15
REMARK    7  A    between atoms: C_15  and  S_16
REMARK                            x       y       z     vdW  Elec       q    Type
REMARK                         _______ _______ _______ _____ _____    ______ ____
ROOT
ATOM      1  C   UNL     1       3.497   2.005  17.698  0.00  0.00    +0.000 C 
ATOM      2  N   UNL     1       3.961   3.367  17.530  0.00  0.00    +0.000 N 
ATOM      3  N   UNL     1       5.210   3.508  16.939  0.00  0.00    +0.000 NA
ATOM      4  C   UNL     1       5.467   4.781  16.801  0.00  0.00    +0.000 A 
ATOM      5  S   UNL     1       4.245   5.907  17.359  0.00  0.00    +0.000 S 
ATOM      6  C   UNL     1       3.257   4.518  17.856  0.00  0.00    +0.000 A 
ATOM      7  N   UNL     1       2.157   4.866  18.408  0.00  0.00    +0.000 NA
ENDROOT
BRANCH   4   8
ATOM      8  S   UNL     1       7.000   5.343  16.085  0.00  0.00    +0.000 S 
ATOM      9  O   UNL     1       8.021   4.428  16.547  0.00  0.00    +0.000 OA
ATOM     10  O   UNL     1       6.732   5.569  14.681  0.00  0.00    +0.000 OA
BRANCH   8  11
ATOM     11  N   UNL     1       7.395   6.850  16.739  0.00  0.00    +0.000 NA
ATOM     12  H   UNL     1       8.121   7.337  16.217  0.00  0.00    +0.000 HD
ATOM     13  H   UNL     1       7.496   6.842  17.753  0.00  0.00    +0.000 HD
ENDBRANCH   8  11
ENDBRANCH   4   8
BRANCH   7  14
ATOM     14  C   UNL     1       1.235   3.978  18.874  0.00  0.00    +0.000 C 
ATOM     15  O   UNL     1       0.625   3.160  18.196  0.00  0.00    +0.000 OA
BRANCH  14  16
ATOM     16  C   UNL     1       0.932   4.170  20.348  0.00  0.00    +0.000 C 
BRANCH  16  17
ATOM     17  C   UNL     1       1.218   2.886  21.112  0.00  0.00    +0.000 C 
BRANCH  17  18
ATOM     18  S   UNL     1       3.006   2.586  21.245  0.00  0.00    +0.000 S 
ATOM     19  H   UNL     1       3.406   3.740  20.690  0.00  0.00    +0.000 HD
ENDBRANCH  17  18
ENDBRANCH  16  17
ENDBRANCH  14  16
ENDBRANCH   7  14
TORSDOF 6
ENDMDL
MODEL 3
REMARK VINA RESULT:      -5.5      2.430      6.181
REMARK  Name = 
REMARK  7 active torsions:
REMARK  status: ('A' for Active; 'I' for Inactive)
REMARK    1  A    between atoms: C_1  and  N_2
REMARK    2  A    between atoms: C_4  and  S_5
REMARK    3  A    between atoms: S_5  and  N_6
REMARK    4  A    between atoms: N_11  and  C_12
REMARK    5  A    between atoms: C_12  and  C_14
REMARK    6  A    between atoms: C_14  and  C_15
REMARK    7  A    between atoms: C_15  and  S_16
REMARK                            x       y       z     vdW  Elec       q    Type
REMARK                         _______ _______ _______ _____ _____    ______ ____
ROOT
ATOM      1  C   UNL     1       2.333   6.535  18.494  0.00  0.00    +0.000 C 
ATOM      2  N   UNL     1       3.517   5.855  18.011  0.00  0.00    +0.000 N 
ATOM      3  N   UNL     1       4.669   6.628  17.942  0.00  0.00    +0.000 NA
ATOM      4  C   UNL     1       5.659   5.872  17.550  0.00  0.00    +0.000 A 
ATOM      5  S   UNL     1       5.300   4.186  17.236  0.00  0.00    +0.000 S 
ATOM      6  C   UNL     1       3.609   4.512  17.668  0.00  0.00    +0.000 A 
ATOM      7  N   UNL     1       2.862   3.482  17.553  0.00  0.00    +0.000 NA
ENDROOT
BRANCH   4   8
ATOM      8  S   UNL     1       7.300   6.536  17.335  0.00  0.00    +0.000 S 
ATOM      9  O   UNL     1       8.030   6.206  18.540  0.00  0.00    +0.000 OA
ATOM     10  O   UNL     1       7.735   6.117  16.020  0.00  0.00    +0.000 OA
BRANCH   8  11
ATOM     11  N   UNL     1       7.213   8.222  17.290  0.00  0.00    +0.000 NA
ATOM     12  H   UNL     1       6.317   8.569  16.950  0.00  0.00    +0.000 HD
ATOM     13  H   UNL     1       8.045   8.665  16.903  0.00  0.00    +0.000 HD
ENDBRANCH   8  11
ENDBRANCH   4   8
BRANCH   7  14
ATOM     14  C   UNL     1       1.526   3.486  17.825  0.00  0.00    +0.000 C 
ATOM     15  O   UNL     1       0.682   4.161  17.249  0.00  0.00    +0.000 OA
BRANCH  14  16
ATOM     16  C   UNL     1       1.173   2.630  19.026  0.00  0.00    +0.000 C 
BRANCH  16  17
ATOM     17  C   UNL     1       0.968   3.507  20.252  0.00  0.00    +0.000 C 
BRANCH  17  18
ATOM     18  S   UNL     1       2.132   3.066  21.577  0.00  0.00    +0.000 S 
ATOM     19  H   UNL     1       2.760   2.080  20.919  0.00  0.00    +0.000 HD
ENDBRANCH  17  18
ENDBRANCH  16  17
ENDBRANCH  14  16
ENDBRANCH   7  14
TORSDOF 6
ENDMDL
MODEL 4
REMARK VINA RESULT:      -5.5      2.749      3.527
REMARK  Name = 
REMARK  7 active torsions:
REMARK  status: ('A' for Active; 'I' for Inactive)
REMARK    1  A    between atoms: C_1  and  N_2
REMARK    2  A    between atoms: C_4  and  S_5
REMARK    3  A    between atoms: S_5  and  N_6
REMARK    4  A    between atoms: N_11  and  C_12
REMARK    5  A    between atoms: C_12  and  C_14
REMARK    6  A    between atoms: C_14  and  C_15
REMARK    7  A    between atoms: C_15  and  S_16
REMARK                            x       y       z     vdW  Elec       q    Type
REMARK                         _______ _______ _______ _____ _____    ______ ____
ROOT
ATOM      1  C   UNL     1       4.662   6.716  17.094  0.00  0.00    +0.000 C 
ATOM      2  N   UNL     1       4.259   5.509  17.787  0.00  0.00    +0.000 N 
ATOM      3  N   UNL     1       3.319   5.679  18.795  0.00  0.00    +0.000 NA
ATOM      4  C   UNL     1       3.013   4.509  19.284  0.00  0.00    +0.000 A 
ATOM      5  S   UNL     1       3.813   3.116  18.584  0.00  0.00    +0.000 S 
ATOM      6  C   UNL     1       4.686   4.219  17.500  0.00  0.00    +0.000 A 
ATOM      7  N   UNL     1       5.506   3.611  16.732  0.00  0.00    +0.000 NA
ENDROOT
BRANCH   4   8
ATOM      8  S   UNL     1       1.837   4.341  20.615  0.00  0.00    +0.000 S 
ATOM      9  O   UNL     1       2.505   3.584  21.651  0.00  0.00    +0.000 OA
ATOM     10  O   UNL     1       1.293   5.662  20.841  0.00  0.00    +0.000 OA
BRANCH   8  11
ATOM     11  N   UNL     1       0.548   3.381  20.095  0.00  0.00    +0.000 NA
ATOM     12  H   UNL     1      -0.329   3.598  20.564  0.00  0.00    +0.000 HD
ATOM     13  H   UNL     1       0.782   2.393  20.009  0.00  0.00    +0.000 HD
ENDBRANCH   8  11
ENDBRANCH   4   8
BRANCH   7  14
ATOM     14  C   UNL     1       6.291   4.245  15.815  0.00  0.00    +0.000 C 
ATOM     15  O   UNL     1       7.407   4.703  16.025  0.00  0.00    +0.000 OA
BRANCH  14  16
ATOM     16  C   UNL     1       5.590   4.442  14.484  0.00  0.00    +0.000 C 
BRANCH  16  17
ATOM     17  C   UNL     1       6.445   3.887  13.355  0.00  0.00    +0.000 C 
BRANCH  17  18
ATOM     18  S   UNL     1       5.414   3.135  12.060  0.00  0.00    +0.000 S 
ATOM     19  H   UNL     1       4.413   2.738  12.860  0.00  0.00    +0.000 HD
ENDBRANCH  17  18
ENDBRANCH  16  17
ENDBRANCH  14  16
ENDBRANCH   7  14
TORSDOF 6
ENDMDL
MODEL 5
REMARK VINA RESULT:      -5.5      1.012      1.020
REMARK  Name = 
REMARK  7 active torsions:
REMARK  status: ('A' for Active; 'I' for Inactive)
REMARK    1  A    between atoms: C_1  and  N_2
REMARK    2  A    between atoms: C_4  and  S_5
REMARK    3  A    between atoms: S_5  and  N_6
REMARK    4  A    between atoms: N_11  and  C_12
REMARK    5  A    between atoms: C_12  and  C_14
REMARK    6  A    between atoms: C_14  and  C_15
REMARK    7  A    between atoms: C_15  and  S_16
REMARK                            x       y       z     vdW  Elec       q    Type
REMARK                         _______ _______ _______ _____ _____    ______ ____
ROOT
ATOM      1  C   UNL     1       4.191   6.945  16.964  0.00  0.00    +0.000 C 
ATOM      2  N   UNL     1       4.182   5.709  17.720  0.00  0.00    +0.000 N 
ATOM      3  N   UNL     1       2.932   5.260  18.124  0.00  0.00    +0.000 NA
ATOM      4  C   UNL     1       3.076   4.116  18.737  0.00  0.00    +0.000 A 
ATOM      5  S   UNL     1       4.704   3.485  18.878  0.00  0.00    +0.000 S 
ATOM      6  C   UNL     1       5.289   4.926  18.023  0.00  0.00    +0.000 A 
ATOM      7  N   UNL     1       6.560   4.943  17.894  0.00  0.00    +0.000 NA
ENDROOT
BRANCH   4   8
ATOM      8  S   UNL     1       1.672   3.244  19.410  0.00  0.00    +0.000 S 
ATOM      9  O   UNL     1       0.836   2.896  18.282  0.00  0.00    +0.000 OA
ATOM     10  O   UNL     1       2.210   2.254  20.318  0.00  0.00    +0.000 OA
BRANCH   8  11
ATOM     11  N   UNL     1       0.762   4.309  20.354  0.00  0.00    +0.000 NA
ATOM     12  H   UNL     1       0.274   3.849  21.120  0.00  0.00    +0.000 HD
ATOM     13  H   UNL     1       0.220   4.978  19.810  0.00  0.00    +0.000 HD
ENDBRANCH   8  11
ENDBRANCH   4   8
BRANCH   7  14
ATOM     14  C   UNL     1       7.242   5.948  17.274  0.00  0.00    +0.000 C 
ATOM     15  O   UNL     1       7.502   6.002  16.079  0.00  0.00    +0.000 OA
BRANCH  14  16
ATOM     16  C   UNL     1       7.768   6.984  18.249  0.00  0.00    +0.000 C 
BRANCH  16  17
ATOM     17  C   UNL     1       7.718   8.368  17.619  0.00  0.00    +0.000 C 
BRANCH  17  18
ATOM     18  S   UNL     1       8.745   9.547  18.546  0.00  0.00    +0.000 S 
ATOM     19  H   UNL     1       9.628   9.798  17.567  0.00  0.00    +0.000 HD
ENDBRANCH  17  18
ENDBRANCH  16  17
ENDBRANCH  14  16
ENDBRANCH   7  14
TORSDOF 6
ENDMDL
MODEL 6
REMARK VINA RESULT:      -5.5      2.393      6.215
REMARK  Name = 
REMARK  7 active torsions:
REMARK  status: ('A' for Active; 'I' for Inactive)
REMARK    1  A    between atoms: C_1  and  N_2
REMARK    2  A    between atoms: C_4  and  S_5
REMARK    3  A    between atoms: S_5  and  N_6
REMARK    4  A    between atoms: N_11  and  C_12
REMARK    5  A    between atoms: C_12  and  C_14
REMARK    6  A    between atoms: C_14  and  C_15
REMARK    7  A    between atoms: C_15  and  S_16
REMARK                            x       y       z     vdW  Elec       q    Type
REMARK                         _______ _______ _______ _____ _____    ______ ____
ROOT
ATOM      1  C   UNL     1       2.308   6.430  17.852  0.00  0.00    +0.000 C 
ATOM      2  N   UNL     1       3.609   5.854  18.122  0.00  0.00    +0.000 N 
ATOM      3  N   UNL     1       4.575   6.062  17.145  0.00  0.00    +0.000 NA
ATOM      4  C   UNL     1       5.701   5.542  17.551  0.00  0.00    +0.000 A 
ATOM      5  S   UNL     1       5.703   4.769  19.124  0.00  0.00    +0.000 S 
ATOM      6  C   UNL     1       3.980   5.172  19.274  0.00  0.00    +0.000 A 
ATOM      7  N   UNL     1       3.465   4.742  20.362  0.00  0.00    +0.000 NA
ENDROOT
BRANCH   4   8
ATOM      8  S   UNL     1       7.168   5.608  16.539  0.00  0.00    +0.000 S 
ATOM      9  O   UNL     1       7.673   6.959  16.649  0.00  0.00    +0.000 OA
ATOM     10  O   UNL     1       7.957   4.449  16.896  0.00  0.00    +0.000 OA
BRANCH   8  11
ATOM     11  N   UNL     1       6.732   5.404  14.920  0.00  0.00    +0.000 NA
ATOM     12  H   UNL     1       5.813   5.785  14.701  0.00  0.00    +0.000 HD
ATOM     13  H   UNL     1       6.934   4.474  14.556  0.00  0.00    +0.000 HD
ENDBRANCH   8  11
ENDBRANCH   4   8
BRANCH   7  14
ATOM     14  C   UNL     1       2.157   4.926  20.700  0.00  0.00    +0.000 C 
ATOM     15  O   UNL     1       1.608   6.009  20.862  0.00  0.00    +0.000 OA
BRANCH  14  16
ATOM     16  C   UNL     1       1.437   3.621  20.979  0.00  0.00    +0.000 C 
BRANCH  16  17
ATOM     17  C   UNL     1       0.594   3.222  19.778  0.00  0.00    +0.000 C 
BRANCH  17  18
ATOM     18  S   UNL     1       1.556   2.217  18.607  0.00  0.00    +0.000 S 
ATOM     19  H   UNL     1       0.555   1.964  17.750  0.00  0.00    +0.000 HD
ENDBRANCH  17  18
ENDBRANCH  16  17
ENDBRANCH  14  16
ENDBRANCH   7  14
TORSDOF 6
ENDMDL
MODEL 7
REMARK VINA RESULT:      -5.5      2.474      6.218
REMARK  Name = 
REMARK  7 active torsions:
REMARK  status: ('A' for Active; 'I' for Inactive)
REMARK    1  A    between atoms: C_1  and  N_2
REMARK    2  A    between atoms: C_4  and  S_5
REMARK    3  A    between atoms: S_5  and  N_6
REMARK    4  A    between atoms: N_11  and  C_12
REMARK    5  A    between atoms: C_12  and  C_14
REMARK    6  A    between atoms: C_14  and  C_15
REMARK    7  A    between atoms: C_15  and  S_16
REMARK                            x       y       z     vdW  Elec       q    Type
REMARK                         _______ _______ _______ _____ _____    ______ ____
ROOT
ATOM      1  C   UNL     1       2.013   5.653  17.720  0.00  0.00    +0.000 C 
ATOM      2  N   UNL     1       3.404   5.409  18.041  0.00  0.00    +0.000 N 
ATOM      3  N   UNL     1       4.302   5.574  16.994  0.00  0.00    +0.000 NA
ATOM      4  C   UNL     1       5.511   5.380  17.444  0.00  0.00    +0.000 A 
ATOM      5  S   UNL     1       5.678   4.991  19.144  0.00  0.00    +0.000 S 
ATOM      6  C   UNL     1       3.912   5.082  19.292  0.00  0.00    +0.000 A 
ATOM      7  N   UNL     1       3.500   4.815  20.472  0.00  0.00    +0.000 NA
ENDROOT
BRANCH   4   8
ATOM      8  S   UNL     1       6.929   5.498  16.367  0.00  0.00    +0.000 S 
ATOM      9  O   UNL     1       7.855   4.478  16.807  0.00  0.00    +0.000 OA
ATOM     10  O   UNL     1       6.408   5.550  15.018  0.00  0.00    +0.000 OA
BRANCH   8  11
ATOM     11  N   UNL     1       7.702   6.976  16.632  0.00  0.00    +0.000 NA
ATOM     12  H   UNL     1       8.294   6.977  17.461  0.00  0.00    +0.000 HD
ATOM     13  H   UNL     1       7.093   7.784  16.512  0.00  0.00    +0.000 HD
ENDBRANCH   8  11
ENDBRANCH   4   8
BRANCH   7  14
ATOM     14  C   UNL     1       2.184   4.818  20.830  0.00  0.00    +0.000 C 
ATOM     15  O   UNL     1       1.494   5.815  21.001  0.00  0.00    +0.000 OA
BRANCH  14  16
ATOM     16  C   UNL     1       1.654   3.427  21.117  0.00  0.00    +0.000 C 
BRANCH  16  17
ATOM     17  C   UNL     1       0.787   2.949  19.963  0.00  0.00    +0.000 C 
BRANCH  17  18
ATOM     18  S   UNL     1       1.766   2.010  18.752  0.00  0.00    +0.000 S 
ATOM     19  H   UNL     1       2.732   2.925  18.581  0.00  0.00    +0.000 HD
ENDBRANCH  17  18
ENDBRANCH  16  17
ENDBRANCH  14  16
ENDBRANCH   7  14
TORSDOF 6
ENDMDL
MODEL 8
REMARK VINA RESULT:      -5.5      2.602      6.433
REMARK  Name = 
REMARK  7 active torsions:
REMARK  status: ('A' for Active; 'I' for Inactive)
REMARK    1  A    between atoms: C_1  and  N_2
REMARK    2  A    between atoms: C_4  and  S_5
REMARK    3  A    between atoms: S_5  and  N_6
REMARK    4  A    between atoms: N_11  and  C_12
REMARK    5  A    between atoms: C_12  and  C_14
REMARK    6  A    between atoms: C_14  and  C_15
REMARK    7  A    between atoms: C_15  and  S_16
REMARK                            x       y       z     vdW  Elec       q    Type
REMARK                         _______ _______ _______ _____ _____    ______ ____
ROOT
ATOM      1  C   UNL     1       4.485   2.741  19.852  0.00  0.00    +0.000 C 
ATOM      2  N   UNL     1       4.618   3.967  19.090  0.00  0.00    +0.000 N 
ATOM      3  N   UNL     1       5.669   4.000  18.183  0.00  0.00    +0.000 NA
ATOM      4  C   UNL     1       5.627   5.132  17.534  0.00  0.00    +0.000 A 
ATOM      5  S   UNL     1       4.336   6.243  17.949  0.00  0.00    +0.000 S 
ATOM      6  C   UNL     1       3.772   5.066  19.152  0.00  0.00    +0.000 A 
ATOM      7  N   UNL     1       2.756   5.480  19.810  0.00  0.00    +0.000 NA
ENDROOT
BRANCH   4   8
ATOM      8  S   UNL     1       6.840   5.531  16.289  0.00  0.00    +0.000 S 
ATOM      9  O   UNL     1       7.851   4.499  16.366  0.00  0.00    +0.000 OA
ATOM     10  O   UNL     1       6.099   5.809  15.078  0.00  0.00    +0.000 OA
BRANCH   8  11
ATOM     11  N   UNL     1       7.612   6.972  16.712  0.00  0.00    +0.000 NA
ATOM     12  H   UNL     1       8.285   7.287  16.016  0.00  0.00    +0.000 HD
ATOM     13  H   UNL     1       7.920   7.002  17.683  0.00  0.00    +0.000 HD
ENDBRANCH   8  11
ENDBRANCH   4   8
BRANCH   7  14
ATOM     14  C   UNL     1       2.146   4.753  20.789  0.00  0.00    +0.000 C 
ATOM     15  O   UNL     1       2.631   4.477  21.879  0.00  0.00    +0.000 OA
BRANCH  14  16
ATOM     16  C   UNL     1       0.803   4.198  20.353  0.00  0.00    +0.000 C 
BRANCH  16  17
ATOM     17  C   UNL     1       0.889   2.689  20.189  0.00  0.00    +0.000 C 
BRANCH  17  18
ATOM     18  S   UNL     1       1.184   2.234  18.454  0.00  0.00    +0.000 S 
ATOM     19  H   UNL     1       1.548   0.962  18.680  0.00  0.00    +0.000 HD
ENDBRANCH  17  18
ENDBRANCH  16  17
ENDBRANCH  14  16
ENDBRANCH   7  14
TORSDOF 6
ENDMDL
MODEL 9
REMARK VINA RESULT:      -5.5      2.633      3.017
REMARK  Name = 
REMARK  7 active torsions:
REMARK  status: ('A' for Active; 'I' for Inactive)
REMARK    1  A    between atoms: C_1  and  N_2
REMARK    2  A    between atoms: C_4  and  S_5
REMARK    3  A    between atoms: S_5  and  N_6
REMARK    4  A    between atoms: N_11  and  C_12
REMARK    5  A    between atoms: C_12  and  C_14
REMARK    6  A    between atoms: C_14  and  C_15
REMARK    7  A    between atoms: C_15  and  S_16
REMARK                            x       y       z     vdW  Elec       q    Type
REMARK                         _______ _______ _______ _____ _____    ______ ____
ROOT
ATOM      1  C   UNL     1       6.211   5.301  19.231  0.00  0.00    +0.000 C 
ATOM      2  N   UNL     1       4.917   4.792  18.825  0.00  0.00    +0.000 N 
ATOM      3  N   UNL     1       4.123   4.281  19.844  0.00  0.00    +0.000 NA
ATOM      4  C   UNL     1       2.976   3.918  19.340  0.00  0.00    +0.000 A 
ATOM      5  S   UNL     1       2.748   4.156  17.619  0.00  0.00    +0.000 S 
ATOM      6  C   UNL     1       4.394   4.817  17.538  0.00  0.00    +0.000 A 
ATOM      7  N   UNL     1       4.739   5.142  16.351  0.00  0.00    +0.000 NA
ENDROOT
BRANCH   4   8
ATOM      8  S   UNL     1       1.702   3.201  20.362  0.00  0.00    +0.000 S 
ATOM      9  O   UNL     1       0.698   4.228  20.535  0.00  0.00    +0.000 OA
ATOM     10  O   UNL     1       1.404   1.907  19.787  0.00  0.00    +0.000 OA
BRANCH   8  11
ATOM     11  N   UNL     1       2.332   2.901  21.900  0.00  0.00    +0.000 NA
ATOM     12  H   UNL     1       3.312   2.624  21.886  0.00  0.00    +0.000 HD
ATOM     13  H   UNL     1       1.716   2.349  22.494  0.00  0.00    +0.000 HD
ENDBRANCH   8  11
ENDBRANCH   4   8
BRANCH   7  14
ATOM     14  C   UNL     1       5.957   5.669  16.038  0.00  0.00    +0.000 C 
ATOM     15  O   UNL     1       6.255   6.855  16.089  0.00  0.00    +0.000 OA
BRANCH  14  16
ATOM     16  C   UNL     1       6.919   4.631  15.493  0.00  0.00    +0.000 C 
BRANCH  16  17
ATOM     17  C   UNL     1       7.108   4.827  13.997  0.00  0.00    +0.000 C 
BRANCH  17  18
ATOM     18  S   UNL     1       6.078   3.667  13.048  0.00  0.00    +0.000 S 
ATOM     19  H   UNL     1       5.359   4.588  12.391  0.00  0.00    +0.000 HD
ENDBRANCH  17  18
ENDBRANCH  16  17
ENDBRANCH  14  16
ENDBRANCH   7  14
TORSDOF 6
ENDMDL
