MODEL 1
REMARK VINA RESULT:      -6.5      0.000      0.000
REMARK  Name = 
REMARK  9 active torsions:
REMARK  status: ('A' for Active; 'I' for Inactive)
REMARK    1  A    between atoms: C_2  and  C_10
REMARK    2  A    between atoms: N_3  and  C_4
REMARK    3  A    between atoms: C_4  and  C_5
REMARK    4  A    between atoms: C_5  and  S_6
REMARK    5  A    between atoms: S_6  and  O_9
REMARK    6  A    between atoms: C_10  and  C_11
REMARK    7  A    between atoms: C_10  and  C_13
REMARK    8  A    between atoms: C_11  and  S_12
REMARK    9  A    between atoms: C_13  and  C_14
REMARK                            x       y       z     vdW  Elec       q    Type
REMARK                         _______ _______ _______ _____ _____    ______ ____
ROOT
ATOM      1  O   UNL     1       5.409   5.382  18.797  0.00  0.00    +0.000 OA
ATOM      2  C   UNL     1       4.364   5.533  18.172  0.00  0.00    +0.000 C 
ATOM      3  N   UNL     1       4.095   4.813  17.024  0.00  0.00    +0.000 N 
ATOM      4  H   UNL     1       3.115   4.699  16.779  0.00  0.00    +0.000 HD
ENDROOT
BRANCH   3   5
ATOM      5  C   UNL     1       5.051   3.818  16.563  0.00  0.00    +0.000 C 
BRANCH   5   6
ATOM      6  C   UNL     1       5.667   4.185  15.229  0.00  0.00    +0.000 C 
BRANCH   6   7
ATOM      7  S   UNL     1       7.201   5.062  15.485  0.00  0.00    +0.000 S 
ATOM      8  O   UNL     1       7.923   4.461  16.582  0.00  0.00    +0.000 OA
ATOM      9  O   UNL     1       7.807   5.368  14.208  0.00  0.00    +0.000 OA
BRANCH   7  10
ATOM     10  O   UNL     1       6.558   6.412  16.082  0.00  0.00    +0.000 OA
ATOM     11  H   UNL     1       5.579   6.313  16.061  0.00  0.00    +0.000 HD
ENDBRANCH   7  10
ENDBRANCH   6   7
ENDBRANCH   5   6
ENDBRANCH   3   5
BRANCH   2  12
ATOM     12  C   UNL     1       3.259   6.516  18.582  0.00  0.00    +0.000 C 
BRANCH  12  13
ATOM     13  C   UNL     1       3.241   7.763  17.682  0.00  0.00    +0.000 C 
BRANCH  13  14
ATOM     14  S   UNL     1       1.880   8.944  18.005  0.00  0.00    +0.000 S 
ATOM     15  H   UNL     1       0.866   8.073  17.904  0.00  0.00    +0.000 HD
ENDBRANCH  13  14
ENDBRANCH  12  13
BRANCH  12  16
ATOM     16  C   UNL     1       1.867   5.825  18.513  0.00  0.00    +0.000 C 
BRANCH  16  17
ATOM     17  C   UNL     1       1.712   4.668  19.476  0.00  0.00    +0.000 A 
ATOM     18  C   UNL     1       2.061   4.802  20.825  0.00  0.00    +0.000 A 
ATOM     19  C   UNL     1       2.098   3.685  21.659  0.00  0.00    +0.000 A 
ATOM     20  C   UNL     1       1.741   2.431  21.168  0.00  0.00    +0.000 A 
ATOM     21  C   UNL     1       1.306   2.300  19.852  0.00  0.00    +0.000 A 
ATOM     22  C   UNL     1       1.286   3.414  19.010  0.00  0.00    +0.000 A 
ENDBRANCH  16  17
ENDBRANCH  12  16
ENDBRANCH   2  12
TORSDOF 9
ENDMDL
MODEL 2
REMARK VINA RESULT:      -6.5      2.464      3.932
REMARK  Name = 
REMARK  9 active torsions:
REMARK  status: ('A' for Active; 'I' for Inactive)
REMARK    1  A    between atoms: C_2  and  C_10
REMARK    2  A    between atoms: N_3  and  C_4
REMARK    3  A    between atoms: C_4  and  C_5
REMARK    4  A    between atoms: C_5  and  S_6
REMARK    5  A    between atoms: S_6  and  O_9
REMARK    6  A    between atoms: C_10  and  C_11
REMARK    7  A    between atoms: C_10  and  C_13
REMARK    8  A    between atoms: C_11  and  S_12
REMARK    9  A    between atoms: C_13  and  C_14
REMARK                            x       y       z     vdW  Elec       q    Type
REMARK                         _______ _______ _______ _____ _____    ______ ____
ROOT
ATOM      1  O   UNL     1       5.023   3.392  19.492  0.00  0.00    +0.000 OA
ATOM      2  C   UNL     1       4.525   4.469  19.183  0.00  0.00    +0.000 C 
ATOM      3  N   UNL     1       5.303   5.567  18.871  0.00  0.00    +0.000 N 
ATOM      4  H   UNL     1       4.874   6.276  18.283  0.00  0.00    +0.000 HD
ENDROOT
BRANCH   3   5
ATOM      5  C   UNL     1       6.753   5.437  18.865  0.00  0.00    +0.000 C 
BRANCH   5   6
ATOM      6  C   UNL     1       7.385   6.089  17.653  0.00  0.00    +0.000 C 
BRANCH   6   7
ATOM      7  S   UNL     1       6.708   5.381  16.158  0.00  0.00    +0.000 S 
ATOM      8  O   UNL     1       5.352   5.842  15.977  0.00  0.00    +0.000 OA
ATOM      9  O   UNL     1       7.706   5.411  15.111  0.00  0.00    +0.000 OA
BRANCH   7  10
ATOM     10  O   UNL     1       6.580   3.869  16.698  0.00  0.00    +0.000 OA
ATOM     11  H   UNL     1       5.729   3.797  17.186  0.00  0.00    +0.000 HD
ENDBRANCH   7  10
ENDBRANCH   6   7
ENDBRANCH   5   6
ENDBRANCH   3   5
BRANCH   2  12
ATOM     12  C   UNL     1       3.012   4.718  19.108  0.00  0.00    +0.000 C 
BRANCH  12  13
ATOM     13  C   UNL     1       2.210   3.414  19.255  0.00  0.00    +0.000 C 
BRANCH  13  14
ATOM     14  S   UNL     1       1.412   3.163  20.884  0.00  0.00    +0.000 S 
ATOM     15  H   UNL     1       1.364   1.824  20.849  0.00  0.00    +0.000 HD
ENDBRANCH  13  14
ENDBRANCH  12  13
BRANCH  12  16
ATOM     16  C   UNL     1       2.571   5.708  20.223  0.00  0.00    +0.000 C 
BRANCH  16  17
ATOM     17  C   UNL     1       2.202   7.083  19.708  0.00  0.00    +0.000 A 
ATOM     18  C   UNL     1       1.560   8.012  20.536  0.00  0.00    +0.000 A 
ATOM     19  C   UNL     1       1.052   9.198  20.005  0.00  0.00    +0.000 A 
ATOM     20  C   UNL     1       1.223   9.491  18.653  0.00  0.00    +0.000 A 
ATOM     21  C   UNL     1       1.938   8.616  17.839  0.00  0.00    +0.000 A 
ATOM     22  C   UNL     1       2.430   7.420  18.365  0.00  0.00    +0.000 A 
ENDBRANCH  16  17
ENDBRANCH  12  16
ENDBRANCH   2  12
TORSDOF 9
ENDMDL
MODEL 3
REMARK VINA RESULT:      -6.3      0.509      1.459
REMARK  Name = 
REMARK  9 active torsions:
REMARK  status: ('A' for Active; 'I' for Inactive)
REMARK    1  A    between atoms: C_2  and  C_10
REMARK    2  A    between atoms: N_3  and  C_4
REMARK    3  A    between atoms: C_4  and  C_5
REMARK    4  A    between atoms: C_5  and  S_6
REMARK    5  A    between atoms: S_6  and  O_9
REMARK    6  A    between atoms: C_10  and  C_11
REMARK    7  A    between atoms: C_10  and  C_13
REMARK    8  A    between atoms: C_11  and  S_12
REMARK    9  A    between atoms: C_13  and  C_14
REMARK                            x       y       z     vdW  Elec       q    Type
REMARK                         _______ _______ _______ _____ _____    ______ ____
ROOT
ATOM      1  O   UNL     1       5.590   5.577  18.943  0.00  0.00    +0.000 OA
ATOM      2  C   UNL     1       4.561   5.580  18.274  0.00  0.00    +0.000 C 
ATOM      3  N   UNL     1       4.394   4.734  17.195  0.00  0.00    +0.000 N 
ATOM      4  H   UNL     1       3.436   4.516  16.933  0.00  0.00    +0.000 HD
ENDROOT
BRANCH   3   5
ATOM      5  C   UNL     1       5.444   3.782  16.863  0.00  0.00    +0.000 C 
BRANCH   5   6
ATOM      6  C   UNL     1       5.892   3.898  15.421  0.00  0.00    +0.000 C 
BRANCH   6   7
ATOM      7  S   UNL     1       6.670   5.483  15.150  0.00  0.00    +0.000 S 
ATOM      8  O   UNL     1       7.674   5.357  14.120  0.00  0.00    +0.000 OA
ATOM      9  O   UNL     1       5.667   6.525  15.160  0.00  0.00    +0.000 OA
BRANCH   7  10
ATOM     10  O   UNL     1       7.483   5.542  16.539  0.00  0.00    +0.000 OA
ATOM     11  H   UNL     1       7.573   6.489  16.793  0.00  0.00    +0.000 HD
ENDBRANCH   7  10
ENDBRANCH   6   7
ENDBRANCH   5   6
ENDBRANCH   3   5
BRANCH   2  12
ATOM     12  C   UNL     1       3.366   6.503  18.552  0.00  0.00    +0.000 C 
BRANCH  12  13
ATOM     13  C   UNL     1       3.336   7.703  17.590  0.00  0.00    +0.000 C 
BRANCH  13  14
ATOM     14  S   UNL     1       1.996   8.915  17.890  0.00  0.00    +0.000 S 
ATOM     15  H   UNL     1       2.682   9.734  18.700  0.00  0.00    +0.000 HD
ENDBRANCH  13  14
ENDBRANCH  12  13
BRANCH  12  16
ATOM     16  C   UNL     1       2.032   5.716  18.417  0.00  0.00    +0.000 C 
BRANCH  16  17
ATOM     17  C   UNL     1       1.900   4.567  19.394  0.00  0.00    +0.000 A 
ATOM     18  C   UNL     1       1.245   3.384  19.027  0.00  0.00    +0.000 A 
ATOM     19  C   UNL     1       0.959   2.411  19.985  0.00  0.00    +0.000 A 
ATOM     20  C   UNL     1       1.365   2.586  21.306  0.00  0.00    +0.000 A 
ATOM     21  C   UNL     1       2.095   3.717  21.663  0.00  0.00    +0.000 A 
ATOM     22  C   UNL     1       2.366   4.701  20.711  0.00  0.00    +0.000 A 
ENDBRANCH  16  17
ENDBRANCH  12  16
ENDBRANCH   2  12
TORSDOF 9
ENDMDL
MODEL 4
REMARK VINA RESULT:      -6.3      2.402      3.850
REMARK  Name = 
REMARK  9 active torsions:
REMARK  status: ('A' for Active; 'I' for Inactive)
REMARK    1  A    between atoms: C_2  and  C_10
REMARK    2  A    between atoms: N_3  and  C_4
REMARK    3  A    between atoms: C_4  and  C_5
REMARK    4  A    between atoms: C_5  and  S_6
REMARK    5  A    between atoms: S_6  and  O_9
REMARK    6  A    between atoms: C_10  and  C_11
REMARK    7  A    between atoms: C_10  and  C_13
REMARK    8  A    between atoms: C_11  and  S_12
REMARK    9  A    between atoms: C_13  and  C_14
REMARK                            x       y       z     vdW  Elec       q    Type
REMARK                         _______ _______ _______ _____ _____    ______ ____
ROOT
ATOM      1  O   UNL     1       2.615   2.841  17.744  0.00  0.00    +0.000 OA
ATOM      2  C   UNL     1       2.879   3.954  18.188  0.00  0.00    +0.000 C 
ATOM      3  N   UNL     1       4.099   4.558  17.954  0.00  0.00    +0.000 N 
ATOM      4  H   UNL     1       4.122   5.573  18.010  0.00  0.00    +0.000 HD
ENDROOT
BRANCH   3   5
ATOM      5  C   UNL     1       5.085   3.882  17.124  0.00  0.00    +0.000 C 
BRANCH   5   6
ATOM      6  C   UNL     1       5.390   4.646  15.852  0.00  0.00    +0.000 C 
BRANCH   6   7
ATOM      7  S   UNL     1       7.110   5.128  15.828  0.00  0.00    +0.000 S 
ATOM      8  O   UNL     1       7.832   4.393  16.839  0.00  0.00    +0.000 OA
ATOM      9  O   UNL     1       7.561   5.252  14.459  0.00  0.00    +0.000 OA
BRANCH   7  10
ATOM     10  O   UNL     1       6.907   6.607  16.434  0.00  0.00    +0.000 OA
ATOM     11  H   UNL     1       6.216   7.058  15.898  0.00  0.00    +0.000 HD
ENDBRANCH   7  10
ENDBRANCH   6   7
ENDBRANCH   5   6
ENDBRANCH   3   5
BRANCH   2  12
ATOM     12  C   UNL     1       1.907   4.786  19.036  0.00  0.00    +0.000 C 
BRANCH  12  13
ATOM     13  C   UNL     1       1.125   3.912  20.031  0.00  0.00    +0.000 C 
BRANCH  13  14
ATOM     14  S   UNL     1       2.092   3.287  21.455  0.00  0.00    +0.000 S 
ATOM     15  H   UNL     1       1.127   3.389  22.379  0.00  0.00    +0.000 HD
ENDBRANCH  13  14
ENDBRANCH  12  13
BRANCH  12  16
ATOM     16  C   UNL     1       2.680   5.880  19.827  0.00  0.00    +0.000 C 
BRANCH  16  17
ATOM     17  C   UNL     1       2.212   7.289  19.534  0.00  0.00    +0.000 A 
ATOM     18  C   UNL     1       1.559   8.048  20.514  0.00  0.00    +0.000 A 
ATOM     19  C   UNL     1       0.964   9.266  20.182  0.00  0.00    +0.000 A 
ATOM     20  C   UNL     1       1.054   9.760  18.882  0.00  0.00    +0.000 A 
ATOM     21  C   UNL     1       1.778   9.057  17.922  0.00  0.00    +0.000 A 
ATOM     22  C   UNL     1       2.358   7.830  18.247  0.00  0.00    +0.000 A 
ENDBRANCH  16  17
ENDBRANCH  12  16
ENDBRANCH   2  12
TORSDOF 9
ENDMDL
MODEL 5
REMARK VINA RESULT:      -6.3      3.188      6.571
REMARK  Name = 
REMARK  9 active torsions:
REMARK  status: ('A' for Active; 'I' for Inactive)
REMARK    1  A    between atoms: C_2  and  C_10
REMARK    2  A    between atoms: N_3  and  C_4
REMARK    3  A    between atoms: C_4  and  C_5
REMARK    4  A    between atoms: C_5  and  S_6
REMARK    5  A    between atoms: S_6  and  O_9
REMARK    6  A    between atoms: C_10  and  C_11
REMARK    7  A    between atoms: C_10  and  C_13
REMARK    8  A    between atoms: C_11  and  S_12
REMARK    9  A    between atoms: C_13  and  C_14
REMARK                            x       y       z     vdW  Elec       q    Type
REMARK                         _______ _______ _______ _____ _____    ______ ____
ROOT
ATOM      1  O   UNL     1       6.200   4.542  19.178  0.00  0.00    +0.000 OA
ATOM      2  C   UNL     1       5.520   4.427  18.163  0.00  0.00    +0.000 C 
ATOM      3  N   UNL     1       4.515   3.484  18.064  0.00  0.00    +0.000 N 
ATOM      4  H   UNL     1       3.775   3.677  17.395  0.00  0.00    +0.000 HD
ENDROOT
BRANCH   3   5
ATOM      5  C   UNL     1       4.221   2.630  19.206  0.00  0.00    +0.000 C 
BRANCH   5   6
ATOM      6  C   UNL     1       2.825   2.854  19.748  0.00  0.00    +0.000 C 
BRANCH   6   7
ATOM      7  S   UNL     1       1.631   2.743  18.423  0.00  0.00    +0.000 S 
ATOM      8  O   UNL     1       2.215   2.038  17.306  0.00  0.00    +0.000 OA
ATOM      9  O   UNL     1       0.327   2.432  18.967  0.00  0.00    +0.000 OA
BRANCH   7  10
ATOM     10  O   UNL     1       1.654   4.299  18.008  0.00  0.00    +0.000 OA
ATOM     11  H   UNL     1       2.568   4.519  17.718  0.00  0.00    +0.000 HD
ENDBRANCH   7  10
ENDBRANCH   6   7
ENDBRANCH   5   6
ENDBRANCH   3   5
BRANCH   2  12
ATOM     12  C   UNL     1       5.703   5.297  16.911  0.00  0.00    +0.000 C 
BRANCH  12  13
ATOM     13  C   UNL     1       5.736   6.795  17.257  0.00  0.00    +0.000 C 
BRANCH  13  14
ATOM     14  S   UNL     1       7.404   7.501  17.525  0.00  0.00    +0.000 S 
ATOM     15  H   UNL     1       7.618   6.985  18.742  0.00  0.00    +0.000 HD
ENDBRANCH  13  14
ENDBRANCH  12  13
BRANCH  12  16
ATOM     16  C   UNL     1       7.021   4.920  16.178  0.00  0.00    +0.000 C 
BRANCH  16  17
ATOM     17  C   UNL     1       6.848   4.681  14.693  0.00  0.00    +0.000 A 
ATOM     18  C   UNL     1       5.884   3.783  14.217  0.00  0.00    +0.000 A 
ATOM     19  C   UNL     1       5.858   3.425  12.869  0.00  0.00    +0.000 A 
ATOM     20  C   UNL     1       6.763   3.994  11.975  0.00  0.00    +0.000 A 
ATOM     21  C   UNL     1       7.667   4.955  12.420  0.00  0.00    +0.000 A 
ATOM     22  C   UNL     1       7.706   5.301  13.772  0.00  0.00    +0.000 A 
ENDBRANCH  16  17
ENDBRANCH  12  16
ENDBRANCH   2  12
TORSDOF 9
ENDMDL
MODEL 6
REMARK VINA RESULT:      -6.2      2.443      3.951
REMARK  Name = 
REMARK  9 active torsions:
REMARK  status: ('A' for Active; 'I' for Inactive)
REMARK    1  A    between atoms: C_2  and  C_10
REMARK    2  A    between atoms: N_3  and  C_4
REMARK    3  A    between atoms: C_4  and  C_5
REMARK    4  A    between atoms: C_5  and  S_6
REMARK    5  A    between atoms: S_6  and  O_9
REMARK    6  A    between atoms: C_10  and  C_11
REMARK    7  A    between atoms: C_10  and  C_13
REMARK    8  A    between atoms: C_11  and  S_12
REMARK    9  A    between atoms: C_13  and  C_14
REMARK                            x       y       z     vdW  Elec       q    Type
REMARK                         _______ _______ _______ _____ _____    ______ ____
ROOT
ATOM      1  O   UNL     1       5.194   3.287  19.608  0.00  0.00    +0.000 OA
ATOM      2  C   UNL     1       4.622   4.279  19.166  0.00  0.00    +0.000 C 
ATOM      3  N   UNL     1       5.319   5.327  18.597  0.00  0.00    +0.000 N 
ATOM      4  H   UNL     1       4.808   5.908  17.938  0.00  0.00    +0.000 HD
ENDROOT
BRANCH   3   5
ATOM      5  C   UNL     1       6.767   5.240  18.476  0.00  0.00    +0.000 C 
BRANCH   5   6
ATOM      6  C   UNL     1       7.290   5.985  17.265  0.00  0.00    +0.000 C 
BRANCH   6   7
ATOM      7  S   UNL     1       6.653   5.243  15.771  0.00  0.00    +0.000 S 
ATOM      8  O   UNL     1       5.275   5.634  15.587  0.00  0.00    +0.000 OA
ATOM      9  O   UNL     1       7.649   5.323  14.724  0.00  0.00    +0.000 OA
BRANCH   7  10
ATOM     10  O   UNL     1       6.601   3.726  16.311  0.00  0.00    +0.000 OA
ATOM     11  H   UNL     1       7.287   3.213  15.828  0.00  0.00    +0.000 HD
ENDBRANCH   7  10
ENDBRANCH   6   7
ENDBRANCH   5   6
ENDBRANCH   3   5
BRANCH   2  12
ATOM     12  C   UNL     1       3.098   4.467  19.193  0.00  0.00    +0.000 C 
BRANCH  12  13
ATOM     13  C   UNL     1       2.364   3.142  19.460  0.00  0.00    +0.000 C 
BRANCH  13  14
ATOM     14  S   UNL     1       1.316   3.115  20.962  0.00  0.00    +0.000 S 
ATOM     15  H   UNL     1       2.258   3.491  21.837  0.00  0.00    +0.000 HD
ENDBRANCH  13  14
ENDBRANCH  12  13
BRANCH  12  16
ATOM     16  C   UNL     1       2.700   5.493  20.291  0.00  0.00    +0.000 C 
BRANCH  16  17
ATOM     17  C   UNL     1       2.157   6.795  19.742  0.00  0.00    +0.000 A 
ATOM     18  C   UNL     1       2.334   7.137  18.395  0.00  0.00    +0.000 A 
ATOM     19  C   UNL     1       2.003   8.414  17.942  0.00  0.00    +0.000 A 
ATOM     20  C   UNL     1       1.449   9.347  18.816  0.00  0.00    +0.000 A 
ATOM     21  C   UNL     1       1.185   8.989  20.136  0.00  0.00    +0.000 A 
ATOM     22  C   UNL     1       1.532   7.717  20.596  0.00  0.00    +0.000 A 
ENDBRANCH  16  17
ENDBRANCH  12  16
ENDBRANCH   2  12
TORSDOF 9
ENDMDL
MODEL 7
REMARK VINA RESULT:      -6.2      1.157      1.326
REMARK  Name = 
REMARK  9 active torsions:
REMARK  status: ('A' for Active; 'I' for Inactive)
REMARK    1  A    between atoms: C_2  and  C_10
REMARK    2  A    between atoms: N_3  and  C_4
REMARK    3  A    between atoms: C_4  and  C_5
REMARK    4  A    between atoms: C_5  and  S_6
REMARK    5  A    between atoms: S_6  and  O_9
REMARK    6  A    between atoms: C_10  and  C_11
REMARK    7  A    between atoms: C_10  and  C_13
REMARK    8  A    between atoms: C_11  and  S_12
REMARK    9  A    between atoms: C_13  and  C_14
REMARK                            x       y       z     vdW  Elec       q    Type
REMARK                         _______ _______ _______ _____ _____    ______ ____
ROOT
ATOM      1  O   UNL     1       4.992   5.457  19.791  0.00  0.00    +0.000 OA
ATOM      2  C   UNL     1       4.440   5.713  18.725  0.00  0.00    +0.000 C 
ATOM      3  N   UNL     1       4.967   5.298  17.517  0.00  0.00    +0.000 N 
ATOM      4  H   UNL     1       4.313   5.204  16.745  0.00  0.00    +0.000 HD
ENDROOT
BRANCH   3   5
ATOM      5  C   UNL     1       6.184   4.499  17.504  0.00  0.00    +0.000 C 
BRANCH   5   6
ATOM      6  C   UNL     1       7.163   4.958  16.444  0.00  0.00    +0.000 C 
BRANCH   6   7
ATOM      7  S   UNL     1       6.346   5.051  14.858  0.00  0.00    +0.000 S 
ATOM      8  O   UNL     1       7.329   5.244  13.819  0.00  0.00    +0.000 OA
ATOM      9  O   UNL     1       5.301   4.053  14.790  0.00  0.00    +0.000 OA
BRANCH   7  10
ATOM     10  O   UNL     1       5.661   6.493  15.075  0.00  0.00    +0.000 OA
ATOM     11  H   UNL     1       5.428   6.574  16.027  0.00  0.00    +0.000 HD
ENDBRANCH   7  10
ENDBRANCH   6   7
ENDBRANCH   5   6
ENDBRANCH   3   5
BRANCH   2  12
ATOM     12  C   UNL     1       3.131   6.506  18.611  0.00  0.00    +0.000 C 
BRANCH  12  13
ATOM     13  C   UNL     1       3.281   7.726  17.687  0.00  0.00    +0.000 C 
BRANCH  13  14
ATOM     14  S   UNL     1       1.999   9.020  17.881  0.00  0.00    +0.000 S 
ATOM     15  H   UNL     1       1.863   8.931  19.211  0.00  0.00    +0.000 HD
ENDBRANCH  13  14
ENDBRANCH  12  13
BRANCH  12  16
ATOM     16  C   UNL     1       1.994   5.597  18.063  0.00  0.00    +0.000 C 
BRANCH  16  17
ATOM     17  C   UNL     1       1.688   4.405  18.944  0.00  0.00    +0.000 A 
ATOM     18  C   UNL     1       1.473   4.562  20.319  0.00  0.00    +0.000 A 
ATOM     19  C   UNL     1       1.384   3.446  21.151  0.00  0.00    +0.000 A 
ATOM     20  C   UNL     1       1.460   2.163  20.614  0.00  0.00    +0.000 A 
ATOM     21  C   UNL     1       1.584   1.993  19.238  0.00  0.00    +0.000 A 
ATOM     22  C   UNL     1       1.692   3.108  18.405  0.00  0.00    +0.000 A 
ENDBRANCH  16  17
ENDBRANCH  12  16
ENDBRANCH   2  12
TORSDOF 9
ENDMDL
MODEL 8
REMARK VINA RESULT:      -6.2      3.177      6.774
REMARK  Name = 
REMARK  9 active torsions:
REMARK  status: ('A' for Active; 'I' for Inactive)
REMARK    1  A    between atoms: C_2  and  C_10
REMARK    2  A    between atoms: N_3  and  C_4
REMARK    3  A    between atoms: C_4  and  C_5
REMARK    4  A    between atoms: C_5  and  S_6
REMARK    5  A    between atoms: S_6  and  O_9
REMARK    6  A    between atoms: C_10  and  C_11
REMARK    7  A    between atoms: C_10  and  C_13
REMARK    8  A    between atoms: C_11  and  S_12
REMARK    9  A    between atoms: C_13  and  C_14
REMARK                            x       y       z     vdW  Elec       q    Type
REMARK                         _______ _______ _______ _____ _____    ______ ____
ROOT
ATOM      1  O   UNL     1       3.916   6.349  17.242  0.00  0.00    +0.000 OA
ATOM      2  C   UNL     1       4.636   5.407  17.556  0.00  0.00    +0.000 C 
ATOM      3  N   UNL     1       4.345   4.599  18.638  0.00  0.00    +0.000 N 
ATOM      4  H   UNL     1       4.735   3.660  18.622  0.00  0.00    +0.000 HD
ENDROOT
BRANCH   3   5
ATOM      5  C   UNL     1       3.132   4.840  19.405  0.00  0.00    +0.000 C 
BRANCH   5   6
ATOM      6  C   UNL     1       2.412   3.557  19.764  0.00  0.00    +0.000 C 
BRANCH   6   7
ATOM      7  S   UNL     1       1.479   2.967  18.359  0.00  0.00    +0.000 S 
ATOM      8  O   UNL     1       0.337   2.214  18.820  0.00  0.00    +0.000 OA
ATOM      9  O   UNL     1       1.395   4.009  17.359  0.00  0.00    +0.000 OA
BRANCH   7  10
ATOM     10  O   UNL     1       2.547   1.868  17.862  0.00  0.00    +0.000 OA
ATOM     11  H   UNL     1       2.054   1.039  17.667  0.00  0.00    +0.000 HD
ENDBRANCH   7  10
ENDBRANCH   6   7
ENDBRANCH   5   6
ENDBRANCH   3   5
BRANCH   2  12
ATOM     12  C   UNL     1       5.916   5.024  16.800  0.00  0.00    +0.000 C 
BRANCH  12  13
ATOM     13  C   UNL     1       7.035   4.584  17.759  0.00  0.00    +0.000 C 
BRANCH  13  14
ATOM     14  S   UNL     1       7.687   5.896  18.857  0.00  0.00    +0.000 S 
ATOM     15  H   UNL     1       6.508   6.394  19.252  0.00  0.00    +0.000 HD
ENDBRANCH  13  14
ENDBRANCH  12  13
BRANCH  12  16
ATOM     16  C   UNL     1       5.628   3.869  15.799  0.00  0.00    +0.000 C 
BRANCH  16  17
ATOM     17  C   UNL     1       6.141   4.133  14.399  0.00  0.00    +0.000 A 
ATOM     18  C   UNL     1       5.653   3.407  13.306  0.00  0.00    +0.000 A 
ATOM     19  C   UNL     1       6.263   3.518  12.056  0.00  0.00    +0.000 A 
ATOM     20  C   UNL     1       7.335   4.389  11.874  0.00  0.00    +0.000 A 
ATOM     21  C   UNL     1       7.771   5.182  12.932  0.00  0.00    +0.000 A 
ATOM     22  C   UNL     1       7.175   5.059  14.188  0.00  0.00    +0.000 A 
ENDBRANCH  16  17
ENDBRANCH  12  16
ENDBRANCH   2  12
TORSDOF 9
ENDMDL
MODEL 9
REMARK VINA RESULT:      -6.2      3.047      5.510
REMARK  Name = 
REMARK  9 active torsions:
REMARK  status: ('A' for Active; 'I' for Inactive)
REMARK    1  A    between atoms: C_2  and  C_10
REMARK    2  A    between atoms: N_3  and  C_4
REMARK    3  A    between atoms: C_4  and  C_5
REMARK    4  A    between atoms: C_5  and  S_6
REMARK    5  A    between atoms: S_6  and  O_9
REMARK    6  A    between atoms: C_10  and  C_11
REMARK    7  A    between atoms: C_10  and  C_13
REMARK    8  A    between atoms: C_11  and  S_12
REMARK    9  A    between atoms: C_13  and  C_14
REMARK                            x       y       z     vdW  Elec       q    Type
REMARK                         _______ _______ _______ _____ _____    ______ ____
ROOT
ATOM      1  O   UNL     1       5.347   3.876  19.429  0.00  0.00    +0.000 OA
ATOM      2  C   UNL     1       4.466   4.495  18.840  0.00  0.00    +0.000 C 
ATOM      3  N   UNL     1       3.272   3.898  18.485  0.00  0.00    +0.000 N 
ATOM      4  H   UNL     1       2.476   4.516  18.356  0.00  0.00    +0.000 HD
ENDROOT
BRANCH   3   5
ATOM      5  C   UNL     1       3.029   2.511  18.855  0.00  0.00    +0.000 C 
BRANCH   5   6
ATOM      6  C   UNL     1       1.803   2.355  19.731  0.00  0.00    +0.000 C 
BRANCH   6   7
ATOM      7  S   UNL     1       2.152   2.950  21.379  0.00  0.00    +0.000 S 
ATOM      8  O   UNL     1       2.286   4.388  21.354  0.00  0.00    +0.000 OA
ATOM      9  O   UNL     1       1.330   2.244  22.337  0.00  0.00    +0.000 OA
BRANCH   7  10
ATOM     10  O   UNL     1       3.656   2.381  21.479  0.00  0.00    +0.000 OA
ATOM     11  H   UNL     1       4.055   2.431  20.581  0.00  0.00    +0.000 HD
ENDBRANCH   7  10
ENDBRANCH   6   7
ENDBRANCH   5   6
ENDBRANCH   3   5
BRANCH   2  12
ATOM     12  C   UNL     1       4.585   5.972  18.437  0.00  0.00    +0.000 C 
BRANCH  12  13
ATOM     13  C   UNL     1       5.840   6.232  17.587  0.00  0.00    +0.000 C 
BRANCH  13  14
ATOM     14  S   UNL     1       5.825   5.482  15.916  0.00  0.00    +0.000 S 
ATOM     15  H   UNL     1       4.503   5.549  15.708  0.00  0.00    +0.000 HD
ENDBRANCH  13  14
ENDBRANCH  12  13
BRANCH  12  16
ATOM     16  C   UNL     1       3.331   6.416  17.632  0.00  0.00    +0.000 C 
BRANCH  16  17
ATOM     17  C   UNL     1       2.462   7.418  18.360  0.00  0.00    +0.000 A 
ATOM     18  C   UNL     1       1.978   8.559  17.707  0.00  0.00    +0.000 A 
ATOM     19  C   UNL     1       1.343   9.570  18.430  0.00  0.00    +0.000 A 
ATOM     20  C   UNL     1       1.142   9.431  19.801  0.00  0.00    +0.000 A 
ATOM     21  C   UNL     1       1.538   8.261  20.445  0.00  0.00    +0.000 A 
ATOM     22  C   UNL     1       2.190   7.257  19.728  0.00  0.00    +0.000 A 
ENDBRANCH  16  17
ENDBRANCH  12  16
ENDBRANCH   2  12
TORSDOF 9
ENDMDL
