MODEL 1
REMARK VINA RESULT:      -7.6      0.000      0.000
REMARK  Name = 
REMARK  8 active torsions:
REMARK  status: ('A' for Active; 'I' for Inactive)
REMARK    1  A    between atoms: C_1  and  O_2
REMARK    2  A    between atoms: O_2  and  C_3
REMARK    3  A    between atoms: C_6  and  O_7
REMARK    4  A    between atoms: O_7  and  C_8
REMARK    5  A    between atoms: C_8  and  C_9
REMARK    6  A    between atoms: N_11  and  C_12
REMARK    7  A    between atoms: C_15  and  S_16
REMARK    8  A    between atoms: S_16  and  N_19
REMARK                            x       y       z     vdW  Elec       q    Type
REMARK                         _______ _______ _______ _____ _____    ______ ____
ROOT
ATOM      1  C   UNL     1       5.482   6.059  18.077  0.00  0.00    +0.000 A 
ATOM      2  C   UNL     1       5.944   4.973  18.825  0.00  0.00    +0.000 A 
ATOM      3  C   UNL     1       5.205   3.784  18.910  0.00  0.00    +0.000 A 
ATOM      4  C   UNL     1       3.973   3.683  18.261  0.00  0.00    +0.000 A 
ATOM      5  C   UNL     1       3.519   4.742  17.471  0.00  0.00    +0.000 A 
ATOM      6  C   UNL     1       4.262   5.929  17.395  0.00  0.00    +0.000 A 
ENDROOT
BRANCH   1   9
ATOM      7  C   UNL     1       7.336   7.549  17.270  0.00  0.00    +0.000 C 
ATOM      8  O   UNL     1       7.912   6.765  16.522  0.00  0.00    +0.000 OA
ATOM      9  N   UNL     1       6.165   7.293  17.975  0.00  0.00    +0.000 N 
ATOM     10  H   UNL     1       5.720   8.094  18.411  0.00  0.00    +0.000 HD
BRANCH   7  11
ATOM     11  C   UNL     1       7.904   8.950  17.529  0.00  0.00    +0.000 C 
BRANCH  11  12
ATOM     12  O   UNL     1       8.571   8.976  18.785  0.00  0.00    +0.000 OA
BRANCH  12  16
ATOM     13  C   UNL     1      10.480  12.632  19.444  0.00  0.00    +0.000 A 
ATOM     14  C   UNL     1      10.232  12.153  18.157  0.00  0.00    +0.000 A 
ATOM     15  C   UNL     1       9.599  10.920  17.971  0.00  0.00    +0.000 A 
ATOM     16  C   UNL     1       9.239  10.138  19.070  0.00  0.00    +0.000 A 
ATOM     17  C   UNL     1       9.514  10.602  20.357  0.00  0.00    +0.000 A 
ATOM     18  C   UNL     1      10.133  11.847  20.542  0.00  0.00    +0.000 A 
BRANCH  13  20
ATOM     19  C   UNL     1      10.796  14.748  18.439  0.00  0.00    +0.000 C 
ATOM     20  O   UNL     1      11.090  13.855  19.510  0.00  0.00    +0.000 OA
ENDBRANCH  13  20
ENDBRANCH  12  16
ENDBRANCH  11  12
ENDBRANCH   7  11
ENDBRANCH   1   9
BRANCH   4  21
ATOM     21  S   UNL     1       3.077   2.138  18.294  0.00  0.00    +0.000 S 
ATOM     22  O   UNL     1       2.245   2.122  17.107  0.00  0.00    +0.000 OA
ATOM     23  O   UNL     1       4.043   1.086  18.538  0.00  0.00    +0.000 OA
BRANCH  21  24
ATOM     24  N   UNL     1       2.044   2.207  19.627  0.00  0.00    +0.000 NA
ATOM     25  C   UNL     1       0.725   2.875  19.519  0.00  0.00    +0.000 C 
ATOM     26  C   UNL     1       0.811   4.322  20.013  0.00  0.00    +0.000 C 
ATOM     27  O   UNL     1       1.349   4.405  21.341  0.00  0.00    +0.000 OA
ATOM     28  C   UNL     1       2.637   3.779  21.445  0.00  0.00    +0.000 C 
ATOM     29  C   UNL     1       2.591   2.317  21.000  0.00  0.00    +0.000 C 
ENDBRANCH  21  24
ENDBRANCH   4  21
TORSDOF 7
ENDMDL
MODEL 2
REMARK VINA RESULT:      -7.6      6.245      9.558
REMARK  Name = 
REMARK  8 active torsions:
REMARK  status: ('A' for Active; 'I' for Inactive)
REMARK    1  A    between atoms: C_1  and  O_2
REMARK    2  A    between atoms: O_2  and  C_3
REMARK    3  A    between atoms: C_6  and  O_7
REMARK    4  A    between atoms: O_7  and  C_8
REMARK    5  A    between atoms: C_8  and  C_9
REMARK    6  A    between atoms: N_11  and  C_12
REMARK    7  A    between atoms: C_15  and  S_16
REMARK    8  A    between atoms: S_16  and  N_19
REMARK                            x       y       z     vdW  Elec       q    Type
REMARK                         _______ _______ _______ _____ _____    ______ ____
ROOT
ATOM      1  C   UNL     1       1.417   9.056  19.152  0.00  0.00    +0.000 A 
ATOM      2  C   UNL     1       1.544   8.027  20.088  0.00  0.00    +0.000 A 
ATOM      3  C   UNL     1       2.328   6.895  19.819  0.00  0.00    +0.000 A 
ATOM      4  C   UNL     1       2.977   6.774  18.589  0.00  0.00    +0.000 A 
ATOM      5  C   UNL     1       2.898   7.816  17.661  0.00  0.00    +0.000 A 
ATOM      6  C   UNL     1       2.108   8.942  17.934  0.00  0.00    +0.000 A 
ENDROOT
BRANCH   1   9
ATOM      7  C   UNL     1       0.510  10.963  20.512  0.00  0.00    +0.000 C 
ATOM      8  O   UNL     1       1.180  10.819  21.530  0.00  0.00    +0.000 OA
ATOM      9  N   UNL     1       0.619  10.207  19.350  0.00  0.00    +0.000 N 
ATOM     10  H   UNL     1       0.120  10.557  18.539  0.00  0.00    +0.000 HD
BRANCH   7  11
ATOM     11  C   UNL     1      -0.587  12.031  20.438  0.00  0.00    +0.000 C 
BRANCH  11  12
ATOM     12  O   UNL     1      -0.897  12.313  19.079  0.00  0.00    +0.000 OA
BRANCH  12  16
ATOM     13  C   UNL     1      -4.828  11.451  17.966  0.00  0.00    +0.000 A 
ATOM     14  C   UNL     1      -4.525  12.058  19.185  0.00  0.00    +0.000 A 
ATOM     15  C   UNL     1      -3.197  12.324  19.531  0.00  0.00    +0.000 A 
ATOM     16  C   UNL     1      -2.156  11.955  18.677  0.00  0.00    +0.000 A 
ATOM     17  C   UNL     1      -2.457  11.321  17.472  0.00  0.00    +0.000 A 
ATOM     18  C   UNL     1      -3.791  11.070  17.117  0.00  0.00    +0.000 A 
BRANCH  13  20
ATOM     19  C   UNL     1      -7.053  12.056  18.487  0.00  0.00    +0.000 C 
ATOM     20  O   UNL     1      -6.160  11.251  17.723  0.00  0.00    +0.000 OA
ENDBRANCH  13  20
ENDBRANCH  12  16
ENDBRANCH  11  12
ENDBRANCH   7  11
ENDBRANCH   1   9
BRANCH   4  21
ATOM     21  S   UNL     1       4.049   5.378  18.284  0.00  0.00    +0.000 S 
ATOM     22  O   UNL     1       4.537   4.946  19.579  0.00  0.00    +0.000 OA
ATOM     23  O   UNL     1       3.330   4.465  17.418  0.00  0.00    +0.000 OA
BRANCH  21  24
ATOM     24  N   UNL     1       5.374   5.967  17.421  0.00  0.00    +0.000 NA
ATOM     25  C   UNL     1       5.502   5.699  15.969  0.00  0.00    +0.000 C 
ATOM     26  C   UNL     1       6.391   4.477  15.722  0.00  0.00    +0.000 C 
ATOM     27  O   UNL     1       7.670   4.605  16.360  0.00  0.00    +0.000 OA
ATOM     28  C   UNL     1       7.552   4.843  17.771  0.00  0.00    +0.000 C 
ATOM     29  C   UNL     1       6.704   6.081  18.066  0.00  0.00    +0.000 C 
ENDBRANCH  21  24
ENDBRANCH   4  21
TORSDOF 7
ENDMDL
MODEL 3
REMARK VINA RESULT:      -7.5      6.816      9.221
REMARK  Name = 
REMARK  8 active torsions:
REMARK  status: ('A' for Active; 'I' for Inactive)
REMARK    1  A    between atoms: C_1  and  O_2
REMARK    2  A    between atoms: O_2  and  C_3
REMARK    3  A    between atoms: C_6  and  O_7
REMARK    4  A    between atoms: O_7  and  C_8
REMARK    5  A    between atoms: C_8  and  C_9
REMARK    6  A    between atoms: N_11  and  C_12
REMARK    7  A    between atoms: C_15  and  S_16
REMARK    8  A    between atoms: S_16  and  N_19
REMARK                            x       y       z     vdW  Elec       q    Type
REMARK                         _______ _______ _______ _____ _____    ______ ____
ROOT
ATOM      1  C   UNL     1       1.622   8.493  19.646  0.00  0.00    +0.000 A 
ATOM      2  C   UNL     1       1.765   7.324  20.398  0.00  0.00    +0.000 A 
ATOM      3  C   UNL     1       2.483   6.226  19.901  0.00  0.00    +0.000 A 
ATOM      4  C   UNL     1       3.046   6.283  18.624  0.00  0.00    +0.000 A 
ATOM      5  C   UNL     1       2.952   7.462  17.879  0.00  0.00    +0.000 A 
ATOM      6  C   UNL     1       2.229   8.553  18.381  0.00  0.00    +0.000 A 
ENDROOT
BRANCH   1   9
ATOM      7  C   UNL     1       0.798  10.121  21.373  0.00  0.00    +0.000 C 
ATOM      8  O   UNL     1       1.440   9.726  22.343  0.00  0.00    +0.000 OA
ATOM      9  N   UNL     1       0.887   9.622  20.078  0.00  0.00    +0.000 N 
ATOM     10  H   UNL     1       0.424  10.164  19.356  0.00  0.00    +0.000 HD
BRANCH   7  11
ATOM     11  C   UNL     1      -0.235  11.244  21.520  0.00  0.00    +0.000 C 
BRANCH  11  12
ATOM     12  O   UNL     1      -0.450  11.526  22.897  0.00  0.00    +0.000 OA
BRANCH  12  16
ATOM     13  C   UNL     1      -3.516  14.192  23.863  0.00  0.00    +0.000 A 
ATOM     14  C   UNL     1      -3.757  12.831  23.675  0.00  0.00    +0.000 A 
ATOM     15  C   UNL     1      -2.709  11.967  23.344  0.00  0.00    +0.000 A 
ATOM     16  C   UNL     1      -1.416  12.461  23.161  0.00  0.00    +0.000 A 
ATOM     17  C   UNL     1      -1.180  13.827  23.319  0.00  0.00    +0.000 A 
ATOM     18  C   UNL     1      -2.228  14.691  23.669  0.00  0.00    +0.000 A 
BRANCH  13  20
ATOM     19  C   UNL     1      -4.333  16.277  24.620  0.00  0.00    +0.000 C 
ATOM     20  O   UNL     1      -4.609  14.944  24.199  0.00  0.00    +0.000 OA
ENDBRANCH  13  20
ENDBRANCH  12  16
ENDBRANCH  11  12
ENDBRANCH   7  11
ENDBRANCH   1   9
BRANCH   4  21
ATOM     21  S   UNL     1       4.037   4.921  18.030  0.00  0.00    +0.000 S 
ATOM     22  O   UNL     1       4.573   4.262  19.204  0.00  0.00    +0.000 OA
ATOM     23  O   UNL     1       3.234   4.192  17.070  0.00  0.00    +0.000 OA
BRANCH  21  24
ATOM     24  N   UNL     1       5.340   5.600  17.199  0.00  0.00    +0.000 NA
ATOM     25  C   UNL     1       5.587   5.252  15.779  0.00  0.00    +0.000 C 
ATOM     26  C   UNL     1       6.619   4.125  15.672  0.00  0.00    +0.000 C 
ATOM     27  O   UNL     1       7.834   4.443  16.367  0.00  0.00    +0.000 OA
ATOM     28  C   UNL     1       7.603   4.759  17.748  0.00  0.00    +0.000 C 
ATOM     29  C   UNL     1       6.607   5.908  17.905  0.00  0.00    +0.000 C 
ENDBRANCH  21  24
ENDBRANCH   4  21
TORSDOF 7
ENDMDL
MODEL 4
REMARK VINA RESULT:      -7.5      1.064      1.394
REMARK  Name = 
REMARK  8 active torsions:
REMARK  status: ('A' for Active; 'I' for Inactive)
REMARK    1  A    between atoms: C_1  and  O_2
REMARK    2  A    between atoms: O_2  and  C_3
REMARK    3  A    between atoms: C_6  and  O_7
REMARK    4  A    between atoms: O_7  and  C_8
REMARK    5  A    between atoms: C_8  and  C_9
REMARK    6  A    between atoms: N_11  and  C_12
REMARK    7  A    between atoms: C_15  and  S_16
REMARK    8  A    between atoms: S_16  and  N_19
REMARK                            x       y       z     vdW  Elec       q    Type
REMARK                         _______ _______ _______ _____ _____    ______ ____
ROOT
ATOM      1  C   UNL     1       5.775   6.117  17.621  0.00  0.00    +0.000 A 
ATOM      2  C   UNL     1       5.020   5.496  16.623  0.00  0.00    +0.000 A 
ATOM      3  C   UNL     1       4.310   4.314  16.882  0.00  0.00    +0.000 A 
ATOM      4  C   UNL     1       4.372   3.727  18.147  0.00  0.00    +0.000 A 
ATOM      5  C   UNL     1       5.085   4.361  19.168  0.00  0.00    +0.000 A 
ATOM      6  C   UNL     1       5.797   5.540  18.900  0.00  0.00    +0.000 A 
ENDROOT
BRANCH   1   9
ATOM      7  C   UNL     1       7.739   7.630  18.028  0.00  0.00    +0.000 C 
ATOM      8  O   UNL     1       8.398   6.907  18.769  0.00  0.00    +0.000 OA
ATOM      9  N   UNL     1       6.537   7.292  17.416  0.00  0.00    +0.000 N 
ATOM     10  H   UNL     1       6.204   7.928  16.699  0.00  0.00    +0.000 HD
BRANCH   7  11
ATOM     11  C   UNL     1       8.195   9.060  17.717  0.00  0.00    +0.000 C 
BRANCH  11  12
ATOM     12  O   UNL     1       8.869   9.609  18.843  0.00  0.00    +0.000 OA
BRANCH  12  16
ATOM     13  C   UNL     1      10.440  13.426  18.215  0.00  0.00    +0.000 A 
ATOM     14  C   UNL     1       9.245  13.017  17.624  0.00  0.00    +0.000 A 
ATOM     15  C   UNL     1       8.751  11.728  17.848  0.00  0.00    +0.000 A 
ATOM     16  C   UNL     1       9.466  10.824  18.636  0.00  0.00    +0.000 A 
ATOM     17  C   UNL     1      10.677  11.223  19.202  0.00  0.00    +0.000 A 
ATOM     18  C   UNL     1      11.163  12.522  18.992  0.00  0.00    +0.000 A 
BRANCH  13  20
ATOM     19  C   UNL     1      10.345  15.701  18.847  0.00  0.00    +0.000 C 
ATOM     20  O   UNL     1      10.823  14.712  17.941  0.00  0.00    +0.000 OA
ENDBRANCH  13  20
ENDBRANCH  12  16
ENDBRANCH  11  12
ENDBRANCH   7  11
ENDBRANCH   1   9
BRANCH   4  21
ATOM     21  S   UNL     1       3.394   2.275  18.501  0.00  0.00    +0.000 S 
ATOM     22  O   UNL     1       2.966   1.747  17.221  0.00  0.00    +0.000 OA
ATOM     23  O   UNL     1       4.156   1.459  19.424  0.00  0.00    +0.000 OA
BRANCH  21  24
ATOM     24  N   UNL     1       2.012   2.810  19.309  0.00  0.00    +0.000 NA
ATOM     25  C   UNL     1       1.356   4.079  18.913  0.00  0.00    +0.000 C 
ATOM     26  C   UNL     1       1.836   5.233  19.798  0.00  0.00    +0.000 C 
ATOM     27  O   UNL     1       1.657   4.949  21.193  0.00  0.00    +0.000 OA
ATOM     28  C   UNL     1       2.310   3.732  21.587  0.00  0.00    +0.000 C 
ATOM     29  C   UNL     1       1.832   2.541  20.755  0.00  0.00    +0.000 C 
ENDBRANCH  21  24
ENDBRANCH   4  21
TORSDOF 7
ENDMDL
MODEL 5
REMARK VINA RESULT:      -7.5      5.506      8.145
REMARK  Name = 
REMARK  8 active torsions:
REMARK  status: ('A' for Active; 'I' for Inactive)
REMARK    1  A    between atoms: C_1  and  O_2
REMARK    2  A    between atoms: O_2  and  C_3
REMARK    3  A    between atoms: C_6  and  O_7
REMARK    4  A    between atoms: O_7  and  C_8
REMARK    5  A    between atoms: C_8  and  C_9
REMARK    6  A    between atoms: N_11  and  C_12
REMARK    7  A    between atoms: C_15  and  S_16
REMARK    8  A    between atoms: S_16  and  N_19
REMARK                            x       y       z     vdW  Elec       q    Type
REMARK                         _______ _______ _______ _____ _____    ______ ____
ROOT
ATOM      1  C   UNL     1       2.209   7.251  19.839  0.00  0.00    +0.000 A 
ATOM      2  C   UNL     1       1.467   7.666  20.948  0.00  0.00    +0.000 A 
ATOM      3  C   UNL     1       0.726   8.857  20.920  0.00  0.00    +0.000 A 
ATOM      4  C   UNL     1       0.743   9.661  19.779  0.00  0.00    +0.000 A 
ATOM      5  C   UNL     1       1.441   9.237  18.645  0.00  0.00    +0.000 A 
ATOM      6  C   UNL     1       2.184   8.048  18.682  0.00  0.00    +0.000 A 
ENDROOT
BRANCH   1   9
ATOM      7  C   UNL     1       2.583   4.793  19.486  0.00  0.00    +0.000 C 
ATOM      8  O   UNL     1       1.478   4.482  19.052  0.00  0.00    +0.000 OA
ATOM      9  N   UNL     1       2.999   6.079  19.814  0.00  0.00    +0.000 N 
ATOM     10  H   UNL     1       3.991   6.197  19.993  0.00  0.00    +0.000 HD
BRANCH   7  11
ATOM     11  C   UNL     1       3.654   3.726  19.745  0.00  0.00    +0.000 C 
BRANCH  11  12
ATOM     12  O   UNL     1       4.324   3.409  18.531  0.00  0.00    +0.000 OA
BRANCH  12  16
ATOM     13  C   UNL     1       6.943   6.332  17.105  0.00  0.00    +0.000 A 
ATOM     14  C   UNL     1       7.037   5.831  18.403  0.00  0.00    +0.000 A 
ATOM     15  C   UNL     1       6.138   4.859  18.852  0.00  0.00    +0.000 A 
ATOM     16  C   UNL     1       5.114   4.404  18.019  0.00  0.00    +0.000 A 
ATOM     17  C   UNL     1       5.001   4.927  16.731  0.00  0.00    +0.000 A 
ATOM     18  C   UNL     1       5.914   5.889  16.275  0.00  0.00    +0.000 A 
BRANCH  13  20
ATOM     19  C   UNL     1       7.974   8.391  17.636  0.00  0.00    +0.000 C 
ATOM     20  O   UNL     1       7.882   7.268  16.765  0.00  0.00    +0.000 OA
ENDBRANCH  13  20
ENDBRANCH  12  16
ENDBRANCH  11  12
ENDBRANCH   7  11
ENDBRANCH   1   9
BRANCH   4  21
ATOM     21  S   UNL     1      -0.274  11.128  19.711  0.00  0.00    +0.000 S 
ATOM     22  O   UNL     1      -1.037  11.041  18.481  0.00  0.00    +0.000 OA
ATOM     23  O   UNL     1      -0.940  11.249  20.992  0.00  0.00    +0.000 OA
BRANCH  21  24
ATOM     24  N   UNL     1       0.779  12.438  19.554  0.00  0.00    +0.000 NA
ATOM     25  C   UNL     1       1.406  13.043  20.753  0.00  0.00    +0.000 C 
ATOM     26  C   UNL     1       0.602  14.258  21.226  0.00  0.00    +0.000 C 
ATOM     27  O   UNL     1       0.411  15.218  20.177  0.00  0.00    +0.000 OA
ATOM     28  C   UNL     1      -0.216  14.641  19.021  0.00  0.00    +0.000 C 
ATOM     29  C   UNL     1       0.575  13.446  18.487  0.00  0.00    +0.000 C 
ENDBRANCH  21  24
ENDBRANCH   4  21
TORSDOF 7
ENDMDL
MODEL 6
REMARK VINA RESULT:      -7.5      5.619      8.948
REMARK  Name = 
REMARK  8 active torsions:
REMARK  status: ('A' for Active; 'I' for Inactive)
REMARK    1  A    between atoms: C_1  and  O_2
REMARK    2  A    between atoms: O_2  and  C_3
REMARK    3  A    between atoms: C_6  and  O_7
REMARK    4  A    between atoms: O_7  and  C_8
REMARK    5  A    between atoms: C_8  and  C_9
REMARK    6  A    between atoms: N_11  and  C_12
REMARK    7  A    between atoms: C_15  and  S_16
REMARK    8  A    between atoms: S_16  and  N_19
REMARK                            x       y       z     vdW  Elec       q    Type
REMARK                         _______ _______ _______ _____ _____    ______ ____
ROOT
ATOM      1  C   UNL     1       1.985   7.515  20.157  0.00  0.00    +0.000 A 
ATOM      2  C   UNL     1       1.480   7.994  21.368  0.00  0.00    +0.000 A 
ATOM      3  C   UNL     1       0.885   9.261  21.455  0.00  0.00    +0.000 A 
ATOM      4  C   UNL     1       0.814  10.076  20.324  0.00  0.00    +0.000 A 
ATOM      5  C   UNL     1       1.271   9.593  19.095  0.00  0.00    +0.000 A 
ATOM      6  C   UNL     1       1.870   8.327  19.017  0.00  0.00    +0.000 A 
ENDROOT
BRANCH   1   9
ATOM      7  C   UNL     1       2.069   5.006  20.240  0.00  0.00    +0.000 C 
ATOM      8  O   UNL     1       0.892   4.775  20.503  0.00  0.00    +0.000 OA
ATOM      9  N   UNL     1       2.622   6.261  20.010  0.00  0.00    +0.000 N 
ATOM     10  H   UNL     1       3.565   6.273  19.636  0.00  0.00    +0.000 HD
BRANCH   7  11
ATOM     11  C   UNL     1       3.095   3.869  20.166  0.00  0.00    +0.000 C 
BRANCH  11  12
ATOM     12  O   UNL     1       3.186   3.387  18.831  0.00  0.00    +0.000 OA
BRANCH  12  16
ATOM     13  C   UNL     1       6.462   4.630  16.560  0.00  0.00    +0.000 A 
ATOM     14  C   UNL     1       5.293   4.156  15.965  0.00  0.00    +0.000 A 
ATOM     15  C   UNL     1       4.218   3.739  16.755  0.00  0.00    +0.000 A 
ATOM     16  C   UNL     1       4.313   3.758  18.148  0.00  0.00    +0.000 A 
ATOM     17  C   UNL     1       5.494   4.203  18.743  0.00  0.00    +0.000 A 
ATOM     18  C   UNL     1       6.566   4.638  17.950  0.00  0.00    +0.000 A 
BRANCH  13  20
ATOM     19  C   UNL     1       7.139   4.884  14.310  0.00  0.00    +0.000 C 
ATOM     20  O   UNL     1       7.445   5.026  15.694  0.00  0.00    +0.000 OA
ENDBRANCH  13  20
ENDBRANCH  12  16
ENDBRANCH  11  12
ENDBRANCH   7  11
ENDBRANCH   1   9
BRANCH   4  21
ATOM     21  S   UNL     1      -0.027  11.650  20.414  0.00  0.00    +0.000 S 
ATOM     22  O   UNL     1      -1.415  11.392  20.086  0.00  0.00    +0.000 OA
ATOM     23  O   UNL     1       0.338  12.259  21.677  0.00  0.00    +0.000 OA
BRANCH  21  24
ATOM     24  N   UNL     1       0.609  12.607  19.179  0.00  0.00    +0.000 NA
ATOM     25  C   UNL     1       1.976  13.171  19.295  0.00  0.00    +0.000 C 
ATOM     26  C   UNL     1       1.924  14.602  19.836  0.00  0.00    +0.000 C 
ATOM     27  O   UNL     1       1.062  15.441  19.054  0.00  0.00    +0.000 OA
ATOM     28  C   UNL     1      -0.269  14.911  18.957  0.00  0.00    +0.000 C 
ATOM     29  C   UNL     1      -0.271  13.494  18.382  0.00  0.00    +0.000 C 
ENDBRANCH  21  24
ENDBRANCH   4  21
TORSDOF 7
ENDMDL
MODEL 7
REMARK VINA RESULT:      -7.5      3.768     11.420
REMARK  Name = 
REMARK  8 active torsions:
REMARK  status: ('A' for Active; 'I' for Inactive)
REMARK    1  A    between atoms: C_1  and  O_2
REMARK    2  A    between atoms: O_2  and  C_3
REMARK    3  A    between atoms: C_6  and  O_7
REMARK    4  A    between atoms: O_7  and  C_8
REMARK    5  A    between atoms: C_8  and  C_9
REMARK    6  A    between atoms: N_11  and  C_12
REMARK    7  A    between atoms: C_15  and  S_16
REMARK    8  A    between atoms: S_16  and  N_19
REMARK                            x       y       z     vdW  Elec       q    Type
REMARK                         _______ _______ _______ _____ _____    ______ ____
ROOT
ATOM      1  C   UNL     1       9.293  10.234  19.162  0.00  0.00    +0.000 A 
ATOM      2  C   UNL     1       9.483  11.042  18.038  0.00  0.00    +0.000 A 
ATOM      3  C   UNL     1       9.730  12.417  18.167  0.00  0.00    +0.000 A 
ATOM      4  C   UNL     1       9.763  13.002  19.434  0.00  0.00    +0.000 A 
ATOM      5  C   UNL     1       9.622  12.201  20.570  0.00  0.00    +0.000 A 
ATOM      6  C   UNL     1       9.370  10.827  20.432  0.00  0.00    +0.000 A 
ENDROOT
BRANCH   1   9
ATOM      7  C   UNL     1       8.166   8.206  18.199  0.00  0.00    +0.000 C 
ATOM      8  O   UNL     1       7.610   8.724  17.235  0.00  0.00    +0.000 OA
ATOM      9  N   UNL     1       9.011   8.850  19.098  0.00  0.00    +0.000 N 
ATOM     10  H   UNL     1       9.526   8.253  19.735  0.00  0.00    +0.000 HD
BRANCH   7  11
ATOM     11  C   UNL     1       7.944   6.726  18.532  0.00  0.00    +0.000 C 
BRANCH  11  12
ATOM     12  O   UNL     1       7.445   6.043  17.389  0.00  0.00    +0.000 OA
BRANCH  12  16
ATOM     13  C   UNL     1       4.141   3.654  18.291  0.00  0.00    +0.000 A 
ATOM     14  C   UNL     1       4.855   4.327  19.283  0.00  0.00    +0.000 A 
ATOM     15  C   UNL     1       5.962   5.111  18.947  0.00  0.00    +0.000 A 
ATOM     16  C   UNL     1       6.389   5.203  17.621  0.00  0.00    +0.000 A 
ATOM     17  C   UNL     1       5.693   4.506  16.633  0.00  0.00    +0.000 A 
ATOM     18  C   UNL     1       4.572   3.733  16.967  0.00  0.00    +0.000 A 
BRANCH  13  20
ATOM     19  C   UNL     1       2.344   2.230  17.717  0.00  0.00    +0.000 C 
ATOM     20  O   UNL     1       3.066   2.928  18.728  0.00  0.00    +0.000 OA
ENDBRANCH  13  20
ENDBRANCH  12  16
ENDBRANCH  11  12
ENDBRANCH   7  11
ENDBRANCH   1   9
BRANCH   4  21
ATOM     21  S   UNL     1      10.170  14.734  19.602  0.00  0.00    +0.000 S 
ATOM     22  O   UNL     1       9.254  15.276  20.586  0.00  0.00    +0.000 OA
ATOM     23  O   UNL     1      11.603  14.822  19.793  0.00  0.00    +0.000 OA
BRANCH  21  24
ATOM     24  N   UNL     1       9.803  15.461  18.124  0.00  0.00    +0.000 NA
ATOM     25  C   UNL     1      10.886  15.832  17.181  0.00  0.00    +0.000 C 
ATOM     26  C   UNL     1      11.272  17.303  17.357  0.00  0.00    +0.000 C 
ATOM     27  O   UNL     1      10.137  18.174  17.240  0.00  0.00    +0.000 OA
ATOM     28  C   UNL     1       9.094  17.832  18.166  0.00  0.00    +0.000 C 
ATOM     29  C   UNL     1       8.646  16.379  18.000  0.00  0.00    +0.000 C 
ENDBRANCH  21  24
ENDBRANCH   4  21
TORSDOF 7
ENDMDL
MODEL 8
REMARK VINA RESULT:      -7.4      3.815     11.119
REMARK  Name = 
REMARK  8 active torsions:
REMARK  status: ('A' for Active; 'I' for Inactive)
REMARK    1  A    between atoms: C_1  and  O_2
REMARK    2  A    between atoms: O_2  and  C_3
REMARK    3  A    between atoms: C_6  and  O_7
REMARK    4  A    between atoms: O_7  and  C_8
REMARK    5  A    between atoms: C_8  and  C_9
REMARK    6  A    between atoms: N_11  and  C_12
REMARK    7  A    between atoms: C_15  and  S_16
REMARK    8  A    between atoms: S_16  and  N_19
REMARK                            x       y       z     vdW  Elec       q    Type
REMARK                         _______ _______ _______ _____ _____    ______ ____
ROOT
ATOM      1  C   UNL     1       9.276  10.194  19.105  0.00  0.00    +0.000 A 
ATOM      2  C   UNL     1       9.619  10.921  17.962  0.00  0.00    +0.000 A 
ATOM      3  C   UNL     1       9.888  12.296  18.032  0.00  0.00    +0.000 A 
ATOM      4  C   UNL     1       9.789  12.963  19.254  0.00  0.00    +0.000 A 
ATOM      5  C   UNL     1       9.494  12.242  20.413  0.00  0.00    +0.000 A 
ATOM      6  C   UNL     1       9.221  10.868  20.335  0.00  0.00    +0.000 A 
ENDROOT
BRANCH   1   9
ATOM      7  C   UNL     1       8.125   8.149  18.209  0.00  0.00    +0.000 C 
ATOM      8  O   UNL     1       7.600   8.635  17.211  0.00  0.00    +0.000 OA
ATOM      9  N   UNL     1       8.965   8.814  19.096  0.00  0.00    +0.000 N 
ATOM     10  H   UNL     1       9.454   8.235  19.769  0.00  0.00    +0.000 HD
BRANCH   7  11
ATOM     11  C   UNL     1       7.863   6.690  18.602  0.00  0.00    +0.000 C 
BRANCH  11  12
ATOM     12  O   UNL     1       7.805   5.878  17.436  0.00  0.00    +0.000 OA
BRANCH  12  16
ATOM     13  C   UNL     1       4.240   3.712  17.245  0.00  0.00    +0.000 A 
ATOM     14  C   UNL     1       4.891   3.951  18.455  0.00  0.00    +0.000 A 
ATOM     15  C   UNL     1       6.088   4.672  18.483  0.00  0.00    +0.000 A 
ATOM     16  C   UNL     1       6.665   5.131  17.297  0.00  0.00    +0.000 A 
ATOM     17  C   UNL     1       6.030   4.866  16.084  0.00  0.00    +0.000 A 
ATOM     18  C   UNL     1       4.820   4.157  16.058  0.00  0.00    +0.000 A 
BRANCH  13  20
ATOM     19  C   UNL     1       2.797   2.427  18.606  0.00  0.00    +0.000 C 
ATOM     20  O   UNL     1       3.069   3.009  17.334  0.00  0.00    +0.000 OA
ENDBRANCH  13  20
ENDBRANCH  12  16
ENDBRANCH  11  12
ENDBRANCH   7  11
ENDBRANCH   1   9
BRANCH   4  21
ATOM     21  S   UNL     1      10.222  14.694  19.358  0.00  0.00    +0.000 S 
ATOM     22  O   UNL     1       9.727  15.163  20.637  0.00  0.00    +0.000 OA
ATOM     23  O   UNL     1      11.625  14.807  19.017  0.00  0.00    +0.000 OA
BRANCH  21  24
ATOM     24  N   UNL     1       9.336  15.485  18.159  0.00  0.00    +0.000 NA
ATOM     25  C   UNL     1       9.799  16.786  17.620  0.00  0.00    +0.000 C 
ATOM     26  C   UNL     1       9.105  17.946  18.341  0.00  0.00    +0.000 C 
ATOM     27  O   UNL     1       7.675  17.825  18.298  0.00  0.00    +0.000 OA
ATOM     28  C   UNL     1       7.220  16.575  18.839  0.00  0.00    +0.000 C 
ATOM     29  C   UNL     1       7.858  15.385  18.122  0.00  0.00    +0.000 C 
ENDBRANCH  21  24
ENDBRANCH   4  21
TORSDOF 7
ENDMDL
MODEL 9
REMARK VINA RESULT:      -7.4      5.982      9.147
REMARK  Name = 
REMARK  8 active torsions:
REMARK  status: ('A' for Active; 'I' for Inactive)
REMARK    1  A    between atoms: C_1  and  O_2
REMARK    2  A    between atoms: O_2  and  C_3
REMARK    3  A    between atoms: C_6  and  O_7
REMARK    4  A    between atoms: O_7  and  C_8
REMARK    5  A    between atoms: C_8  and  C_9
REMARK    6  A    between atoms: N_11  and  C_12
REMARK    7  A    between atoms: C_15  and  S_16
REMARK    8  A    between atoms: S_16  and  N_19
REMARK                            x       y       z     vdW  Elec       q    Type
REMARK                         _______ _______ _______ _____ _____    ______ ____
ROOT
ATOM      1  C   UNL     1       1.446   7.305  20.545  0.00  0.00    +0.000 A 
ATOM      2  C   UNL     1       2.111   7.768  19.407  0.00  0.00    +0.000 A 
ATOM      3  C   UNL     1       3.012   6.949  18.710  0.00  0.00    +0.000 A 
ATOM      4  C   UNL     1       3.275   5.657  19.168  0.00  0.00    +0.000 A 
ATOM      5  C   UNL     1       2.583   5.162  20.276  0.00  0.00    +0.000 A 
ATOM      6  C   UNL     1       1.688   5.989  20.971  0.00  0.00    +0.000 A 
ENDROOT
BRANCH   1   9
ATOM      7  C   UNL     1       0.876   9.045  22.265  0.00  0.00    +0.000 C 
ATOM      8  O   UNL     1       2.007   9.446  22.525  0.00  0.00    +0.000 OA
ATOM      9  N   UNL     1       0.550   8.089  21.308  0.00  0.00    +0.000 N 
ATOM     10  H   UNL     1      -0.436   7.991  21.091  0.00  0.00    +0.000 HD
BRANCH   7  11
ATOM     11  C   UNL     1      -0.341   9.570  23.035  0.00  0.00    +0.000 C 
BRANCH  11  12
ATOM     12  O   UNL     1      -0.324  10.993  23.053  0.00  0.00    +0.000 OA
BRANCH  12  16
ATOM     13  C   UNL     1      -3.724  12.981  21.668  0.00  0.00    +0.000 A 
ATOM     14  C   UNL     1      -3.610  12.555  22.991  0.00  0.00    +0.000 A 
ATOM     15  C   UNL     1      -2.461  11.884  23.420  0.00  0.00    +0.000 A 
ATOM     16  C   UNL     1      -1.431  11.600  22.522  0.00  0.00    +0.000 A 
ATOM     17  C   UNL     1      -1.558  11.999  21.191  0.00  0.00    +0.000 A 
ATOM     18  C   UNL     1      -2.703  12.688  20.765  0.00  0.00    +0.000 A 
BRANCH  13  20
ATOM     19  C   UNL     1      -5.365  13.451  20.032  0.00  0.00    +0.000 C 
ATOM     20  O   UNL     1      -4.883  13.642  21.359  0.00  0.00    +0.000 OA
ENDBRANCH  13  20
ENDBRANCH  12  16
ENDBRANCH  11  12
ENDBRANCH   7  11
ENDBRANCH   1   9
BRANCH   4  21
ATOM     21  S   UNL     1       4.351   4.584  18.228  0.00  0.00    +0.000 S 
ATOM     22  O   UNL     1       5.482   4.287  19.084  0.00  0.00    +0.000 OA
ATOM     23  O   UNL     1       3.530   3.521  17.686  0.00  0.00    +0.000 OA
BRANCH  21  24
ATOM     24  N   UNL     1       4.931   5.497  16.933  0.00  0.00    +0.000 NA
ATOM     25  C   UNL     1       5.269   4.843  15.646  0.00  0.00    +0.000 C 
ATOM     26  C   UNL     1       6.766   4.529  15.578  0.00  0.00    +0.000 C 
ATOM     27  O   UNL     1       7.570   5.694  15.816  0.00  0.00    +0.000 OA
ATOM     28  C   UNL     1       7.262   6.319  17.071  0.00  0.00    +0.000 C 
ATOM     29  C   UNL     1       5.781   6.688  17.169  0.00  0.00    +0.000 C 
ENDBRANCH  21  24
ENDBRANCH   4  21
TORSDOF 7
ENDMDL
