MODEL 1
REMARK VINA RESULT:      -7.4      0.000      0.000
REMARK  Name = 
REMARK  4 active torsions:
REMARK  status: ('A' for Active; 'I' for Inactive)
REMARK    1  A    between atoms: C_1  and  C_2
REMARK    2  A    between atoms: C_4  and  C_5
REMARK    3  A    between atoms: N_10  and  C_11
REMARK    4  A    between atoms: C_18  and  C_19
REMARK                            x       y       z     vdW  Elec       q    Type
REMARK                         _______ _______ _______ _____ _____    ______ ____
ROOT
ATOM      1  C   UNL     1       4.208   4.962  17.181  0.00  0.00    +0.000 A 
ATOM      2  C   UNL     1       3.221   3.997  17.161  0.00  0.00    +0.000 A 
ATOM      3  C   UNL     1       2.177   4.203  18.014  0.00  0.00    +0.000 A 
ATOM      4  N   UNL     1       2.086   5.276  18.811  0.00  0.00    +0.000 NA
ATOM      5  C   UNL     1       3.090   6.168  18.783  0.00  0.00    +0.000 A 
ATOM      6  N   UNL     1       3.026   7.274  19.631  0.00  0.00    +0.000 N 
ATOM      7  N   UNL     1       4.172   6.034  17.999  0.00  0.00    +0.000 NA
ATOM      8  H   UNL     1       3.882   7.807  19.589  0.00  0.00    +0.000 HD
ENDROOT
BRANCH   1  12
ATOM      9  C   UNL     1       7.244   4.436  13.099  0.00  0.00    +0.000 C 
ATOM     10  C   UNL     1       6.608   4.601  14.420  0.00  0.00    +0.000 A 
ATOM     11  C   UNL     1       5.305   4.746  14.834  0.00  0.00    +0.000 A 
ATOM     12  C   UNL     1       5.328   4.844  16.258  0.00  0.00    +0.000 A 
ATOM     13  C   UNL     1       6.664   4.757  16.614  0.00  0.00    +0.000 A 
ATOM     14  C   UNL     1       7.409   4.753  17.890  0.00  0.00    +0.000 C 
ATOM     15  O   UNL     1       7.439   4.611  15.498  0.00  0.00    +0.000 OA
ENDBRANCH   1  12
BRANCH   6  16
ATOM     16  C   UNL     1       1.880   8.018  19.967  0.00  0.00    +0.000 A 
ATOM     17  C   UNL     1       1.419   9.006  19.088  0.00  0.00    +0.000 A 
ATOM     18  C   UNL     1       0.313   9.797  19.416  0.00  0.00    +0.000 A 
ATOM     19  C   UNL     1      -0.361   9.596  20.619  0.00  0.00    +0.000 A 
ATOM     20  C   UNL     1       0.073   8.608  21.496  0.00  0.00    +0.000 A 
ATOM     21  C   UNL     1       1.188   7.831  21.172  0.00  0.00    +0.000 A 
ENDBRANCH   6  16
TORSDOF 2
ENDMDL
MODEL 2
REMARK VINA RESULT:      -7.2      0.071      1.078
REMARK  Name = 
REMARK  4 active torsions:
REMARK  status: ('A' for Active; 'I' for Inactive)
REMARK    1  A    between atoms: C_1  and  C_2
REMARK    2  A    between atoms: C_4  and  C_5
REMARK    3  A    between atoms: N_10  and  C_11
REMARK    4  A    between atoms: C_18  and  C_19
REMARK                            x       y       z     vdW  Elec       q    Type
REMARK                         _______ _______ _______ _____ _____    ______ ____
ROOT
ATOM      1  C   UNL     1       4.165   4.956  17.194  0.00  0.00    +0.000 A 
ATOM      2  C   UNL     1       3.157   4.012  17.179  0.00  0.00    +0.000 A 
ATOM      3  C   UNL     1       2.117   4.246  18.030  0.00  0.00    +0.000 A 
ATOM      4  N   UNL     1       2.048   5.326  18.820  0.00  0.00    +0.000 NA
ATOM      5  C   UNL     1       3.071   6.195  18.787  0.00  0.00    +0.000 A 
ATOM      6  N   UNL     1       3.031   7.308  19.628  0.00  0.00    +0.000 N 
ATOM      7  N   UNL     1       4.151   6.034  18.005  0.00  0.00    +0.000 NA
ATOM      8  H   UNL     1       3.898   7.822  19.584  0.00  0.00    +0.000 HD
ENDROOT
BRANCH   1  12
ATOM      9  C   UNL     1       7.191   4.321  13.121  0.00  0.00    +0.000 C 
ATOM     10  C   UNL     1       6.559   4.517  14.439  0.00  0.00    +0.000 A 
ATOM     11  C   UNL     1       5.257   4.684  14.850  0.00  0.00    +0.000 A 
ATOM     12  C   UNL     1       5.282   4.808  16.273  0.00  0.00    +0.000 A 
ATOM     13  C   UNL     1       6.617   4.713  16.629  0.00  0.00    +0.000 A 
ATOM     14  C   UNL     1       7.364   4.724  17.905  0.00  0.00    +0.000 C 
ATOM     15  O   UNL     1       7.390   4.537  15.515  0.00  0.00    +0.000 OA
ENDBRANCH   1  12
BRANCH   6  16
ATOM     16  C   UNL     1       1.901   8.078  19.959  0.00  0.00    +0.000 A 
ATOM     17  C   UNL     1       1.243   7.849  21.174  0.00  0.00    +0.000 A 
ATOM     18  C   UNL     1       0.087   8.563  21.508  0.00  0.00    +0.000 A 
ATOM     19  C   UNL     1      -0.414   9.532  20.642  0.00  0.00    +0.000 A 
ATOM     20  C   UNL     1       0.236   9.784  19.439  0.00  0.00    +0.000 A 
ATOM     21  C   UNL     1       1.380   9.058  19.101  0.00  0.00    +0.000 A 
ENDBRANCH   6  16
TORSDOF 2
ENDMDL
MODEL 3
REMARK VINA RESULT:      -7.2      2.261      3.759
REMARK  Name = 
REMARK  4 active torsions:
REMARK  status: ('A' for Active; 'I' for Inactive)
REMARK    1  A    between atoms: C_1  and  C_2
REMARK    2  A    between atoms: C_4  and  C_5
REMARK    3  A    between atoms: N_10  and  C_11
REMARK    4  A    between atoms: C_18  and  C_19
REMARK                            x       y       z     vdW  Elec       q    Type
REMARK                         _______ _______ _______ _____ _____    ______ ____
ROOT
ATOM      1  C   UNL     1       2.712   7.011  18.554  0.00  0.00    +0.000 A 
ATOM      2  C   UNL     1       2.527   6.820  19.908  0.00  0.00    +0.000 A 
ATOM      3  C   UNL     1       1.741   7.744  20.533  0.00  0.00    +0.000 A 
ATOM      4  N   UNL     1       1.160   8.765  19.887  0.00  0.00    +0.000 NA
ATOM      5  C   UNL     1       1.395   8.891  18.571  0.00  0.00    +0.000 A 
ATOM      6  N   UNL     1       0.824   9.967  17.890  0.00  0.00    +0.000 N 
ATOM      7  N   UNL     1       2.178   8.049  17.877  0.00  0.00    +0.000 NA
ATOM      8  H   UNL     1       1.158  10.007  16.939  0.00  0.00    +0.000 HD
ENDROOT
BRANCH   1  12
ATOM      9  C   UNL     1       6.197   4.550  15.733  0.00  0.00    +0.000 C 
ATOM     10  C   UNL     1       5.060   5.013  16.552  0.00  0.00    +0.000 A 
ATOM     11  C   UNL     1       4.763   6.202  17.176  0.00  0.00    +0.000 A 
ATOM     12  C   UNL     1       3.491   6.036  17.805  0.00  0.00    +0.000 A 
ATOM     13  C   UNL     1       3.104   4.737  17.519  0.00  0.00    +0.000 A 
ATOM     14  C   UNL     1       1.913   3.911  17.813  0.00  0.00    +0.000 C 
ATOM     15  O   UNL     1       4.057   4.118  16.759  0.00  0.00    +0.000 OA
ENDBRANCH   1  12
BRANCH   6  16
ATOM     16  C   UNL     1      -0.457  10.513  18.092  0.00  0.00    +0.000 A 
ATOM     17  C   UNL     1      -1.560   9.935  17.451  0.00  0.00    +0.000 A 
ATOM     18  C   UNL     1      -2.838  10.484  17.590  0.00  0.00    +0.000 A 
ATOM     19  C   UNL     1      -3.035  11.608  18.391  0.00  0.00    +0.000 A 
ATOM     20  C   UNL     1      -1.954  12.184  19.048  0.00  0.00    +0.000 A 
ATOM     21  C   UNL     1      -0.677  11.643  18.894  0.00  0.00    +0.000 A 
ENDBRANCH   6  16
TORSDOF 2
ENDMDL
MODEL 4
REMARK VINA RESULT:      -7.2      4.221      7.910
REMARK  Name = 
REMARK  4 active torsions:
REMARK  status: ('A' for Active; 'I' for Inactive)
REMARK    1  A    between atoms: C_1  and  C_2
REMARK    2  A    between atoms: C_4  and  C_5
REMARK    3  A    between atoms: N_10  and  C_11
REMARK    4  A    between atoms: C_18  and  C_19
REMARK                            x       y       z     vdW  Elec       q    Type
REMARK                         _______ _______ _______ _____ _____    ______ ____
ROOT
ATOM      1  C   UNL     1       1.260   9.207  19.509  0.00  0.00    +0.000 A 
ATOM      2  C   UNL     1       1.740   9.368  18.225  0.00  0.00    +0.000 A 
ATOM      3  C   UNL     1       2.463   8.323  17.729  0.00  0.00    +0.000 A 
ATOM      4  N   UNL     1       2.685   7.196  18.419  0.00  0.00    +0.000 NA
ATOM      5  C   UNL     1       2.195   7.116  19.667  0.00  0.00    +0.000 A 
ATOM      6  N   UNL     1       2.446   5.962  20.411  0.00  0.00    +0.000 N 
ATOM      7  N   UNL     1       1.499   8.105  20.251  0.00  0.00    +0.000 NA
ATOM      8  H   UNL     1       2.116   6.069  21.359  0.00  0.00    +0.000 HD
ENDROOT
BRANCH   1  12
ATOM      9  C   UNL     1      -0.808  12.844  22.450  0.00  0.00    +0.000 C 
ATOM     10  C   UNL     1      -0.431  11.843  21.434  0.00  0.00    +0.000 A 
ATOM     11  C   UNL     1       0.656  11.016  21.276  0.00  0.00    +0.000 A 
ATOM     12  C   UNL     1       0.432  10.254  20.089  0.00  0.00    +0.000 A 
ATOM     13  C   UNL     1      -0.790  10.684  19.599  0.00  0.00    +0.000 A 
ATOM     14  C   UNL     1      -1.643  10.319  18.448  0.00  0.00    +0.000 C 
ATOM     15  O   UNL     1      -1.311  11.648  20.415  0.00  0.00    +0.000 OA
ENDBRANCH   1  12
BRANCH   6  16
ATOM     16  C   UNL     1       2.469   4.638  19.937  0.00  0.00    +0.000 A 
ATOM     17  C   UNL     1       1.265   3.937  19.793  0.00  0.00    +0.000 A 
ATOM     18  C   UNL     1       1.258   2.603  19.373  0.00  0.00    +0.000 A 
ATOM     19  C   UNL     1       2.456   1.957  19.070  0.00  0.00    +0.000 A 
ATOM     20  C   UNL     1       3.659   2.643  19.191  0.00  0.00    +0.000 A 
ATOM     21  C   UNL     1       3.663   3.970  19.627  0.00  0.00    +0.000 A 
ENDBRANCH   6  16
TORSDOF 2
ENDMDL
MODEL 5
REMARK VINA RESULT:      -7.2      2.238      3.759
REMARK  Name = 
REMARK  4 active torsions:
REMARK  status: ('A' for Active; 'I' for Inactive)
REMARK    1  A    between atoms: C_1  and  C_2
REMARK    2  A    between atoms: C_4  and  C_5
REMARK    3  A    between atoms: N_10  and  C_11
REMARK    4  A    between atoms: C_18  and  C_19
REMARK                            x       y       z     vdW  Elec       q    Type
REMARK                         _______ _______ _______ _____ _____    ______ ____
ROOT
ATOM      1  C   UNL     1       2.722   7.002  18.541  0.00  0.00    +0.000 A 
ATOM      2  C   UNL     1       2.526   6.814  19.894  0.00  0.00    +0.000 A 
ATOM      3  C   UNL     1       1.750   7.750  20.514  0.00  0.00    +0.000 A 
ATOM      4  N   UNL     1       1.188   8.779  19.865  0.00  0.00    +0.000 NA
ATOM      5  C   UNL     1       1.432   8.901  18.550  0.00  0.00    +0.000 A 
ATOM      6  N   UNL     1       0.882   9.986  17.866  0.00  0.00    +0.000 N 
ATOM      7  N   UNL     1       2.208   8.048  17.861  0.00  0.00    +0.000 NA
ATOM      8  H   UNL     1       1.222  10.021  16.917  0.00  0.00    +0.000 HD
ENDROOT
BRANCH   1  12
ATOM      9  C   UNL     1       6.181   4.494  15.730  0.00  0.00    +0.000 C 
ATOM     10  C   UNL     1       5.049   4.971  16.548  0.00  0.00    +0.000 A 
ATOM     11  C   UNL     1       4.764   6.166  17.165  0.00  0.00    +0.000 A 
ATOM     12  C   UNL     1       3.492   6.015  17.797  0.00  0.00    +0.000 A 
ATOM     13  C   UNL     1       3.092   4.719  17.520  0.00  0.00    +0.000 A 
ATOM     14  C   UNL     1       1.895   3.905  17.820  0.00  0.00    +0.000 C 
ATOM     15  O   UNL     1       4.038   4.087  16.762  0.00  0.00    +0.000 OA
ENDBRANCH   1  12
BRANCH   6  16
ATOM     16  C   UNL     1      -0.392  10.550  18.060  0.00  0.00    +0.000 A 
ATOM     17  C   UNL     1      -0.527  11.685  18.870  0.00  0.00    +0.000 A 
ATOM     18  C   UNL     1      -1.785  12.239  19.124  0.00  0.00    +0.000 A 
ATOM     19  C   UNL     1      -2.926  11.679  18.552  0.00  0.00    +0.000 A 
ATOM     20  C   UNL     1      -2.809  10.563  17.731  0.00  0.00    +0.000 A 
ATOM     21  C   UNL     1      -1.553  10.002  17.493  0.00  0.00    +0.000 A 
ENDBRANCH   6  16
TORSDOF 2
ENDMDL
MODEL 6
REMARK VINA RESULT:      -7.2      4.278      7.889
REMARK  Name = 
REMARK  4 active torsions:
REMARK  status: ('A' for Active; 'I' for Inactive)
REMARK    1  A    between atoms: C_1  and  C_2
REMARK    2  A    between atoms: C_4  and  C_5
REMARK    3  A    between atoms: N_10  and  C_11
REMARK    4  A    between atoms: C_18  and  C_19
REMARK                            x       y       z     vdW  Elec       q    Type
REMARK                         _______ _______ _______ _____ _____    ______ ____
ROOT
ATOM      1  C   UNL     1       1.249   9.296  19.493  0.00  0.00    +0.000 A 
ATOM      2  C   UNL     1       1.733   9.396  18.204  0.00  0.00    +0.000 A 
ATOM      3  C   UNL     1       2.426   8.313  17.748  0.00  0.00    +0.000 A 
ATOM      4  N   UNL     1       2.617   7.206  18.479  0.00  0.00    +0.000 NA
ATOM      5  C   UNL     1       2.125   7.186  19.729  0.00  0.00    +0.000 A 
ATOM      6  N   UNL     1       2.343   6.055  20.516  0.00  0.00    +0.000 N 
ATOM      7  N   UNL     1       1.457   8.215  20.275  0.00  0.00    +0.000 NA
ATOM      8  H   UNL     1       2.017   6.206  21.458  0.00  0.00    +0.000 HD
ENDROOT
BRANCH   1  12
ATOM      9  C   UNL     1      -0.686  13.132  22.266  0.00  0.00    +0.000 C 
ATOM     10  C   UNL     1      -0.352  12.066  21.303  0.00  0.00    +0.000 A 
ATOM     11  C   UNL     1       0.721  11.218  21.162  0.00  0.00    +0.000 A 
ATOM     12  C   UNL     1       0.450  10.386  20.033  0.00  0.00    +0.000 A 
ATOM     13  C   UNL     1      -0.783  10.798  19.557  0.00  0.00    +0.000 A 
ATOM     14  C   UNL     1      -1.678  10.373  18.460  0.00  0.00    +0.000 C 
ATOM     15  O   UNL     1      -1.268  11.818  20.328  0.00  0.00    +0.000 OA
ENDBRANCH   1  12
BRANCH   6  16
ATOM     16  C   UNL     1       2.330   4.713  20.091  0.00  0.00    +0.000 A 
ATOM     17  C   UNL     1       3.535   4.088  19.746  0.00  0.00    +0.000 A 
ATOM     18  C   UNL     1       3.549   2.773  19.271  0.00  0.00    +0.000 A 
ATOM     19  C   UNL     1       2.360   2.056  19.156  0.00  0.00    +0.000 A 
ATOM     20  C   UNL     1       1.156   2.655  19.511  0.00  0.00    +0.000 A 
ATOM     21  C   UNL     1       1.144   3.974  19.968  0.00  0.00    +0.000 A 
ENDBRANCH   6  16
TORSDOF 2
ENDMDL
MODEL 7
REMARK VINA RESULT:      -7.1      3.017      7.636
REMARK  Name = 
REMARK  4 active torsions:
REMARK  status: ('A' for Active; 'I' for Inactive)
REMARK    1  A    between atoms: C_1  and  C_2
REMARK    2  A    between atoms: C_4  and  C_5
REMARK    3  A    between atoms: N_10  and  C_11
REMARK    4  A    between atoms: C_18  and  C_19
REMARK                            x       y       z     vdW  Elec       q    Type
REMARK                         _______ _______ _______ _____ _____    ______ ____
ROOT
ATOM      1  C   UNL     1       4.976   4.489  18.699  0.00  0.00    +0.000 A 
ATOM      2  C   UNL     1       6.000   5.319  19.109  0.00  0.00    +0.000 A 
ATOM      3  C   UNL     1       7.029   5.470  18.225  0.00  0.00    +0.000 A 
ATOM      4  N   UNL     1       7.053   4.876  17.024  0.00  0.00    +0.000 NA
ATOM      5  C   UNL     1       6.025   4.074  16.699  0.00  0.00    +0.000 A 
ATOM      6  N   UNL     1       6.051   3.422  15.465  0.00  0.00    +0.000 N 
ATOM      7  N   UNL     1       4.985   3.841  17.515  0.00  0.00    +0.000 NA
ATOM      8  H   UNL     1       5.281   2.775  15.386  0.00  0.00    +0.000 HD
ENDROOT
BRANCH   1  12
ATOM      9  C   UNL     1       1.273   2.726  21.754  0.00  0.00    +0.000 C 
ATOM     10  C   UNL     1       2.209   3.481  20.898  0.00  0.00    +0.000 A 
ATOM     11  C   UNL     1       3.385   3.156  20.262  0.00  0.00    +0.000 A 
ATOM     12  C   UNL     1       3.815   4.322  19.561  0.00  0.00    +0.000 A 
ATOM     13  C   UNL     1       2.861   5.289  19.829  0.00  0.00    +0.000 A 
ATOM     14  C   UNL     1       2.649   6.693  19.418  0.00  0.00    +0.000 C 
ATOM     15  O   UNL     1       1.888   4.777  20.640  0.00  0.00    +0.000 OA
ENDBRANCH   1  12
BRANCH   6  16
ATOM     16  C   UNL     1       6.517   3.941  14.243  0.00  0.00    +0.000 A 
ATOM     17  C   UNL     1       6.096   3.357  13.042  0.00  0.00    +0.000 A 
ATOM     18  C   UNL     1       6.581   3.816  11.813  0.00  0.00    +0.000 A 
ATOM     19  C   UNL     1       7.478   4.882  11.768  0.00  0.00    +0.000 A 
ATOM     20  C   UNL     1       7.893   5.485  12.950  0.00  0.00    +0.000 A 
ATOM     21  C   UNL     1       7.420   5.012  14.176  0.00  0.00    +0.000 A 
ENDBRANCH   6  16
TORSDOF 2
ENDMDL
MODEL 8
REMARK VINA RESULT:      -7.1      1.083      1.251
REMARK  Name = 
REMARK  4 active torsions:
REMARK  status: ('A' for Active; 'I' for Inactive)
REMARK    1  A    between atoms: C_1  and  C_2
REMARK    2  A    between atoms: C_4  and  C_5
REMARK    3  A    between atoms: N_10  and  C_11
REMARK    4  A    between atoms: C_18  and  C_19
REMARK                            x       y       z     vdW  Elec       q    Type
REMARK                         _______ _______ _______ _____ _____    ______ ____
ROOT
ATOM      1  C   UNL     1       4.268   5.710  17.095  0.00  0.00    +0.000 A 
ATOM      2  C   UNL     1       3.529   4.633  17.542  0.00  0.00    +0.000 A 
ATOM      3  C   UNL     1       2.500   4.934  18.387  0.00  0.00    +0.000 A 
ATOM      4  N   UNL     1       2.198   6.187  18.753  0.00  0.00    +0.000 NA
ATOM      5  C   UNL     1       2.969   7.182  18.285  0.00  0.00    +0.000 A 
ATOM      6  N   UNL     1       2.688   8.490  18.683  0.00  0.00    +0.000 N 
ATOM      7  N   UNL     1       4.020   6.981  17.474  0.00  0.00    +0.000 NA
ATOM      8  H   UNL     1       3.396   9.126  18.349  0.00  0.00    +0.000 HD
ENDROOT
BRANCH   1  12
ATOM      9  C   UNL     1       7.181   4.286  13.140  0.00  0.00    +0.000 C 
ATOM     10  C   UNL     1       6.576   4.814  14.378  0.00  0.00    +0.000 A 
ATOM     11  C   UNL     1       5.293   4.834  14.872  0.00  0.00    +0.000 A 
ATOM     12  C   UNL     1       5.347   5.478  16.145  0.00  0.00    +0.000 A 
ATOM     13  C   UNL     1       6.677   5.814  16.334  0.00  0.00    +0.000 A 
ATOM     14  C   UNL     1       7.451   6.458  17.417  0.00  0.00    +0.000 C 
ATOM     15  O   UNL     1       7.421   5.411  15.261  0.00  0.00    +0.000 OA
ENDBRANCH   1  12
BRANCH   6  16
ATOM     16  C   UNL     1       1.417   9.063  18.869  0.00  0.00    +0.000 A 
ATOM     17  C   UNL     1       0.662   9.441  17.752  0.00  0.00    +0.000 A 
ATOM     18  C   UNL     1      -0.583  10.060  17.904  0.00  0.00    +0.000 A 
ATOM     19  C   UNL     1      -1.101  10.289  19.178  0.00  0.00    +0.000 A 
ATOM     20  C   UNL     1      -0.373   9.904  20.298  0.00  0.00    +0.000 A 
ATOM     21  C   UNL     1       0.877   9.302  20.142  0.00  0.00    +0.000 A 
ENDBRANCH   6  16
TORSDOF 2
ENDMDL
MODEL 9
REMARK VINA RESULT:      -7.1      2.694      7.516
REMARK  Name = 
REMARK  4 active torsions:
REMARK  status: ('A' for Active; 'I' for Inactive)
REMARK    1  A    between atoms: C_1  and  C_2
REMARK    2  A    between atoms: C_4  and  C_5
REMARK    3  A    between atoms: N_10  and  C_11
REMARK    4  A    between atoms: C_18  and  C_19
REMARK                            x       y       z     vdW  Elec       q    Type
REMARK                         _______ _______ _______ _____ _____    ______ ____
ROOT
ATOM      1  C   UNL     1       3.885   5.630  18.205  0.00  0.00    +0.000 A 
ATOM      2  C   UNL     1       3.645   6.932  17.814  0.00  0.00    +0.000 A 
ATOM      3  C   UNL     1       4.371   7.371  16.744  0.00  0.00    +0.000 A 
ATOM      4  N   UNL     1       5.248   6.597  16.090  0.00  0.00    +0.000 NA
ATOM      5  C   UNL     1       5.435   5.344  16.535  0.00  0.00    +0.000 A 
ATOM      6  N   UNL     1       6.369   4.536  15.886  0.00  0.00    +0.000 N 
ATOM      7  N   UNL     1       4.790   4.835  17.597  0.00  0.00    +0.000 NA
ATOM      8  H   UNL     1       6.490   3.663  16.376  0.00  0.00    +0.000 HD
ENDROOT
BRANCH   1  12
ATOM      9  C   UNL     1       1.550   2.586  21.586  0.00  0.00    +0.000 C 
ATOM     10  C   UNL     1       2.103   3.672  20.755  0.00  0.00    +0.000 A 
ATOM     11  C   UNL     1       2.984   3.704  19.700  0.00  0.00    +0.000 A 
ATOM     12  C   UNL     1       3.109   5.070  19.301  0.00  0.00    +0.000 A 
ATOM     13  C   UNL     1       2.288   5.782  20.159  0.00  0.00    +0.000 A 
ATOM     14  C   UNL     1       1.909   7.203  20.306  0.00  0.00    +0.000 C 
ATOM     15  O   UNL     1       1.678   4.933  21.040  0.00  0.00    +0.000 OA
ENDBRANCH   1  12
BRANCH   6  16
ATOM     16  C   UNL     1       6.622   4.479  14.503  0.00  0.00    +0.000 A 
ATOM     17  C   UNL     1       5.896   3.585  13.706  0.00  0.00    +0.000 A 
ATOM     18  C   UNL     1       6.159   3.468  12.338  0.00  0.00    +0.000 A 
ATOM     19  C   UNL     1       7.138   4.261  11.742  0.00  0.00    +0.000 A 
ATOM     20  C   UNL     1       7.857   5.166  12.514  0.00  0.00    +0.000 A 
ATOM     21  C   UNL     1       7.603   5.268  13.883  0.00  0.00    +0.000 A 
ENDBRANCH   6  16
TORSDOF 2
ENDMDL
