MODEL 1
REMARK VINA RESULT:      -7.8      0.000      0.000
REMARK  Name = 
REMARK  2 active torsions:
REMARK  status: ('A' for Active; 'I' for Inactive)
REMARK    1  A    between atoms: C_10  and  N_11
REMARK    2  A    between atoms: N_11  and  C_12
REMARK                            x       y       z     vdW  Elec       q    Type
REMARK                         _______ _______ _______ _____ _____    ______ ____
ROOT
ATOM      1  O   UNL     1       0.868  10.632  19.532  0.00  0.00    +0.000 OA
ATOM      2  C   UNL     1       0.241  10.714  20.586  0.00  0.00    +0.000 C 
ATOM      3  N   UNL     1      -0.735  11.658  20.766  0.00  0.00    +0.000 N 
ATOM      4  C   UNL     1      -1.457  11.866  21.902  0.00  0.00    +0.000 C 
ATOM      5  S   UNL     1      -2.616  13.053  21.987  0.00  0.00    +0.000 S 
ATOM      6  N   UNL     1      -1.188  11.065  22.969  0.00  0.00    +0.000 N 
ATOM      7  C   UNL     1      -0.280  10.040  23.004  0.00  0.00    +0.000 C 
ATOM      8  O   UNL     1      -0.122   9.367  24.017  0.00  0.00    +0.000 OA
ATOM      9  C   UNL     1       0.464   9.820  21.742  0.00  0.00    +0.000 C 
ATOM     10  C   UNL     1       1.323   8.788  21.681  0.00  0.00    +0.000 C 
ATOM     11  H   UNL     1      -0.913  12.265  19.976  0.00  0.00    +0.000 HD
ATOM     12  H   UNL     1      -1.710  11.216  23.824  0.00  0.00    +0.000 HD
ENDROOT
BRANCH  10  13
ATOM     13  N   UNL     1       2.115   8.382  20.632  0.00  0.00    +0.000 N 
ATOM     14  H   UNL     1       2.802   9.069  20.311  0.00  0.00    +0.000 HD
BRANCH  13  15
ATOM     15  C   UNL     1       2.111   7.150  19.952  0.00  0.00    +0.000 A 
ATOM     16  C   UNL     1       2.482   7.014  18.610  0.00  0.00    +0.000 A 
ATOM     17  C   UNL     1       2.436   5.774  17.965  0.00  0.00    +0.000 A 
ATOM     18  C   UNL     1       2.010   4.631  18.647  0.00  0.00    +0.000 A 
ATOM     19  C   UNL     1       1.953   3.384  18.004  0.00  0.00    +0.000 A 
ATOM     20  C   UNL     1       1.522   2.249  18.691  0.00  0.00    +0.000 A 
ATOM     21  C   UNL     1       1.147   2.351  20.028  0.00  0.00    +0.000 A 
ATOM     22  C   UNL     1       1.202   3.585  20.679  0.00  0.00    +0.000 A 
ATOM     23  C   UNL     1       1.633   4.737  20.001  0.00  0.00    +0.000 A 
ATOM     24  C   UNL     1       1.692   5.996  20.634  0.00  0.00    +0.000 A 
ENDBRANCH  13  15
ENDBRANCH  10  13
TORSDOF 2
ENDMDL
MODEL 2
REMARK VINA RESULT:      -7.7      0.950      1.781
REMARK  Name = 
REMARK  2 active torsions:
REMARK  status: ('A' for Active; 'I' for Inactive)
REMARK    1  A    between atoms: C_10  and  N_11
REMARK    2  A    between atoms: N_11  and  C_12
REMARK                            x       y       z     vdW  Elec       q    Type
REMARK                         _______ _______ _______ _____ _____    ______ ____
ROOT
ATOM      1  O   UNL     1       0.556   9.903  19.110  0.00  0.00    +0.000 OA
ATOM      2  C   UNL     1       0.106  10.206  20.212  0.00  0.00    +0.000 C 
ATOM      3  N   UNL     1      -0.836  11.192  20.354  0.00  0.00    +0.000 N 
ATOM      4  C   UNL     1      -1.367  11.637  21.527  0.00  0.00    +0.000 C 
ATOM      5  S   UNL     1      -2.506  12.846  21.557  0.00  0.00    +0.000 S 
ATOM      6  N   UNL     1      -0.923  11.056  22.675  0.00  0.00    +0.000 N 
ATOM      7  C   UNL     1      -0.015  10.035  22.768  0.00  0.00    +0.000 C 
ATOM      8  O   UNL     1       0.309   9.572  23.856  0.00  0.00    +0.000 OA
ATOM      9  C   UNL     1       0.518   9.552  21.472  0.00  0.00    +0.000 C 
ATOM     10  C   UNL     1       1.363   8.507  21.482  0.00  0.00    +0.000 C 
ATOM     11  H   UNL     1      -1.143  11.635  19.498  0.00  0.00    +0.000 HD
ATOM     12  H   UNL     1      -1.302  11.385  23.554  0.00  0.00    +0.000 HD
ENDROOT
BRANCH  10  13
ATOM     13  N   UNL     1       1.979   7.883  20.422  0.00  0.00    +0.000 N 
ATOM     14  H   UNL     1       2.493   8.501  19.789  0.00  0.00    +0.000 HD
BRANCH  13  15
ATOM     15  C   UNL     1       2.003   6.513  20.101  0.00  0.00    +0.000 A 
ATOM     16  C   UNL     1       1.314   5.541  20.833  0.00  0.00    +0.000 A 
ATOM     17  C   UNL     1       1.389   4.186  20.494  0.00  0.00    +0.000 A 
ATOM     18  C   UNL     1       2.164   3.763  19.411  0.00  0.00    +0.000 A 
ATOM     19  C   UNL     1       2.252   2.405  19.069  0.00  0.00    +0.000 A 
ATOM     20  C   UNL     1       3.031   1.992  17.989  0.00  0.00    +0.000 A 
ATOM     21  C   UNL     1       3.729   2.935  17.239  0.00  0.00    +0.000 A 
ATOM     22  C   UNL     1       3.648   4.290  17.567  0.00  0.00    +0.000 A 
ATOM     23  C   UNL     1       2.868   4.722  18.652  0.00  0.00    +0.000 A 
ATOM     24  C   UNL     1       2.774   6.083  19.008  0.00  0.00    +0.000 A 
ENDBRANCH  13  15
ENDBRANCH  10  13
TORSDOF 2
ENDMDL
MODEL 3
REMARK VINA RESULT:      -7.5      0.770      1.890
REMARK  Name = 
REMARK  2 active torsions:
REMARK  status: ('A' for Active; 'I' for Inactive)
REMARK    1  A    between atoms: C_10  and  N_11
REMARK    2  A    between atoms: N_11  and  C_12
REMARK                            x       y       z     vdW  Elec       q    Type
REMARK                         _______ _______ _______ _____ _____    ______ ____
ROOT
ATOM      1  O   UNL     1       0.073   8.915  23.117  0.00  0.00    +0.000 OA
ATOM      2  C   UNL     1      -0.321   9.912  22.517  0.00  0.00    +0.000 C 
ATOM      3  N   UNL     1      -1.158  10.820  23.111  0.00  0.00    +0.000 N 
ATOM      4  C   UNL     1      -1.689  11.931  22.527  0.00  0.00    +0.000 C 
ATOM      5  S   UNL     1      -2.696  12.952  23.365  0.00  0.00    +0.000 S 
ATOM      6  N   UNL     1      -1.366  12.168  21.226  0.00  0.00    +0.000 N 
ATOM      7  C   UNL     1      -0.526  11.416  20.450  0.00  0.00    +0.000 C 
ATOM      8  O   UNL     1      -0.290  11.725  19.287  0.00  0.00    +0.000 OA
ATOM      9  C   UNL     1       0.060  10.234  21.125  0.00  0.00    +0.000 C 
ATOM     10  C   UNL     1       0.947   9.487  20.446  0.00  0.00    +0.000 C 
ATOM     11  H   UNL     1      -1.412  10.624  24.071  0.00  0.00    +0.000 HD
ATOM     12  H   UNL     1      -1.762  12.984  20.777  0.00  0.00    +0.000 HD
ENDROOT
BRANCH  10  13
ATOM     13  N   UNL     1       1.622   8.360  20.854  0.00  0.00    +0.000 N 
ATOM     14  H   UNL     1       1.985   8.390  21.810  0.00  0.00    +0.000 HD
BRANCH  13  15
ATOM     15  C   UNL     1       1.871   7.175  20.137  0.00  0.00    +0.000 A 
ATOM     16  C   UNL     1       2.437   7.158  18.858  0.00  0.00    +0.000 A 
ATOM     17  C   UNL     1       2.641   5.957  18.170  0.00  0.00    +0.000 A 
ATOM     18  C   UNL     1       2.277   4.736  18.742  0.00  0.00    +0.000 A 
ATOM     19  C   UNL     1       2.470   3.527  18.055  0.00  0.00    +0.000 A 
ATOM     20  C   UNL     1       2.099   2.313  18.632  0.00  0.00    +0.000 A 
ATOM     21  C   UNL     1       1.533   2.297  19.904  0.00  0.00    +0.000 A 
ATOM     22  C   UNL     1       1.338   3.492  20.600  0.00  0.00    +0.000 A 
ATOM     23  C   UNL     1       1.706   4.723  20.032  0.00  0.00    +0.000 A 
ATOM     24  C   UNL     1       1.514   5.944  20.710  0.00  0.00    +0.000 A 
ENDBRANCH  13  15
ENDBRANCH  10  13
TORSDOF 2
ENDMDL
MODEL 4
REMARK VINA RESULT:      -7.5      1.011      1.011
REMARK  Name = 
REMARK  2 active torsions:
REMARK  status: ('A' for Active; 'I' for Inactive)
REMARK    1  A    between atoms: C_10  and  N_11
REMARK    2  A    between atoms: N_11  and  C_12
REMARK                            x       y       z     vdW  Elec       q    Type
REMARK                         _______ _______ _______ _____ _____    ______ ____
ROOT
ATOM      1  O   UNL     1      -0.193  10.724  19.099  0.00  0.00    +0.000 OA
ATOM      2  C   UNL     1      -0.520  10.871  20.274  0.00  0.00    +0.000 C 
ATOM      3  N   UNL     1      -1.471  11.787  20.643  0.00  0.00    +0.000 N 
ATOM      4  C   UNL     1      -1.875  12.064  21.914  0.00  0.00    +0.000 C 
ATOM      5  S   UNL     1      -3.042  13.205  22.222  0.00  0.00    +0.000 S 
ATOM      6  N   UNL     1      -1.280  11.371  22.923  0.00  0.00    +0.000 N 
ATOM      7  C   UNL     1      -0.333  10.392  22.786  0.00  0.00    +0.000 C 
ATOM      8  O   UNL     1       0.132   9.817  23.764  0.00  0.00    +0.000 OA
ATOM      9  C   UNL     1       0.060  10.092  21.389  0.00  0.00    +0.000 C 
ATOM     10  C   UNL     1       0.934   9.095  21.173  0.00  0.00    +0.000 C 
ATOM     11  H   UNL     1      -1.892  12.315  19.888  0.00  0.00    +0.000 HD
ATOM     12  H   UNL     1      -1.564  11.575  23.874  0.00  0.00    +0.000 HD
ENDROOT
BRANCH  10  13
ATOM     13  N   UNL     1       1.442   8.632  19.981  0.00  0.00    +0.000 N 
ATOM     14  H   UNL     1       1.412   9.297  19.205  0.00  0.00    +0.000 HD
BRANCH  13  15
ATOM     15  C   UNL     1       2.002   7.373  19.693  0.00  0.00    +0.000 A 
ATOM     16  C   UNL     1       2.707   7.099  18.517  0.00  0.00    +0.000 A 
ATOM     17  C   UNL     1       3.222   5.824  18.259  0.00  0.00    +0.000 A 
ATOM     18  C   UNL     1       3.040   4.782  19.172  0.00  0.00    +0.000 A 
ATOM     19  C   UNL     1       3.546   3.498  18.917  0.00  0.00    +0.000 A 
ATOM     20  C   UNL     1       3.355   2.464  19.832  0.00  0.00    +0.000 A 
ATOM     21  C   UNL     1       2.658   2.704  21.013  0.00  0.00    +0.000 A 
ATOM     22  C   UNL     1       2.152   3.978  21.280  0.00  0.00    +0.000 A 
ATOM     23  C   UNL     1       2.335   5.031  20.368  0.00  0.00    +0.000 A 
ATOM     24  C   UNL     1       1.829   6.324  20.611  0.00  0.00    +0.000 A 
ENDBRANCH  13  15
ENDBRANCH  10  13
TORSDOF 2
ENDMDL
MODEL 5
REMARK VINA RESULT:      -7.5      4.890      7.782
REMARK  Name = 
REMARK  2 active torsions:
REMARK  status: ('A' for Active; 'I' for Inactive)
REMARK    1  A    between atoms: C_10  and  N_11
REMARK    2  A    between atoms: N_11  and  C_12
REMARK                            x       y       z     vdW  Elec       q    Type
REMARK                         _______ _______ _______ _____ _____    ______ ____
ROOT
ATOM      1  O   UNL     1       2.456   4.912  17.455  0.00  0.00    +0.000 OA
ATOM      2  C   UNL     1       3.680   4.809  17.434  0.00  0.00    +0.000 C 
ATOM      3  N   UNL     1       4.348   4.432  16.298  0.00  0.00    +0.000 N 
ATOM      4  C   UNL     1       5.691   4.244  16.176  0.00  0.00    +0.000 C 
ATOM      5  S   UNL     1       6.373   3.783  14.733  0.00  0.00    +0.000 S 
ATOM      6  N   UNL     1       6.454   4.443  17.286  0.00  0.00    +0.000 N 
ATOM      7  C   UNL     1       6.006   4.851  18.514  0.00  0.00    +0.000 C 
ATOM      8  O   UNL     1       6.781   5.015  19.450  0.00  0.00    +0.000 OA
ATOM      9  C   UNL     1       4.544   5.079  18.603  0.00  0.00    +0.000 C 
ATOM     10  C   UNL     1       4.042   5.546  19.759  0.00  0.00    +0.000 C 
ATOM     11  H   UNL     1       3.771   4.263  15.483  0.00  0.00    +0.000 HD
ATOM     12  H   UNL     1       7.452   4.296  17.211  0.00  0.00    +0.000 HD
ENDROOT
BRANCH  10  13
ATOM     13  N   UNL     1       2.737   5.838  20.080  0.00  0.00    +0.000 N 
ATOM     14  H   UNL     1       2.174   5.041  20.390  0.00  0.00    +0.000 HD
BRANCH  13  15
ATOM     15  C   UNL     1       2.078   7.081  20.047  0.00  0.00    +0.000 A 
ATOM     16  C   UNL     1       2.106   7.934  18.939  0.00  0.00    +0.000 A 
ATOM     17  C   UNL     1       1.459   9.175  18.961  0.00  0.00    +0.000 A 
ATOM     18  C   UNL     1       0.771   9.601  20.100  0.00  0.00    +0.000 A 
ATOM     19  C   UNL     1       0.127  10.848  20.133  0.00  0.00    +0.000 A 
ATOM     20  C   UNL     1      -0.554  11.267  21.275  0.00  0.00    +0.000 A 
ATOM     21  C   UNL     1      -0.600  10.441  22.395  0.00  0.00    +0.000 A 
ATOM     22  C   UNL     1       0.034   9.196  22.374  0.00  0.00    +0.000 A 
ATOM     23  C   UNL     1       0.725   8.760  21.231  0.00  0.00    +0.000 A 
ATOM     24  C   UNL     1       1.377   7.511  21.187  0.00  0.00    +0.000 A 
ENDBRANCH  13  15
ENDBRANCH  10  13
TORSDOF 2
ENDMDL
MODEL 6
REMARK VINA RESULT:      -7.4      7.661     10.236
REMARK  Name = 
REMARK  2 active torsions:
REMARK  status: ('A' for Active; 'I' for Inactive)
REMARK    1  A    between atoms: C_10  and  N_11
REMARK    2  A    between atoms: N_11  and  C_12
REMARK                            x       y       z     vdW  Elec       q    Type
REMARK                         _______ _______ _______ _____ _____    ______ ____
ROOT
ATOM      1  O   UNL     1       7.484   5.913  19.913  0.00  0.00    +0.000 OA
ATOM      2  C   UNL     1       6.701   5.605  19.018  0.00  0.00    +0.000 C 
ATOM      3  N   UNL     1       5.835   4.552  19.156  0.00  0.00    +0.000 N 
ATOM      4  C   UNL     1       4.961   4.097  18.215  0.00  0.00    +0.000 C 
ATOM      5  S   UNL     1       3.964   2.803  18.513  0.00  0.00    +0.000 S 
ATOM      6  N   UNL     1       4.941   4.743  17.016  0.00  0.00    +0.000 N 
ATOM      7  C   UNL     1       5.693   5.834  16.671  0.00  0.00    +0.000 C 
ATOM      8  O   UNL     1       5.590   6.351  15.564  0.00  0.00    +0.000 OA
ATOM      9  C   UNL     1       6.609   6.323  17.729  0.00  0.00    +0.000 C 
ATOM     10  C   UNL     1       7.328   7.432  17.485  0.00  0.00    +0.000 C 
ATOM     11  H   UNL     1       5.872   4.063  20.041  0.00  0.00    +0.000 HD
ATOM     12  H   UNL     1       4.304   4.408  16.304  0.00  0.00    +0.000 HD
ENDROOT
BRANCH  10  13
ATOM     13  N   UNL     1       8.231   8.074  18.301  0.00  0.00    +0.000 N 
ATOM     14  H   UNL     1       8.760   7.467  18.932  0.00  0.00    +0.000 HD
BRANCH  13  15
ATOM     15  C   UNL     1       8.526   9.448  18.376  0.00  0.00    +0.000 A 
ATOM     16  C   UNL     1       7.985  10.398  17.503  0.00  0.00    +0.000 A 
ATOM     17  C   UNL     1       8.329  11.751  17.597  0.00  0.00    +0.000 A 
ATOM     18  C   UNL     1       9.233  12.191  18.567  0.00  0.00    +0.000 A 
ATOM     19  C   UNL     1       9.590  13.546  18.662  0.00  0.00    +0.000 A 
ATOM     20  C   UNL     1      10.496  13.976  19.631  0.00  0.00    +0.000 A 
ATOM     21  C   UNL     1      11.052  13.056  20.515  0.00  0.00    +0.000 A 
ATOM     22  C   UNL     1      10.703  11.706  20.433  0.00  0.00    +0.000 A 
ATOM     23  C   UNL     1       9.792  11.256  19.463  0.00  0.00    +0.000 A 
ATOM     24  C   UNL     1       9.428   9.899  19.354  0.00  0.00    +0.000 A 
ENDBRANCH  13  15
ENDBRANCH  10  13
TORSDOF 2
ENDMDL
MODEL 7
REMARK VINA RESULT:      -7.4      5.581      8.344
REMARK  Name = 
REMARK  2 active torsions:
REMARK  status: ('A' for Active; 'I' for Inactive)
REMARK    1  A    between atoms: C_10  and  N_11
REMARK    2  A    between atoms: N_11  and  C_12
REMARK                            x       y       z     vdW  Elec       q    Type
REMARK                         _______ _______ _______ _____ _____    ______ ____
ROOT
ATOM      1  O   UNL     1       3.477   4.211  16.651  0.00  0.00    +0.000 OA
ATOM      2  C   UNL     1       4.690   4.316  16.492  0.00  0.00    +0.000 C 
ATOM      3  N   UNL     1       5.255   4.283  15.244  0.00  0.00    +0.000 N 
ATOM      4  C   UNL     1       6.585   4.345  14.957  0.00  0.00    +0.000 C 
ATOM      5  S   UNL     1       7.137   4.294  13.391  0.00  0.00    +0.000 S 
ATOM      6  N   UNL     1       7.446   4.443  16.007  0.00  0.00    +0.000 N 
ATOM      7  C   UNL     1       7.105   4.523  17.330  0.00  0.00    +0.000 C 
ATOM      8  O   UNL     1       7.962   4.623  18.202  0.00  0.00    +0.000 OA
ATOM      9  C   UNL     1       5.649   4.488  17.605  0.00  0.00    +0.000 C 
ATOM     10  C   UNL     1       5.237   4.630  18.876  0.00  0.00    +0.000 C 
ATOM     11  H   UNL     1       4.609   4.186  14.470  0.00  0.00    +0.000 HD
ATOM     12  H   UNL     1       8.438   4.479  15.808  0.00  0.00    +0.000 HD
ENDROOT
BRANCH  10  13
ATOM     13  N   UNL     1       3.955   4.636  19.375  0.00  0.00    +0.000 N 
ATOM     14  H   UNL     1       3.564   3.714  19.585  0.00  0.00    +0.000 HD
BRANCH  13  15
ATOM     15  C   UNL     1       3.119   5.736  19.640  0.00  0.00    +0.000 A 
ATOM     16  C   UNL     1       2.298   5.820  20.769  0.00  0.00    +0.000 A 
ATOM     17  C   UNL     1       1.460   6.921  20.978  0.00  0.00    +0.000 A 
ATOM     18  C   UNL     1       1.417   7.970  20.057  0.00  0.00    +0.000 A 
ATOM     19  C   UNL     1       0.573   9.074  20.255  0.00  0.00    +0.000 A 
ATOM     20  C   UNL     1       0.533  10.114  19.327  0.00  0.00    +0.000 A 
ATOM     21  C   UNL     1       1.338  10.061  18.193  0.00  0.00    +0.000 A 
ATOM     22  C   UNL     1       2.184   8.969  17.985  0.00  0.00    +0.000 A 
ATOM     23  C   UNL     1       2.236   7.913  18.910  0.00  0.00    +0.000 A 
ATOM     24  C   UNL     1       3.077   6.797  18.721  0.00  0.00    +0.000 A 
ENDBRANCH  13  15
ENDBRANCH  10  13
TORSDOF 2
ENDMDL
MODEL 8
REMARK VINA RESULT:      -7.4      4.598      7.483
REMARK  Name = 
REMARK  2 active torsions:
REMARK  status: ('A' for Active; 'I' for Inactive)
REMARK    1  A    between atoms: C_10  and  N_11
REMARK    2  A    between atoms: N_11  and  C_12
REMARK                            x       y       z     vdW  Elec       q    Type
REMARK                         _______ _______ _______ _____ _____    ______ ____
ROOT
ATOM      1  O   UNL     1       1.614   5.115  17.788  0.00  0.00    +0.000 OA
ATOM      2  C   UNL     1       2.687   4.642  18.151  0.00  0.00    +0.000 C 
ATOM      3  N   UNL     1       2.862   3.290  18.294  0.00  0.00    +0.000 N 
ATOM      4  C   UNL     1       3.990   2.663  18.731  0.00  0.00    +0.000 C 
ATOM      5  S   UNL     1       4.067   1.009  18.858  0.00  0.00    +0.000 S 
ATOM      6  N   UNL     1       5.050   3.448  19.067  0.00  0.00    +0.000 N 
ATOM      7  C   UNL     1       5.110   4.813  18.975  0.00  0.00    +0.000 C 
ATOM      8  O   UNL     1       6.122   5.426  19.293  0.00  0.00    +0.000 OA
ATOM      9  C   UNL     1       3.878   5.460  18.464  0.00  0.00    +0.000 C 
ATOM     10  C   UNL     1       3.887   6.791  18.282  0.00  0.00    +0.000 C 
ATOM     11  H   UNL     1       2.061   2.715  18.064  0.00  0.00    +0.000 HD
ATOM     12  H   UNL     1       5.891   2.995  19.405  0.00  0.00    +0.000 HD
ENDROOT
BRANCH  10  13
ATOM     13  N   UNL     1       2.882   7.609  17.820  0.00  0.00    +0.000 N 
ATOM     14  H   UNL     1       2.742   7.600  16.806  0.00  0.00    +0.000 HD
BRANCH  13  15
ATOM     15  C   UNL     1       2.020   8.445  18.554  0.00  0.00    +0.000 A 
ATOM     16  C   UNL     1       1.386   9.563  18.004  0.00  0.00    +0.000 A 
ATOM     17  C   UNL     1       0.558  10.383  18.779  0.00  0.00    +0.000 A 
ATOM     18  C   UNL     1       0.348  10.110  20.133  0.00  0.00    +0.000 A 
ATOM     19  C   UNL     1      -0.474  10.933  20.919  0.00  0.00    +0.000 A 
ATOM     20  C   UNL     1      -0.674  10.654  22.270  0.00  0.00    +0.000 A 
ATOM     21  C   UNL     1      -0.057   9.548  22.848  0.00  0.00    +0.000 A 
ATOM     22  C   UNL     1       0.760   8.720  22.076  0.00  0.00    +0.000 A 
ATOM     23  C   UNL     1       0.973   8.987  20.714  0.00  0.00    +0.000 A 
ATOM     24  C   UNL     1       1.798   8.170  19.914  0.00  0.00    +0.000 A 
ENDBRANCH  13  15
ENDBRANCH  10  13
TORSDOF 2
ENDMDL
MODEL 9
REMARK VINA RESULT:      -7.4      8.368     10.808
REMARK  Name = 
REMARK  2 active torsions:
REMARK  status: ('A' for Active; 'I' for Inactive)
REMARK    1  A    between atoms: C_10  and  N_11
REMARK    2  A    between atoms: N_11  and  C_12
REMARK                            x       y       z     vdW  Elec       q    Type
REMARK                         _______ _______ _______ _____ _____    ______ ____
ROOT
ATOM      1  O   UNL     1       6.141   8.016  16.708  0.00  0.00    +0.000 OA
ATOM      2  C   UNL     1       6.332   6.932  17.254  0.00  0.00    +0.000 C 
ATOM      3  N   UNL     1       5.550   5.842  16.974  0.00  0.00    +0.000 N 
ATOM      4  C   UNL     1       5.644   4.612  17.551  0.00  0.00    +0.000 C 
ATOM      5  S   UNL     1       4.627   3.372  17.118  0.00  0.00    +0.000 S 
ATOM      6  N   UNL     1       6.602   4.439  18.503  0.00  0.00    +0.000 N 
ATOM      7  C   UNL     1       7.511   5.376  18.917  0.00  0.00    +0.000 C 
ATOM      8  O   UNL     1       8.346   5.114  19.776  0.00  0.00    +0.000 OA
ATOM      9  C   UNL     1       7.403   6.693  18.245  0.00  0.00    +0.000 C 
ATOM     10  C   UNL     1       8.306   7.640  18.551  0.00  0.00    +0.000 C 
ATOM     11  H   UNL     1       4.825   5.985  16.282  0.00  0.00    +0.000 HD
ATOM     12  H   UNL     1       6.676   3.533  18.948  0.00  0.00    +0.000 HD
ENDROOT
BRANCH  10  13
ATOM     13  N   UNL     1       8.415   8.922  18.064  0.00  0.00    +0.000 N 
ATOM     14  H   UNL     1       7.923   9.098  17.184  0.00  0.00    +0.000 HD
BRANCH  13  15
ATOM     15  C   UNL     1       9.102  10.018  18.617  0.00  0.00    +0.000 A 
ATOM     16  C   UNL     1       9.194  10.250  19.993  0.00  0.00    +0.000 A 
ATOM     17  C   UNL     1       9.865  11.370  20.498  0.00  0.00    +0.000 A 
ATOM     18  C   UNL     1      10.458  12.295  19.636  0.00  0.00    +0.000 A 
ATOM     19  C   UNL     1      11.125  13.426  20.134  0.00  0.00    +0.000 A 
ATOM     20  C   UNL     1      11.710  14.346  19.265  0.00  0.00    +0.000 A 
ATOM     21  C   UNL     1      11.636  14.144  17.890  0.00  0.00    +0.000 A 
ATOM     22  C   UNL     1      10.978  13.022  17.382  0.00  0.00    +0.000 A 
ATOM     23  C   UNL     1      10.383  12.085  18.243  0.00  0.00    +0.000 A 
ATOM     24  C   UNL     1       9.707  10.948  17.755  0.00  0.00    +0.000 A 
ENDBRANCH  13  15
ENDBRANCH  10  13
TORSDOF 2
ENDMDL
