MODEL 1
REMARK VINA RESULT:      -8.7      0.000      0.000
REMARK  Name = 
REMARK  5 active torsions:
REMARK  status: ('A' for Active; 'I' for Inactive)
REMARK    1  A    between atoms: S_2  and  C_4
REMARK    2  A    between atoms: S_2  and  N_14
REMARK    3  A    between atoms: N_17  and  C_18
REMARK    4  A    between atoms: C_18  and  N_20
REMARK    5  A    between atoms: N_20  and  C_21
REMARK                            x       y       z     vdW  Elec       q    Type
REMARK                         _______ _______ _______ _____ _____    ______ ____
ROOT
ATOM      1  N   UNL     1       1.740   2.965  19.357  0.00  0.00    +0.000 NA
ATOM      2  C   UNL     1       1.205   3.763  20.498  0.00  0.00    +0.000 C 
ATOM      3  C   UNL     1       1.841   5.148  20.577  0.00  0.00    +0.000 C 
ATOM      4  N   UNL     1       1.703   5.920  19.331  0.00  0.00    +0.000 N 
ATOM      5  C   UNL     1       2.050   5.160  18.112  0.00  0.00    +0.000 C 
ATOM      6  C   UNL     1       1.505   3.716  18.075  0.00  0.00    +0.000 C 
ENDROOT
BRANCH   1   8
ATOM      7  O   UNL     1       3.314   1.026  18.818  0.00  0.00    +0.000 OA
ATOM      8  S   UNL     1       3.303   2.297  19.506  0.00  0.00    +0.000 S 
ATOM      9  O   UNL     1       3.690   2.383  20.897  0.00  0.00    +0.000 OA
BRANCH   8  10
ATOM     10  C   UNL     1       4.345   3.419  18.595  0.00  0.00    +0.000 A 
ATOM     11  C   UNL     1       4.988   4.465  19.256  0.00  0.00    +0.000 A 
ATOM     12  C   UNL     1       5.883   5.279  18.558  0.00  0.00    +0.000 A 
ATOM     13  C   UNL     1       6.124   5.072  17.191  0.00  0.00    +0.000 A 
ATOM     14  C   UNL     1       7.060   5.855  16.493  0.00  0.00    +0.000 A 
ATOM     15  C   UNL     1       7.262   5.673  15.124  0.00  0.00    +0.000 A 
ATOM     16  C   UNL     1       6.521   4.719  14.434  0.00  0.00    +0.000 A 
ATOM     17  C   UNL     1       5.604   3.916  15.117  0.00  0.00    +0.000 A 
ATOM     18  C   UNL     1       5.408   4.063  16.501  0.00  0.00    +0.000 A 
ATOM     19  C   UNL     1       4.526   3.229  17.217  0.00  0.00    +0.000 A 
ENDBRANCH   8  10
ENDBRANCH   1   8
BRANCH   4  20
ATOM     20  C   UNL     1       2.193   7.254  19.340  0.00  0.00    +0.000 C 
ATOM     21  S   UNL     1       2.874   8.010  17.999  0.00  0.00    +0.000 S 
BRANCH  20  22
ATOM     22  N   UNL     1       2.116   7.795  20.627  0.00  0.00    +0.000 N 
ATOM     23  H   UNL     1       3.020   7.793  21.088  0.00  0.00    +0.000 HD
BRANCH  22  24
ATOM     24  C   UNL     1       1.187   8.771  21.057  0.00  0.00    +0.000 A 
ATOM     25  C   UNL     1       0.967   9.000  22.422  0.00  0.00    +0.000 A 
ATOM     26  C   UNL     1      -0.002   9.911  22.843  0.00  0.00    +0.000 A 
ATOM     27  C   UNL     1      -0.738  10.611  21.898  0.00  0.00    +0.000 A 
ATOM     28  F   UNL     1      -1.693  11.454  22.320  0.00  0.00    +0.000 F 
ATOM     29  C   UNL     1      -0.487  10.437  20.537  0.00  0.00    +0.000 A 
ATOM     30 CL   UNL     1      -1.394  11.315  19.365  0.00  0.00    +0.000 Cl
ATOM     31  C   UNL     1       0.490   9.531  20.113  0.00  0.00    +0.000 A 
ENDBRANCH  22  24
ENDBRANCH  20  22
ENDBRANCH   4  20
TORSDOF 5
ENDMDL
MODEL 2
REMARK VINA RESULT:      -8.6      1.104      2.021
REMARK  Name = 
REMARK  5 active torsions:
REMARK  status: ('A' for Active; 'I' for Inactive)
REMARK    1  A    between atoms: S_2  and  C_4
REMARK    2  A    between atoms: S_2  and  N_14
REMARK    3  A    between atoms: N_17  and  C_18
REMARK    4  A    between atoms: C_18  and  N_20
REMARK    5  A    between atoms: N_20  and  C_21
REMARK                            x       y       z     vdW  Elec       q    Type
REMARK                         _______ _______ _______ _____ _____    ______ ____
ROOT
ATOM      1  N   UNL     1       2.025   2.778  19.352  0.00  0.00    +0.000 NA
ATOM      2  C   UNL     1       1.611   3.599  20.527  0.00  0.00    +0.000 C 
ATOM      3  C   UNL     1       2.242   4.989  20.507  0.00  0.00    +0.000 C 
ATOM      4  N   UNL     1       1.965   5.731  19.266  0.00  0.00    +0.000 N 
ATOM      5  C   UNL     1       2.183   4.946  18.033  0.00  0.00    +0.000 C 
ATOM      6  C   UNL     1       1.648   3.499  18.087  0.00  0.00    +0.000 C 
ENDROOT
BRANCH   1   8
ATOM      7  O   UNL     1       3.569   0.892  18.586  0.00  0.00    +0.000 OA
ATOM      8  S   UNL     1       3.600   2.121  19.346  0.00  0.00    +0.000 S 
ATOM      9  O   UNL     1       4.088   2.131  20.708  0.00  0.00    +0.000 OA
BRANCH   8  10
ATOM     10  C   UNL     1       4.563   3.307  18.429  0.00  0.00    +0.000 A 
ATOM     11  C   UNL     1       4.392   3.427  17.051  0.00  0.00    +0.000 A 
ATOM     12  C   UNL     1       5.073   4.426  16.352  0.00  0.00    +0.000 A 
ATOM     13  C   UNL     1       5.949   5.297  17.019  0.00  0.00    +0.000 A 
ATOM     14  C   UNL     1       6.601   6.336  16.333  0.00  0.00    +0.000 A 
ATOM     15  C   UNL     1       7.505   7.169  16.993  0.00  0.00    +0.000 A 
ATOM     16  C   UNL     1       7.780   6.965  18.341  0.00  0.00    +0.000 A 
ATOM     17  C   UNL     1       7.123   5.952  19.044  0.00  0.00    +0.000 A 
ATOM     18  C   UNL     1       6.187   5.120  18.405  0.00  0.00    +0.000 A 
ATOM     19  C   UNL     1       5.477   4.127  19.107  0.00  0.00    +0.000 A 
ENDBRANCH   8  10
ENDBRANCH   1   8
BRANCH   4  20
ATOM     20  C   UNL     1       2.444   7.068  19.192  0.00  0.00    +0.000 C 
ATOM     21  S   UNL     1       3.373   7.661  17.921  0.00  0.00    +0.000 S 
BRANCH  20  22
ATOM     22  N   UNL     1       2.117   7.769  20.358  0.00  0.00    +0.000 N 
ATOM     23  H   UNL     1       2.900   7.811  21.001  0.00  0.00    +0.000 HD
BRANCH  22  24
ATOM     24  C   UNL     1       1.162   8.808  20.453  0.00  0.00    +0.000 A 
ATOM     25  C   UNL     1       0.839   9.590  19.337  0.00  0.00    +0.000 A 
ATOM     26  C   UNL     1      -0.049  10.660  19.450  0.00  0.00    +0.000 A 
ATOM     27  C   UNL     1      -0.632  10.937  20.678  0.00  0.00    +0.000 A 
ATOM     28  F   UNL     1      -1.453  11.993  20.779  0.00  0.00    +0.000 F 
ATOM     29  C   UNL     1      -0.366  10.129  21.784  0.00  0.00    +0.000 A 
ATOM     30 CL   UNL     1      -1.099  10.467  23.306  0.00  0.00    +0.000 Cl
ATOM     31  C   UNL     1       0.517   9.051  21.670  0.00  0.00    +0.000 A 
ENDBRANCH  22  24
ENDBRANCH  20  22
ENDBRANCH   4  20
TORSDOF 5
ENDMDL
MODEL 3
REMARK VINA RESULT:      -8.6      0.903      1.277
REMARK  Name = 
REMARK  5 active torsions:
REMARK  status: ('A' for Active; 'I' for Inactive)
REMARK    1  A    between atoms: S_2  and  C_4
REMARK    2  A    between atoms: S_2  and  N_14
REMARK    3  A    between atoms: N_17  and  C_18
REMARK    4  A    between atoms: C_18  and  N_20
REMARK    5  A    between atoms: N_20  and  C_21
REMARK                            x       y       z     vdW  Elec       q    Type
REMARK                         _______ _______ _______ _____ _____    ______ ____
ROOT
ATOM      1  N   UNL     1       1.886   2.876  19.638  0.00  0.00    +0.000 NA
ATOM      2  C   UNL     1       1.489   3.779  20.757  0.00  0.00    +0.000 C 
ATOM      3  C   UNL     1       2.130   5.159  20.637  0.00  0.00    +0.000 C 
ATOM      4  N   UNL     1       1.848   5.817  19.351  0.00  0.00    +0.000 N 
ATOM      5  C   UNL     1       2.049   4.948  18.172  0.00  0.00    +0.000 C 
ATOM      6  C   UNL     1       1.503   3.512  18.329  0.00  0.00    +0.000 C 
ENDROOT
BRANCH   1   8
ATOM      7  O   UNL     1       3.420   0.956  18.942  0.00  0.00    +0.000 OA
ATOM      8  S   UNL     1       3.456   2.207  19.663  0.00  0.00    +0.000 S 
ATOM      9  O   UNL     1       3.935   2.256  21.028  0.00  0.00    +0.000 OA
BRANCH   8  10
ATOM     10  C   UNL     1       4.434   3.356  18.716  0.00  0.00    +0.000 A 
ATOM     11  C   UNL     1       5.124   4.381  19.361  0.00  0.00    +0.000 A 
ATOM     12  C   UNL     1       5.971   5.215  18.627  0.00  0.00    +0.000 A 
ATOM     13  C   UNL     1       6.116   5.049  17.241  0.00  0.00    +0.000 A 
ATOM     14  C   UNL     1       7.002   5.852  16.503  0.00  0.00    +0.000 A 
ATOM     15  C   UNL     1       7.107   5.712  15.118  0.00  0.00    +0.000 A 
ATOM     16  C   UNL     1       6.318   4.779  14.453  0.00  0.00    +0.000 A 
ATOM     17  C   UNL     1       5.449   3.956  15.175  0.00  0.00    +0.000 A 
ATOM     18  C   UNL     1       5.350   4.062  16.573  0.00  0.00    +0.000 A 
ATOM     19  C   UNL     1       4.518   3.207  17.324  0.00  0.00    +0.000 A 
ENDBRANCH   8  10
ENDBRANCH   1   8
BRANCH   4  20
ATOM     20  C   UNL     1       2.336   7.142  19.182  0.00  0.00    +0.000 C 
ATOM     21  S   UNL     1       3.202   7.656  17.834  0.00  0.00    +0.000 S 
BRANCH  20  22
ATOM     22  N   UNL     1       2.081   7.906  20.325  0.00  0.00    +0.000 N 
ATOM     23  H   UNL     1       2.906   7.996  20.907  0.00  0.00    +0.000 HD
BRANCH  22  24
ATOM     24  C   UNL     1       1.116   8.936  20.428  0.00  0.00    +0.000 A 
ATOM     25  C   UNL     1       0.790   9.726  19.318  0.00  0.00    +0.000 A 
ATOM     26  C   UNL     1      -0.107  10.788  19.440  0.00  0.00    +0.000 A 
ATOM     27  C   UNL     1      -0.695  11.048  20.669  0.00  0.00    +0.000 A 
ATOM     28  F   UNL     1      -1.525  12.096  20.778  0.00  0.00    +0.000 F 
ATOM     29  C   UNL     1      -0.426  10.232  21.768  0.00  0.00    +0.000 A 
ATOM     30 CL   UNL     1      -1.166  10.548  23.290  0.00  0.00    +0.000 Cl
ATOM     31  C   UNL     1       0.466   9.161  21.645  0.00  0.00    +0.000 A 
ENDBRANCH  22  24
ENDBRANCH  20  22
ENDBRANCH   4  20
TORSDOF 5
ENDMDL
MODEL 4
REMARK VINA RESULT:      -8.6      4.720      6.846
REMARK  Name = 
REMARK  5 active torsions:
REMARK  status: ('A' for Active; 'I' for Inactive)
REMARK    1  A    between atoms: S_2  and  C_4
REMARK    2  A    between atoms: S_2  and  N_14
REMARK    3  A    between atoms: N_17  and  C_18
REMARK    4  A    between atoms: C_18  and  N_20
REMARK    5  A    between atoms: N_20  and  C_21
REMARK                            x       y       z     vdW  Elec       q    Type
REMARK                         _______ _______ _______ _____ _____    ______ ____
ROOT
ATOM      1  N   UNL     1      -0.151  10.886  18.247  0.00  0.00    +0.000 NA
ATOM      2  C   UNL     1      -1.299  10.175  17.613  0.00  0.00    +0.000 C 
ATOM      3  C   UNL     1      -2.604  10.402  18.372  0.00  0.00    +0.000 C 
ATOM      4  N   UNL     1      -2.937  11.826  18.536  0.00  0.00    +0.000 N 
ATOM      5  C   UNL     1      -1.809  12.658  19.004  0.00  0.00    +0.000 C 
ATOM      6  C   UNL     1      -0.458  12.356  18.320  0.00  0.00    +0.000 C 
ENDROOT
BRANCH   1   8
ATOM      7  O   UNL     1      -0.580   9.700  20.469  0.00  0.00    +0.000 OA
ATOM      8  S   UNL     1       0.507  10.231  19.679  0.00  0.00    +0.000 S 
ATOM      9  O   UNL     1       1.412  11.212  20.238  0.00  0.00    +0.000 OA
BRANCH   8  10
ATOM     10  C   UNL     1       1.494   8.858  19.117  0.00  0.00    +0.000 A 
ATOM     11  C   UNL     1       2.153   8.930  17.891  0.00  0.00    +0.000 A 
ATOM     12  C   UNL     1       3.007   7.895  17.501  0.00  0.00    +0.000 A 
ATOM     13  C   UNL     1       3.190   6.770  18.320  0.00  0.00    +0.000 A 
ATOM     14  C   UNL     1       4.084   5.747  17.959  0.00  0.00    +0.000 A 
ATOM     15  C   UNL     1       4.227   4.611  18.757  0.00  0.00    +0.000 A 
ATOM     16  C   UNL     1       3.468   4.476  19.915  0.00  0.00    +0.000 A 
ATOM     17  C   UNL     1       2.592   5.494  20.301  0.00  0.00    +0.000 A 
ATOM     18  C   UNL     1       2.455   6.659  19.527  0.00  0.00    +0.000 A 
ATOM     19  C   UNL     1       1.616   7.719  19.925  0.00  0.00    +0.000 A 
ENDBRANCH   8  10
ENDBRANCH   1   8
BRANCH   4  20
ATOM     20  C   UNL     1      -4.178  12.132  19.159  0.00  0.00    +0.000 C 
ATOM     21  S   UNL     1      -5.649  11.458  18.696  0.00  0.00    +0.000 S 
BRANCH  20  22
ATOM     22  N   UNL     1      -4.007  13.129  20.125  0.00  0.00    +0.000 N 
ATOM     23  H   UNL     1      -4.205  14.050  19.750  0.00  0.00    +0.000 HD
BRANCH  22  24
ATOM     24  C   UNL     1      -4.176  12.962  21.520  0.00  0.00    +0.000 A 
ATOM     25  C   UNL     1      -3.094  12.600  22.334  0.00  0.00    +0.000 A 
ATOM     26  C   UNL     1      -3.277  12.365  23.697  0.00  0.00    +0.000 A 
ATOM     27  C   UNL     1      -4.541  12.513  24.252  0.00  0.00    +0.000 A 
ATOM     28  F   UNL     1      -4.707  12.245  25.556  0.00  0.00    +0.000 F 
ATOM     29  C   UNL     1      -5.613  12.931  23.465  0.00  0.00    +0.000 A 
ATOM     30 CL   UNL     1      -7.178  13.125  24.157  0.00  0.00    +0.000 Cl
ATOM     31  C   UNL     1      -5.429  13.176  22.100  0.00  0.00    +0.000 A 
ENDBRANCH  22  24
ENDBRANCH  20  22
ENDBRANCH   4  20
TORSDOF 5
ENDMDL
MODEL 5
REMARK VINA RESULT:      -8.5      0.725      1.577
REMARK  Name = 
REMARK  5 active torsions:
REMARK  status: ('A' for Active; 'I' for Inactive)
REMARK    1  A    between atoms: S_2  and  C_4
REMARK    2  A    between atoms: S_2  and  N_14
REMARK    3  A    between atoms: N_17  and  C_18
REMARK    4  A    between atoms: C_18  and  N_20
REMARK    5  A    between atoms: N_20  and  C_21
REMARK                            x       y       z     vdW  Elec       q    Type
REMARK                         _______ _______ _______ _____ _____    ______ ____
ROOT
ATOM      1  N   UNL     1       1.898   2.831  19.511  0.00  0.00    +0.000 NA
ATOM      2  C   UNL     1       1.516   3.646  20.702  0.00  0.00    +0.000 C 
ATOM      3  C   UNL     1       2.153   5.032  20.676  0.00  0.00    +0.000 C 
ATOM      4  N   UNL     1       1.853   5.785  19.448  0.00  0.00    +0.000 N 
ATOM      5  C   UNL     1       2.038   5.008  18.205  0.00  0.00    +0.000 C 
ATOM      6  C   UNL     1       1.496   3.564  18.260  0.00  0.00    +0.000 C 
ENDROOT
BRANCH   1   8
ATOM      7  O   UNL     1       3.412   0.940  18.701  0.00  0.00    +0.000 OA
ATOM      8  S   UNL     1       3.468   2.166  19.464  0.00  0.00    +0.000 S 
ATOM      9  O   UNL     1       3.990   2.169  20.814  0.00  0.00    +0.000 OA
BRANCH   8  10
ATOM     10  C   UNL     1       4.415   3.349  18.527  0.00  0.00    +0.000 A 
ATOM     11  C   UNL     1       4.169   3.516  17.165  0.00  0.00    +0.000 A 
ATOM     12  C   UNL     1       4.841   4.515  16.457  0.00  0.00    +0.000 A 
ATOM     13  C   UNL     1       5.782   5.338  17.096  0.00  0.00    +0.000 A 
ATOM     14  C   UNL     1       6.426   6.377  16.404  0.00  0.00    +0.000 A 
ATOM     15  C   UNL     1       7.393   7.162  17.034  0.00  0.00    +0.000 A 
ATOM     16  C   UNL     1       7.737   6.909  18.358  0.00  0.00    +0.000 A 
ATOM     17  C   UNL     1       7.089   5.895  19.068  0.00  0.00    +0.000 A 
ATOM     18  C   UNL     1       6.092   5.112  18.460  0.00  0.00    +0.000 A 
ATOM     19  C   UNL     1       5.391   4.120  19.174  0.00  0.00    +0.000 A 
ENDBRANCH   8  10
ENDBRANCH   1   8
BRANCH   4  20
ATOM     20  C   UNL     1       2.337   7.120  19.373  0.00  0.00    +0.000 C 
ATOM     21  S   UNL     1       3.036   7.787  17.995  0.00  0.00    +0.000 S 
BRANCH  20  22
ATOM     22  N   UNL     1       2.238   7.746  20.620  0.00  0.00    +0.000 N 
ATOM     23  H   UNL     1       3.138   7.796  21.086  0.00  0.00    +0.000 HD
BRANCH  22  24
ATOM     24  C   UNL     1       1.286   8.730  20.974  0.00  0.00    +0.000 A 
ATOM     25  C   UNL     1       0.885   8.893  22.307  0.00  0.00    +0.000 A 
ATOM     26  C   UNL     1      -0.107   9.814  22.644  0.00  0.00    +0.000 A 
ATOM     27  C   UNL     1      -0.686  10.589  21.649  0.00  0.00    +0.000 A 
ATOM     28  F   UNL     1      -1.665  11.442  21.985  0.00  0.00    +0.000 F 
ATOM     29  C   UNL     1      -0.254  10.480  20.328  0.00  0.00    +0.000 A 
ATOM     30 CL   UNL     1      -0.965  11.451  19.096  0.00  0.00    +0.000 Cl
ATOM     31  C   UNL     1       0.747   9.564  19.990  0.00  0.00    +0.000 A 
ENDBRANCH  22  24
ENDBRANCH  20  22
ENDBRANCH   4  20
TORSDOF 5
ENDMDL
MODEL 6
REMARK VINA RESULT:      -8.4      4.319      6.296
REMARK  Name = 
REMARK  5 active torsions:
REMARK  status: ('A' for Active; 'I' for Inactive)
REMARK    1  A    between atoms: S_2  and  C_4
REMARK    2  A    between atoms: S_2  and  N_14
REMARK    3  A    between atoms: N_17  and  C_18
REMARK    4  A    between atoms: C_18  and  N_20
REMARK    5  A    between atoms: N_20  and  C_21
REMARK                            x       y       z     vdW  Elec       q    Type
REMARK                         _______ _______ _______ _____ _____    ______ ____
ROOT
ATOM      1  N   UNL     1       1.060  10.241  19.685  0.00  0.00    +0.000 NA
ATOM      2  C   UNL     1       0.355  10.001  18.392  0.00  0.00    +0.000 C 
ATOM      3  C   UNL     1      -1.141  10.283  18.494  0.00  0.00    +0.000 C 
ATOM      4  N   UNL     1      -1.443  11.642  18.973  0.00  0.00    +0.000 N 
ATOM      5  C   UNL     1      -0.665  12.046  20.164  0.00  0.00    +0.000 C 
ATOM      6  C   UNL     1       0.830  11.662  20.118  0.00  0.00    +0.000 C 
ENDROOT
BRANCH   1   8
ATOM      7  O   UNL     1      -0.538   8.815  21.078  0.00  0.00    +0.000 OA
ATOM      8  S   UNL     1       0.873   9.086  20.928  0.00  0.00    +0.000 S 
ATOM      9  O   UNL     1       1.663   9.523  22.059  0.00  0.00    +0.000 OA
BRANCH   8  10
ATOM     10  C   UNL     1       1.645   7.617  20.277  0.00  0.00    +0.000 A 
ATOM     11  C   UNL     1       1.374   6.376  20.850  0.00  0.00    +0.000 A 
ATOM     12  C   UNL     1       1.899   5.217  20.273  0.00  0.00    +0.000 A 
ATOM     13  C   UNL     1       2.720   5.290  19.137  0.00  0.00    +0.000 A 
ATOM     14  C   UNL     1       3.213   4.127  18.521  0.00  0.00    +0.000 A 
ATOM     15  C   UNL     1       4.064   4.210  17.419  0.00  0.00    +0.000 A 
ATOM     16  C   UNL     1       4.445   5.454  16.928  0.00  0.00    +0.000 A 
ATOM     17  C   UNL     1       3.945   6.621  17.513  0.00  0.00    +0.000 A 
ATOM     18  C   UNL     1       3.063   6.559  18.606  0.00  0.00    +0.000 A 
ATOM     19  C   UNL     1       2.508   7.721  19.177  0.00  0.00    +0.000 A 
ENDBRANCH   8  10
ENDBRANCH   1   8
BRANCH   4  20
ATOM     20  C   UNL     1      -2.812  12.022  19.021  0.00  0.00    +0.000 C 
ATOM     21  S   UNL     1      -4.000  11.370  18.023  0.00  0.00    +0.000 S 
BRANCH  20  22
ATOM     22  N   UNL     1      -2.997  13.067  19.932  0.00  0.00    +0.000 N 
ATOM     23  H   UNL     1      -2.669  13.951  19.558  0.00  0.00    +0.000 HD
BRANCH  22  24
ATOM     24  C   UNL     1      -4.012  13.132  20.915  0.00  0.00    +0.000 A 
ATOM     25  C   UNL     1      -5.295  13.593  20.592  0.00  0.00    +0.000 A 
ATOM     26  C   UNL     1      -6.273  13.725  21.579  0.00  0.00    +0.000 A 
ATOM     27  C   UNL     1      -5.974  13.375  22.888  0.00  0.00    +0.000 A 
ATOM     28  F   UNL     1      -6.913  13.545  23.831  0.00  0.00    +0.000 F 
ATOM     29  C   UNL     1      -4.720  12.858  23.212  0.00  0.00    +0.000 A 
ATOM     30 CL   UNL     1      -4.354  12.413  24.835  0.00  0.00    +0.000 Cl
ATOM     31  C   UNL     1      -3.742  12.717  22.222  0.00  0.00    +0.000 A 
ENDBRANCH  22  24
ENDBRANCH  20  22
ENDBRANCH   4  20
TORSDOF 5
ENDMDL
MODEL 7
REMARK VINA RESULT:      -8.4      4.242      6.568
REMARK  Name = 
REMARK  5 active torsions:
REMARK  status: ('A' for Active; 'I' for Inactive)
REMARK    1  A    between atoms: S_2  and  C_4
REMARK    2  A    between atoms: S_2  and  N_14
REMARK    3  A    between atoms: N_17  and  C_18
REMARK    4  A    between atoms: C_18  and  N_20
REMARK    5  A    between atoms: N_20  and  C_21
REMARK                            x       y       z     vdW  Elec       q    Type
REMARK                         _______ _______ _______ _____ _____    ______ ____
ROOT
ATOM      1  N   UNL     1       1.158  10.182  19.875  0.00  0.00    +0.000 NA
ATOM      2  C   UNL     1       0.508   9.957  18.551  0.00  0.00    +0.000 C 
ATOM      3  C   UNL     1      -0.990  10.245  18.590  0.00  0.00    +0.000 C 
ATOM      4  N   UNL     1      -1.306  11.600  19.068  0.00  0.00    +0.000 N 
ATOM      5  C   UNL     1      -0.580  11.991  20.294  0.00  0.00    +0.000 C 
ATOM      6  C   UNL     1       0.914  11.601  20.310  0.00  0.00    +0.000 C 
ENDROOT
BRANCH   1   8
ATOM      7  O   UNL     1      -0.511   8.844  21.272  0.00  0.00    +0.000 OA
ATOM      8  S   UNL     1       0.913   9.018  21.098  0.00  0.00    +0.000 S 
ATOM      9  O   UNL     1       1.752   9.374  22.222  0.00  0.00    +0.000 OA
BRANCH   8  10
ATOM     10  C   UNL     1       1.566   7.512  20.404  0.00  0.00    +0.000 A 
ATOM     11  C   UNL     1       2.433   7.567  19.314  0.00  0.00    +0.000 A 
ATOM     12  C   UNL     1       3.023   6.393  18.839  0.00  0.00    +0.000 A 
ATOM     13  C   UNL     1       2.731   5.154  19.430  0.00  0.00    +0.000 A 
ATOM     14  C   UNL     1       3.357   3.975  18.990  0.00  0.00    +0.000 A 
ATOM     15  C   UNL     1       3.029   2.741  19.552  0.00  0.00    +0.000 A 
ATOM     16  C   UNL     1       2.062   2.668  20.550  0.00  0.00    +0.000 A 
ATOM     17  C   UNL     1       1.448   3.833  21.016  0.00  0.00    +0.000 A 
ATOM     18  C   UNL     1       1.785   5.089  20.483  0.00  0.00    +0.000 A 
ATOM     19  C   UNL     1       1.214   6.280  20.974  0.00  0.00    +0.000 A 
ENDBRANCH   8  10
ENDBRANCH   1   8
BRANCH   4  20
ATOM     20  C   UNL     1      -2.675  11.986  19.059  0.00  0.00    +0.000 C 
ATOM     21  S   UNL     1      -3.809  11.389  17.968  0.00  0.00    +0.000 S 
BRANCH  20  22
ATOM     22  N   UNL     1      -2.906  12.987  20.008  0.00  0.00    +0.000 N 
ATOM     23  H   UNL     1      -2.566  13.889  19.691  0.00  0.00    +0.000 HD
BRANCH  22  24
ATOM     24  C   UNL     1      -3.964  13.003  20.947  0.00  0.00    +0.000 A 
ATOM     25  C   UNL     1      -5.265  13.349  20.556  0.00  0.00    +0.000 A 
ATOM     26  C   UNL     1      -6.291  13.435  21.497  0.00  0.00    +0.000 A 
ATOM     27  C   UNL     1      -6.022  13.155  22.829  0.00  0.00    +0.000 A 
ATOM     28  F   UNL     1      -7.011  13.280  23.727  0.00  0.00    +0.000 F 
ATOM     29  C   UNL     1      -4.745  12.751  23.222  0.00  0.00    +0.000 A 
ATOM     30 CL   UNL     1      -4.415  12.392  24.874  0.00  0.00    +0.000 Cl
ATOM     31  C   UNL     1      -3.718  12.656  22.278  0.00  0.00    +0.000 A 
ENDBRANCH  22  24
ENDBRANCH  20  22
ENDBRANCH   4  20
TORSDOF 5
ENDMDL
MODEL 8
REMARK VINA RESULT:      -8.4      2.125      2.730
REMARK  Name = 
REMARK  5 active torsions:
REMARK  status: ('A' for Active; 'I' for Inactive)
REMARK    1  A    between atoms: S_2  and  C_4
REMARK    2  A    between atoms: S_2  and  N_14
REMARK    3  A    between atoms: N_17  and  C_18
REMARK    4  A    between atoms: C_18  and  N_20
REMARK    5  A    between atoms: N_20  and  C_21
REMARK                            x       y       z     vdW  Elec       q    Type
REMARK                         _______ _______ _______ _____ _____    ______ ____
ROOT
ATOM      1  N   UNL     1       3.147   4.377  18.716  0.00  0.00    +0.000 NA
ATOM      2  C   UNL     1       2.218   4.471  19.880  0.00  0.00    +0.000 C 
ATOM      3  C   UNL     1       2.166   5.881  20.460  0.00  0.00    +0.000 C 
ATOM      4  N   UNL     1       1.811   6.904  19.464  0.00  0.00    +0.000 N 
ATOM      5  C   UNL     1       2.562   6.796  18.196  0.00  0.00    +0.000 C 
ATOM      6  C   UNL     1       2.716   5.356  17.659  0.00  0.00    +0.000 C 
ENDROOT
BRANCH   1   8
ATOM      7  O   UNL     1       5.196   3.032  19.438  0.00  0.00    +0.000 OA
ATOM      8  S   UNL     1       4.825   4.367  19.026  0.00  0.00    +0.000 S 
ATOM      9  O   UNL     1       5.125   5.506  19.866  0.00  0.00    +0.000 OA
BRANCH   8  10
ATOM     10  C   UNL     1       5.564   4.672  17.434  0.00  0.00    +0.000 A 
ATOM     11  C   UNL     1       6.588   5.609  17.309  0.00  0.00    +0.000 A 
ATOM     12  C   UNL     1       7.234   5.771  16.081  0.00  0.00    +0.000 A 
ATOM     13  C   UNL     1       6.846   5.017  14.963  0.00  0.00    +0.000 A 
ATOM     14  C   UNL     1       7.522   5.138  13.736  0.00  0.00    +0.000 A 
ATOM     15  C   UNL     1       7.102   4.418  12.617  0.00  0.00    +0.000 A 
ATOM     16  C   UNL     1       5.993   3.582  12.705  0.00  0.00    +0.000 A 
ATOM     17  C   UNL     1       5.325   3.432  13.923  0.00  0.00    +0.000 A 
ATOM     18  C   UNL     1       5.749   4.125  15.069  0.00  0.00    +0.000 A 
ATOM     19  C   UNL     1       5.120   3.949  16.317  0.00  0.00    +0.000 A 
ENDBRANCH   8  10
ENDBRANCH   1   8
BRANCH   4  20
ATOM     20  C   UNL     1       1.658   8.238  19.933  0.00  0.00    +0.000 C 
ATOM     21  S   UNL     1       1.204   8.631  21.505  0.00  0.00    +0.000 S 
BRANCH  20  22
ATOM     22  N   UNL     1       1.840   9.148  18.886  0.00  0.00    +0.000 N 
ATOM     23  H   UNL     1       2.147   8.685  18.038  0.00  0.00    +0.000 HD
BRANCH  22  24
ATOM     24  C   UNL     1       1.143  10.369  18.727  0.00  0.00    +0.000 A 
ATOM     25  C   UNL     1       1.834  11.587  18.678  0.00  0.00    +0.000 A 
ATOM     26  C   UNL     1       1.142  12.795  18.594  0.00  0.00    +0.000 A 
ATOM     27  C   UNL     1      -0.245  12.785  18.537  0.00  0.00    +0.000 A 
ATOM     28  F   UNL     1      -0.897  13.956  18.495  0.00  0.00    +0.000 F 
ATOM     29  C   UNL     1      -0.942  11.577  18.524  0.00  0.00    +0.000 A 
ATOM     30 CL   UNL     1      -2.662  11.565  18.441  0.00  0.00    +0.000 Cl
ATOM     31  C   UNL     1      -0.249  10.365  18.599  0.00  0.00    +0.000 A 
ENDBRANCH  22  24
ENDBRANCH  20  22
ENDBRANCH   4  20
TORSDOF 5
ENDMDL
MODEL 9
REMARK VINA RESULT:      -8.3      2.062      2.773
REMARK  Name = 
REMARK  5 active torsions:
REMARK  status: ('A' for Active; 'I' for Inactive)
REMARK    1  A    between atoms: S_2  and  C_4
REMARK    2  A    between atoms: S_2  and  N_14
REMARK    3  A    between atoms: N_17  and  C_18
REMARK    4  A    between atoms: C_18  and  N_20
REMARK    5  A    between atoms: N_20  and  C_21
REMARK                            x       y       z     vdW  Elec       q    Type
REMARK                         _______ _______ _______ _____ _____    ______ ____
ROOT
ATOM      1  N   UNL     1       2.986   4.571  18.685  0.00  0.00    +0.000 NA
ATOM      2  C   UNL     1       2.030   4.575  19.831  0.00  0.00    +0.000 C 
ATOM      3  C   UNL     1       1.999   5.922  20.547  0.00  0.00    +0.000 C 
ATOM      4  N   UNL     1       1.695   7.048  19.649  0.00  0.00    +0.000 N 
ATOM      5  C   UNL     1       2.476   7.045  18.394  0.00  0.00    +0.000 C 
ATOM      6  C   UNL     1       2.608   5.662  17.721  0.00  0.00    +0.000 C 
ENDROOT
BRANCH   1   8
ATOM      7  O   UNL     1       4.956   3.132  19.444  0.00  0.00    +0.000 OA
ATOM      8  S   UNL     1       4.655   4.484  19.032  0.00  0.00    +0.000 S 
ATOM      9  O   UNL     1       4.988   5.605  19.884  0.00  0.00    +0.000 OA
BRANCH   8  10
ATOM     10  C   UNL     1       5.442   4.762  17.457  0.00  0.00    +0.000 A 
ATOM     11  C   UNL     1       6.459   5.708  17.345  0.00  0.00    +0.000 A 
ATOM     12  C   UNL     1       7.142   5.850  16.135  0.00  0.00    +0.000 A 
ATOM     13  C   UNL     1       6.798   5.068  15.021  0.00  0.00    +0.000 A 
ATOM     14  C   UNL     1       7.512   5.169  13.815  0.00  0.00    +0.000 A 
ATOM     15  C   UNL     1       7.136   4.421  12.698  0.00  0.00    +0.000 A 
ATOM     16  C   UNL     1       6.034   3.575  12.769  0.00  0.00    +0.000 A 
ATOM     17  C   UNL     1       5.328   3.444  13.968  0.00  0.00    +0.000 A 
ATOM     18  C   UNL     1       5.708   4.167  15.112  0.00  0.00    +0.000 A 
ATOM     19  C   UNL     1       5.041   4.010  16.343  0.00  0.00    +0.000 A 
ENDBRANCH   8  10
ENDBRANCH   1   8
BRANCH   4  20
ATOM     20  C   UNL     1       1.564   8.333  20.245  0.00  0.00    +0.000 C 
ATOM     21  S   UNL     1       1.516   8.594  21.907  0.00  0.00    +0.000 S 
BRANCH  20  22
ATOM     22  N   UNL     1       1.385   9.311  19.261  0.00  0.00    +0.000 N 
ATOM     23  H   UNL     1       2.049   9.205  18.502  0.00  0.00    +0.000 HD
BRANCH  22  24
ATOM     24  C   UNL     1       0.162   9.950  18.949  0.00  0.00    +0.000 A 
ATOM     25  C   UNL     1      -0.510   9.667  17.753  0.00  0.00    +0.000 A 
ATOM     26  C   UNL     1      -1.677  10.351  17.413  0.00  0.00    +0.000 A 
ATOM     27  C   UNL     1      -2.186  11.307  18.281  0.00  0.00    +0.000 A 
ATOM     28  F   UNL     1      -3.287  11.983  17.921  0.00  0.00    +0.000 F 
ATOM     29  C   UNL     1      -1.560  11.556  19.502  0.00  0.00    +0.000 A 
ATOM     30 CL   UNL     1      -2.199  12.734  20.584  0.00  0.00    +0.000 Cl
ATOM     31  C   UNL     1      -0.395  10.864  19.848  0.00  0.00    +0.000 A 
ENDBRANCH  22  24
ENDBRANCH  20  22
ENDBRANCH   4  20
TORSDOF 5
ENDMDL
