MODEL 1
REMARK VINA RESULT:      -9.0      0.000      0.000
REMARK  Name = 
REMARK  7 active torsions:
REMARK  status: ('A' for Active; 'I' for Inactive)
REMARK    1  A    between atoms: C_1  and  C_2
REMARK    2  A    between atoms: C_5  and  C_6
REMARK    3  A    between atoms: N_10  and  C_11
REMARK    4  A    between atoms: C_15  and  N_16
REMARK    5  A    between atoms: C_17  and  C_19
REMARK    6  A    between atoms: N_21  and  C_22
REMARK    7  A    between atoms: C_26  and  C_27
REMARK                            x       y       z     vdW  Elec       q    Type
REMARK                         _______ _______ _______ _____ _____    ______ ____
ROOT
ATOM      1  N   UNL     1       3.010   6.787  17.638  0.00  0.00    +0.000 N 
ATOM      2  C   UNL     1       4.393   6.682  17.505  0.00  0.00    +0.000 C 
ATOM      3  O   UNL     1       5.233   7.271  18.189  0.00  0.00    +0.000 OA
ATOM      4  H   UNL     1       2.438   6.262  16.994  0.00  0.00    +0.000 HD
ENDROOT
BRANCH   2   5
ATOM      5  C   UNL     1       4.866   5.681  16.492  0.00  0.00    +0.000 C 
ATOM      6  C   UNL     1       4.925   5.967  15.177  0.00  0.00    +0.000 C 
ATOM      7  N   UNL     1       5.852   5.237  14.414  0.00  0.00    +0.000 N 
ATOM      8  C   UNL     1       5.345   4.066  13.673  0.00  0.00    +0.000 C 
ATOM      9  C   UNL     1       7.049   4.961  15.134  0.00  0.00    +0.000 C 
ATOM     10  O   UNL     1       8.154   5.294  14.716  0.00  0.00    +0.000 OA
ATOM     11  C   UNL     1       6.837   4.272  16.519  0.00  0.00    +0.000 C 
ATOM     12  C   UNL     1       5.330   4.275  16.804  0.00  0.00    +0.000 C 
BRANCH  12  13
ATOM     13  C   UNL     1       4.423   3.602  17.805  0.00  0.00    +0.000 A 
ATOM     14  C   UNL     1       4.746   3.213  19.097  0.00  0.00    +0.000 A 
ATOM     15  C   UNL     1       3.754   2.601  19.882  0.00  0.00    +0.000 A 
ATOM     16  C   UNL     1       2.468   2.375  19.378  0.00  0.00    +0.000 A 
ATOM     17  F   UNL     1       1.532   1.819  20.158  0.00  0.00    +0.000 F 
ATOM     18  C   UNL     1       2.144   2.705  18.081  0.00  0.00    +0.000 A 
ATOM     19  C   UNL     1       3.119   3.298  17.301  0.00  0.00    +0.000 A 
ENDBRANCH  12  13
ENDBRANCH   2   5
BRANCH   1  26
ATOM     20  C   UNL     1       2.645   5.736  20.385  0.00  0.00    +0.000 C 
ATOM     21  C   UNL     1       2.131   7.072  19.921  0.00  0.00    +0.000 A 
ATOM     22  C   UNL     1       1.468   7.860  20.881  0.00  0.00    +0.000 A 
ATOM     23  C   UNL     1       0.941   9.106  20.555  0.00  0.00    +0.000 A 
ATOM     24  C   UNL     1       1.027   9.594  19.251  0.00  0.00    +0.000 A 
ATOM     25  C   UNL     1       1.695   8.801  18.289  0.00  0.00    +0.000 A 
ATOM     26  C   UNL     1       2.273   7.554  18.598  0.00  0.00    +0.000 A 
BRANCH  24  27
ATOM     27  C   UNL     1       0.415  10.907  18.903  0.00  0.00    +0.000 A 
ATOM     28  C   UNL     1      -0.818  10.951  18.379  0.00  0.00    +0.000 A 
ATOM     29  C   UNL     1      -1.381  12.259  18.032  0.00  0.00    +0.000 A 
ATOM     30  N   UNL     1      -0.786  13.395  18.163  0.00  0.00    +0.000 NA
ATOM     31  N   UNL     1       0.482  13.368  18.687  0.00  0.00    +0.000 N 
ATOM     32  C   UNL     1       1.150  14.647  18.830  0.00  0.00    +0.000 C 
ATOM     33  C   UNL     1       1.152  12.211  19.083  0.00  0.00    +0.000 A 
ATOM     34  O   UNL     1       2.289  12.242  19.554  0.00  0.00    +0.000 OA
ENDBRANCH  24  27
ENDBRANCH   1  26
TORSDOF 4
ENDMDL
MODEL 2
REMARK VINA RESULT:      -8.5      1.032      1.507
REMARK  Name = 
REMARK  7 active torsions:
REMARK  status: ('A' for Active; 'I' for Inactive)
REMARK    1  A    between atoms: C_1  and  C_2
REMARK    2  A    between atoms: C_5  and  C_6
REMARK    3  A    between atoms: N_10  and  C_11
REMARK    4  A    between atoms: C_15  and  N_16
REMARK    5  A    between atoms: C_17  and  C_19
REMARK    6  A    between atoms: N_21  and  C_22
REMARK    7  A    between atoms: C_26  and  C_27
REMARK                            x       y       z     vdW  Elec       q    Type
REMARK                         _______ _______ _______ _____ _____    ______ ____
ROOT
ATOM      1  N   UNL     1       3.058   6.669  17.589  0.00  0.00    +0.000 N 
ATOM      2  C   UNL     1       4.439   6.621  17.412  0.00  0.00    +0.000 C 
ATOM      3  O   UNL     1       5.275   7.254  18.061  0.00  0.00    +0.000 OA
ATOM      4  H   UNL     1       2.488   6.112  16.971  0.00  0.00    +0.000 HD
ENDROOT
BRANCH   2   5
ATOM      5  C   UNL     1       4.922   5.629  16.394  0.00  0.00    +0.000 C 
ATOM      6  C   UNL     1       4.985   5.924  15.082  0.00  0.00    +0.000 C 
ATOM      7  N   UNL     1       5.920   5.204  14.318  0.00  0.00    +0.000 N 
ATOM      8  C   UNL     1       5.421   4.036  13.567  0.00  0.00    +0.000 C 
ATOM      9  C   UNL     1       7.115   4.928  15.043  0.00  0.00    +0.000 C 
ATOM     10  O   UNL     1       8.220   5.269  14.632  0.00  0.00    +0.000 OA
ATOM     11  C   UNL     1       6.898   4.229  16.422  0.00  0.00    +0.000 C 
ATOM     12  C   UNL     1       5.390   4.223  16.700  0.00  0.00    +0.000 C 
BRANCH  12  13
ATOM     13  C   UNL     1       4.482   3.539  17.691  0.00  0.00    +0.000 A 
ATOM     14  C   UNL     1       4.807   3.122  18.974  0.00  0.00    +0.000 A 
ATOM     15  C   UNL     1       3.813   2.504  19.751  0.00  0.00    +0.000 A 
ATOM     16  C   UNL     1       2.522   2.300  19.249  0.00  0.00    +0.000 A 
ATOM     17  F   UNL     1       1.585   1.738  20.022  0.00  0.00    +0.000 F 
ATOM     18  C   UNL     1       2.196   2.659  17.960  0.00  0.00    +0.000 A 
ATOM     19  C   UNL     1       3.172   3.258  17.188  0.00  0.00    +0.000 A 
ENDBRANCH  12  13
ENDBRANCH   2   5
BRANCH   1  26
ATOM     20  C   UNL     1       2.883   5.669  20.375  0.00  0.00    +0.000 C 
ATOM     21  C   UNL     1       2.268   6.959  19.904  0.00  0.00    +0.000 A 
ATOM     22  C   UNL     1       1.603   7.730  20.876  0.00  0.00    +0.000 A 
ATOM     23  C   UNL     1       0.987   8.934  20.547  0.00  0.00    +0.000 A 
ATOM     24  C   UNL     1       0.983   9.392  19.229  0.00  0.00    +0.000 A 
ATOM     25  C   UNL     1       1.654   8.616  18.255  0.00  0.00    +0.000 A 
ATOM     26  C   UNL     1       2.320   7.415  18.565  0.00  0.00    +0.000 A 
BRANCH  24  27
ATOM     27  C   UNL     1       0.277  10.657  18.881  0.00  0.00    +0.000 A 
ATOM     28  C   UNL     1       0.934  11.824  18.934  0.00  0.00    +0.000 A 
ATOM     29  C   UNL     1       0.203  13.050  18.602  0.00  0.00    +0.000 A 
ATOM     30  N   UNL     1      -1.044  13.122  18.280  0.00  0.00    +0.000 NA
ATOM     31  N   UNL     1      -1.735  11.938  18.234  0.00  0.00    +0.000 N 
ATOM     32  C   UNL     1      -3.137  12.022  17.875  0.00  0.00    +0.000 C 
ATOM     33  C   UNL     1      -1.183  10.686  18.502  0.00  0.00    +0.000 A 
ATOM     34  O   UNL     1      -1.847   9.651  18.440  0.00  0.00    +0.000 OA
ENDBRANCH  24  27
ENDBRANCH   1  26
TORSDOF 4
ENDMDL
MODEL 3
REMARK VINA RESULT:      -8.3      1.589      1.818
REMARK  Name = 
REMARK  7 active torsions:
REMARK  status: ('A' for Active; 'I' for Inactive)
REMARK    1  A    between atoms: C_1  and  C_2
REMARK    2  A    between atoms: C_5  and  C_6
REMARK    3  A    between atoms: N_10  and  C_11
REMARK    4  A    between atoms: C_15  and  N_16
REMARK    5  A    between atoms: C_17  and  C_19
REMARK    6  A    between atoms: N_21  and  C_22
REMARK    7  A    between atoms: C_26  and  C_27
REMARK                            x       y       z     vdW  Elec       q    Type
REMARK                         _______ _______ _______ _____ _____    ______ ____
ROOT
ATOM      1  N   UNL     1       2.935   7.186  19.150  0.00  0.00    +0.000 N 
ATOM      2  C   UNL     1       3.408   7.240  17.839  0.00  0.00    +0.000 C 
ATOM      3  O   UNL     1       2.975   7.967  16.943  0.00  0.00    +0.000 OA
ATOM      4  H   UNL     1       3.370   6.527  19.776  0.00  0.00    +0.000 HD
ENDROOT
BRANCH   2   5
ATOM      5  C   UNL     1       4.613   6.392  17.558  0.00  0.00    +0.000 C 
ATOM      6  C   UNL     1       5.493   6.700  16.584  0.00  0.00    +0.000 C 
ATOM      7  N   UNL     1       6.804   6.221  16.745  0.00  0.00    +0.000 N 
ATOM      8  C   UNL     1       7.157   4.971  16.043  0.00  0.00    +0.000 C 
ATOM      9  C   UNL     1       7.221   6.227  18.107  0.00  0.00    +0.000 C 
ATOM     10  O   UNL     1       8.231   6.817  18.477  0.00  0.00    +0.000 OA
ATOM     11  C   UNL     1       6.257   5.491  19.091  0.00  0.00    +0.000 C 
ATOM     12  C   UNL     1       4.989   5.133  18.307  0.00  0.00    +0.000 C 
BRANCH  12  13
ATOM     13  C   UNL     1       3.789   4.252  18.547  0.00  0.00    +0.000 A 
ATOM     14  C   UNL     1       3.483   3.551  19.706  0.00  0.00    +0.000 A 
ATOM     15  C   UNL     1       2.306   2.784  19.737  0.00  0.00    +0.000 A 
ATOM     16  C   UNL     1       1.458   2.713  18.626  0.00  0.00    +0.000 A 
ATOM     17  F   UNL     1       0.327   2.000  18.692  0.00  0.00    +0.000 F 
ATOM     18  C   UNL     1       1.771   3.358  17.449  0.00  0.00    +0.000 A 
ATOM     19  C   UNL     1       2.933   4.106  17.410  0.00  0.00    +0.000 A 
ENDBRANCH  12  13
ENDBRANCH   2   5
BRANCH   1  26
ATOM     20  C   UNL     1       1.201   5.986  21.233  0.00  0.00    +0.000 C 
ATOM     21  C   UNL     1       1.089   7.411  20.765  0.00  0.00    +0.000 A 
ATOM     22  C   UNL     1       0.113   8.206  21.395  0.00  0.00    +0.000 A 
ATOM     23  C   UNL     1      -0.085   9.535  21.030  0.00  0.00    +0.000 A 
ATOM     24  C   UNL     1       0.661  10.105  19.999  0.00  0.00    +0.000 A 
ATOM     25  C   UNL     1       1.642   9.305  19.368  0.00  0.00    +0.000 A 
ATOM     26  C   UNL     1       1.893   7.971  19.743  0.00  0.00    +0.000 A 
BRANCH  24  27
ATOM     27  C   UNL     1       0.405  11.513  19.583  0.00  0.00    +0.000 A 
ATOM     28  C   UNL     1      -0.437  11.768  18.573  0.00  0.00    +0.000 A 
ATOM     29  C   UNL     1      -0.651  13.164  18.180  0.00  0.00    +0.000 A 
ATOM     30  N   UNL     1      -0.079  14.192  18.706  0.00  0.00    +0.000 NA
ATOM     31  N   UNL     1       0.797  13.948  19.734  0.00  0.00    +0.000 N 
ATOM     32  C   UNL     1       1.443  15.107  20.321  0.00  0.00    +0.000 C 
ATOM     33  C   UNL     1       1.097  12.684  20.238  0.00  0.00    +0.000 A 
ATOM     34  O   UNL     1       1.887  12.520  21.168  0.00  0.00    +0.000 OA
ENDBRANCH  24  27
ENDBRANCH   1  26
TORSDOF 4
ENDMDL
MODEL 4
REMARK VINA RESULT:      -7.5      3.150      4.752
REMARK  Name = 
REMARK  7 active torsions:
REMARK  status: ('A' for Active; 'I' for Inactive)
REMARK    1  A    between atoms: C_1  and  C_2
REMARK    2  A    between atoms: C_5  and  C_6
REMARK    3  A    between atoms: N_10  and  C_11
REMARK    4  A    between atoms: C_15  and  N_16
REMARK    5  A    between atoms: C_17  and  C_19
REMARK    6  A    between atoms: N_21  and  C_22
REMARK    7  A    between atoms: C_26  and  C_27
REMARK                            x       y       z     vdW  Elec       q    Type
REMARK                         _______ _______ _______ _____ _____    ______ ____
ROOT
ATOM      1  N   UNL     1       2.322   6.909  19.588  0.00  0.00    +0.000 N 
ATOM      2  C   UNL     1       2.150   5.818  18.737  0.00  0.00    +0.000 C 
ATOM      3  O   UNL     1       1.578   5.836  17.644  0.00  0.00    +0.000 OA
ATOM      4  H   UNL     1       2.793   6.746  20.465  0.00  0.00    +0.000 HD
ENDROOT
BRANCH   2   5
ATOM      5  C   UNL     1       2.815   4.548  19.179  0.00  0.00    +0.000 C 
ATOM      6  C   UNL     1       2.476   3.924  20.324  0.00  0.00    +0.000 C 
ATOM      7  N   UNL     1       2.714   2.541  20.382  0.00  0.00    +0.000 N 
ATOM      8  C   UNL     1       3.959   2.096  21.039  0.00  0.00    +0.000 C 
ATOM      9  C   UNL     1       2.490   1.899  19.131  0.00  0.00    +0.000 C 
ATOM     10  O   UNL     1       1.705   0.963  19.009  0.00  0.00    +0.000 OA
ATOM     11  C   UNL     1       3.260   2.524  17.925  0.00  0.00    +0.000 C 
ATOM     12  C   UNL     1       3.905   3.824  18.420  0.00  0.00    +0.000 C 
BRANCH  12  13
ATOM     13  C   UNL     1       4.939   4.784  17.885  0.00  0.00    +0.000 A 
ATOM     14  C   UNL     1       5.072   5.226  16.576  0.00  0.00    +0.000 A 
ATOM     15  C   UNL     1       6.103   6.131  16.274  0.00  0.00    +0.000 A 
ATOM     16  C   UNL     1       6.989   6.576  17.262  0.00  0.00    +0.000 A 
ATOM     17  F   UNL     1       7.943   7.464  16.954  0.00  0.00    +0.000 F 
ATOM     18  C   UNL     1       6.906   6.108  18.555  0.00  0.00    +0.000 A 
ATOM     19  C   UNL     1       5.900   5.210  18.855  0.00  0.00    +0.000 A 
ENDBRANCH  12  13
ENDBRANCH   2   5
BRANCH   1  26
ATOM     20  C   UNL     1       3.471   8.440  17.325  0.00  0.00    +0.000 C 
ATOM     21  C   UNL     1       2.436   8.987  18.270  0.00  0.00    +0.000 A 
ATOM     22  C   UNL     1       1.983  10.296  18.021  0.00  0.00    +0.000 A 
ATOM     23  C   UNL     1       1.037  10.904  18.841  0.00  0.00    +0.000 A 
ATOM     24  C   UNL     1       0.536  10.238  19.960  0.00  0.00    +0.000 A 
ATOM     25  C   UNL     1       0.991   8.922  20.208  0.00  0.00    +0.000 A 
ATOM     26  C   UNL     1       1.917   8.266  19.373  0.00  0.00    +0.000 A 
BRANCH  24  27
ATOM     27  C   UNL     1      -0.438  10.918  20.859  0.00  0.00    +0.000 A 
ATOM     28  C   UNL     1      -0.330  10.779  22.187  0.00  0.00    +0.000 A 
ATOM     29  C   UNL     1      -1.318  11.447  23.040  0.00  0.00    +0.000 A 
ATOM     30  N   UNL     1      -2.315  12.153  22.629  0.00  0.00    +0.000 NA
ATOM     31  N   UNL     1      -2.448  12.295  21.271  0.00  0.00    +0.000 N 
ATOM     32  C   UNL     1      -3.574  13.086  20.811  0.00  0.00    +0.000 C 
ATOM     33  C   UNL     1      -1.586  11.740  20.326  0.00  0.00    +0.000 A 
ATOM     34  O   UNL     1      -1.747  11.904  19.116  0.00  0.00    +0.000 OA
ENDBRANCH  24  27
ENDBRANCH   1  26
TORSDOF 4
ENDMDL
MODEL 5
REMARK VINA RESULT:      -7.5      3.660      9.816
REMARK  Name = 
REMARK  7 active torsions:
REMARK  status: ('A' for Active; 'I' for Inactive)
REMARK    1  A    between atoms: C_1  and  C_2
REMARK    2  A    between atoms: C_5  and  C_6
REMARK    3  A    between atoms: N_10  and  C_11
REMARK    4  A    between atoms: C_15  and  N_16
REMARK    5  A    between atoms: C_17  and  C_19
REMARK    6  A    between atoms: N_21  and  C_22
REMARK    7  A    between atoms: C_26  and  C_27
REMARK                            x       y       z     vdW  Elec       q    Type
REMARK                         _______ _______ _______ _____ _____    ______ ____
ROOT
ATOM      1  N   UNL     1       0.143   9.625  20.500  0.00  0.00    +0.000 N 
ATOM      2  C   UNL     1       0.471  10.723  21.294  0.00  0.00    +0.000 C 
ATOM      3  O   UNL     1       1.611  11.114  21.554  0.00  0.00    +0.000 OA
ATOM      4  H   UNL     1      -0.835   9.405  20.388  0.00  0.00    +0.000 HD
ENDROOT
BRANCH   2   5
ATOM      5  C   UNL     1      -0.695  11.532  21.782  0.00  0.00    +0.000 C 
ATOM      6  C   UNL     1      -1.259  11.319  22.987  0.00  0.00    +0.000 C 
ATOM      7  N   UNL     1      -1.921  12.410  23.575  0.00  0.00    +0.000 N 
ATOM      8  C   UNL     1      -3.386  12.481  23.407  0.00  0.00    +0.000 C 
ATOM      9  C   UNL     1      -1.272  13.648  23.303  0.00  0.00    +0.000 C 
ATOM     10  O   UNL     1      -0.901  14.400  24.200  0.00  0.00    +0.000 OA
ATOM     11  C   UNL     1      -1.009  13.933  21.791  0.00  0.00    +0.000 C 
ATOM     12  C   UNL     1      -1.359  12.656  21.018  0.00  0.00    +0.000 C 
BRANCH  12  13
ATOM     13  C   UNL     1      -1.557  12.297  19.566  0.00  0.00    +0.000 A 
ATOM     14  C   UNL     1      -0.871  12.814  18.475  0.00  0.00    +0.000 A 
ATOM     15  C   UNL     1      -1.199  12.345  17.192  0.00  0.00    +0.000 A 
ATOM     16  C   UNL     1      -2.201  11.385  17.005  0.00  0.00    +0.000 A 
ATOM     17  F   UNL     1      -2.471  10.932  15.775  0.00  0.00    +0.000 F 
ATOM     18  C   UNL     1      -2.929  10.901  18.069  0.00  0.00    +0.000 A 
ATOM     19  C   UNL     1      -2.617  11.366  19.333  0.00  0.00    +0.000 A 
ENDBRANCH  12  13
ENDBRANCH   2   5
BRANCH   1  26
ATOM     20  C   UNL     1       1.629  10.638  18.143  0.00  0.00    +0.000 C 
ATOM     21  C   UNL     1       1.773   9.244  18.692  0.00  0.00    +0.000 A 
ATOM     22  C   UNL     1       2.699   8.404  18.045  0.00  0.00    +0.000 A 
ATOM     23  C   UNL     1       2.901   7.092  18.463  0.00  0.00    +0.000 A 
ATOM     24  C   UNL     1       2.159   6.562  19.519  0.00  0.00    +0.000 A 
ATOM     25  C   UNL     1       1.231   7.408  20.168  0.00  0.00    +0.000 A 
ATOM     26  C   UNL     1       1.033   8.752  19.794  0.00  0.00    +0.000 A 
BRANCH  24  27
ATOM     27  C   UNL     1       2.349   5.141  19.924  0.00  0.00    +0.000 A 
ATOM     28  C   UNL     1       2.170   4.781  21.202  0.00  0.00    +0.000 A 
ATOM     29  C   UNL     1       2.383   3.378  21.568  0.00  0.00    +0.000 A 
ATOM     30  N   UNL     1       2.757   2.438  20.768  0.00  0.00    +0.000 NA
ATOM     31  N   UNL     1       2.958   2.791  19.458  0.00  0.00    +0.000 N 
ATOM     32  C   UNL     1       3.383   1.733  18.562  0.00  0.00    +0.000 C 
ATOM     33  C   UNL     1       2.782   4.076  18.945  0.00  0.00    +0.000 A 
ATOM     34  O   UNL     1       2.970   4.339  17.758  0.00  0.00    +0.000 OA
ENDBRANCH  24  27
ENDBRANCH   1  26
TORSDOF 4
ENDMDL
MODEL 6
REMARK VINA RESULT:      -7.4      1.777      2.126
REMARK  Name = 
REMARK  7 active torsions:
REMARK  status: ('A' for Active; 'I' for Inactive)
REMARK    1  A    between atoms: C_1  and  C_2
REMARK    2  A    between atoms: C_5  and  C_6
REMARK    3  A    between atoms: N_10  and  C_11
REMARK    4  A    between atoms: C_15  and  N_16
REMARK    5  A    between atoms: C_17  and  C_19
REMARK    6  A    between atoms: N_21  and  C_22
REMARK    7  A    between atoms: C_26  and  C_27
REMARK                            x       y       z     vdW  Elec       q    Type
REMARK                         _______ _______ _______ _____ _____    ______ ____
ROOT
ATOM      1  N   UNL     1       2.912   7.165  19.171  0.00  0.00    +0.000 N 
ATOM      2  C   UNL     1       3.372   7.237  17.857  0.00  0.00    +0.000 C 
ATOM      3  O   UNL     1       2.927   7.974  16.974  0.00  0.00    +0.000 OA
ATOM      4  H   UNL     1       3.357   6.500  19.785  0.00  0.00    +0.000 HD
ENDROOT
BRANCH   2   5
ATOM      5  C   UNL     1       4.577   6.397  17.552  0.00  0.00    +0.000 C 
ATOM      6  C   UNL     1       5.437   6.712  16.564  0.00  0.00    +0.000 C 
ATOM      7  N   UNL     1       6.754   6.241  16.700  0.00  0.00    +0.000 N 
ATOM      8  C   UNL     1       7.102   4.995  15.991  0.00  0.00    +0.000 C 
ATOM      9  C   UNL     1       7.195   6.249  18.054  0.00  0.00    +0.000 C 
ATOM     10  O   UNL     1       8.208   6.846  18.407  0.00  0.00    +0.000 OA
ATOM     11  C   UNL     1       6.255   5.506  19.055  0.00  0.00    +0.000 C 
ATOM     12  C   UNL     1       4.975   5.140  18.293  0.00  0.00    +0.000 C 
BRANCH  12  13
ATOM     13  C   UNL     1       3.785   4.251  18.555  0.00  0.00    +0.000 A 
ATOM     14  C   UNL     1       3.523   3.520  19.705  0.00  0.00    +0.000 A 
ATOM     15  C   UNL     1       2.349   2.750  19.759  0.00  0.00    +0.000 A 
ATOM     16  C   UNL     1       1.461   2.706  18.678  0.00  0.00    +0.000 A 
ATOM     17  F   UNL     1       0.333   1.990  18.768  0.00  0.00    +0.000 F 
ATOM     18  C   UNL     1       1.730   3.381  17.508  0.00  0.00    +0.000 A 
ATOM     19  C   UNL     1       2.888   4.132  17.446  0.00  0.00    +0.000 A 
ENDBRANCH  12  13
ENDBRANCH   2   5
BRANCH   1  26
ATOM     20  C   UNL     1       1.154   5.909  21.200  0.00  0.00    +0.000 C 
ATOM     21  C   UNL     1       1.057   7.351  20.781  0.00  0.00    +0.000 A 
ATOM     22  C   UNL     1       0.084   8.132  21.433  0.00  0.00    +0.000 A 
ATOM     23  C   UNL     1      -0.099   9.475  21.113  0.00  0.00    +0.000 A 
ATOM     24  C   UNL     1       0.659  10.074  20.107  0.00  0.00    +0.000 A 
ATOM     25  C   UNL     1       1.638   9.287  19.455  0.00  0.00    +0.000 A 
ATOM     26  C   UNL     1       1.873   7.938  19.784  0.00  0.00    +0.000 A 
BRANCH  24  27
ATOM     27  C   UNL     1       0.419  11.498  19.740  0.00  0.00    +0.000 A 
ATOM     28  C   UNL     1       1.257  12.121  18.899  0.00  0.00    +0.000 A 
ATOM     29  C   UNL     1       1.000  13.527  18.575  0.00  0.00    +0.000 A 
ATOM     30  N   UNL     1       0.040  14.247  19.046  0.00  0.00    +0.000 NA
ATOM     31  N   UNL     1      -0.820  13.628  19.918  0.00  0.00    +0.000 N 
ATOM     32  C   UNL     1      -1.897  14.441  20.450  0.00  0.00    +0.000 C 
ATOM     33  C   UNL     1      -0.726  12.295  20.315  0.00  0.00    +0.000 A 
ATOM     34  O   UNL     1      -1.529  11.786  21.097  0.00  0.00    +0.000 OA
ENDBRANCH  24  27
ENDBRANCH   1  26
TORSDOF 4
ENDMDL
MODEL 7
REMARK VINA RESULT:      -7.4      3.720      9.586
REMARK  Name = 
REMARK  7 active torsions:
REMARK  status: ('A' for Active; 'I' for Inactive)
REMARK    1  A    between atoms: C_1  and  C_2
REMARK    2  A    between atoms: C_5  and  C_6
REMARK    3  A    between atoms: N_10  and  C_11
REMARK    4  A    between atoms: C_15  and  N_16
REMARK    5  A    between atoms: C_17  and  C_19
REMARK    6  A    between atoms: N_21  and  C_22
REMARK    7  A    between atoms: C_26  and  C_27
REMARK                            x       y       z     vdW  Elec       q    Type
REMARK                         _______ _______ _______ _____ _____    ______ ____
ROOT
ATOM      1  N   UNL     1       0.679  10.045  19.833  0.00  0.00    +0.000 N 
ATOM      2  C   UNL     1      -0.285   9.948  20.836  0.00  0.00    +0.000 C 
ATOM      3  O   UNL     1      -0.639   8.912  21.401  0.00  0.00    +0.000 OA
ATOM      4  H   UNL     1       0.856  10.957  19.442  0.00  0.00    +0.000 HD
ENDROOT
BRANCH   2   5
ATOM      5  C   UNL     1      -0.851  11.255  21.309  0.00  0.00    +0.000 C 
ATOM      6  C   UNL     1      -1.026  11.526  22.617  0.00  0.00    +0.000 C 
ATOM      7  N   UNL     1      -1.018  12.882  22.986  0.00  0.00    +0.000 N 
ATOM      8  C   UNL     1      -2.326  13.549  23.137  0.00  0.00    +0.000 C 
ATOM      9  C   UNL     1      -0.092  13.647  22.219  0.00  0.00    +0.000 C 
ATOM     10  O   UNL     1       0.797  14.312  22.744  0.00  0.00    +0.000 OA
ATOM     11  C   UNL     1      -0.254  13.514  20.672  0.00  0.00    +0.000 C 
ATOM     12  C   UNL     1      -1.274  12.398  20.414  0.00  0.00    +0.000 C 
BRANCH  12  13
ATOM     13  C   UNL     1      -2.051  11.907  19.218  0.00  0.00    +0.000 A 
ATOM     14  C   UNL     1      -1.534  11.446  18.015  0.00  0.00    +0.000 A 
ATOM     15  C   UNL     1      -2.428  11.024  17.017  0.00  0.00    +0.000 A 
ATOM     16  C   UNL     1      -3.812  11.073  17.216  0.00  0.00    +0.000 A 
ATOM     17  F   UNL     1      -4.641  10.634  16.261  0.00  0.00    +0.000 F 
ATOM     18  C   UNL     1      -4.346  11.577  18.382  0.00  0.00    +0.000 A 
ATOM     19  C   UNL     1      -3.471  12.002  19.363  0.00  0.00    +0.000 A 
ENDBRANCH  12  13
ENDBRANCH   2   5
BRANCH   1  26
ATOM     20  C   UNL     1       2.370  10.591  17.460  0.00  0.00    +0.000 C 
ATOM     21  C   UNL     1       2.316   9.264  18.167  0.00  0.00    +0.000 A 
ATOM     22  C   UNL     1       3.154   8.249  17.666  0.00  0.00    +0.000 A 
ATOM     23  C   UNL     1       3.173   6.980  18.236  0.00  0.00    +0.000 A 
ATOM     24  C   UNL     1       2.331   6.668  19.303  0.00  0.00    +0.000 A 
ATOM     25  C   UNL     1       1.491   7.689  19.805  0.00  0.00    +0.000 A 
ATOM     26  C   UNL     1       1.479   8.995  19.276  0.00  0.00    +0.000 A 
BRANCH  24  27
ATOM     27  C   UNL     1       2.325   5.291  19.872  0.00  0.00    +0.000 A 
ATOM     28  C   UNL     1       1.265   4.863  20.571  0.00  0.00    +0.000 A 
ATOM     29  C   UNL     1       1.301   3.508  21.131  0.00  0.00    +0.000 A 
ATOM     30  N   UNL     1       2.283   2.678  21.035  0.00  0.00    +0.000 NA
ATOM     31  N   UNL     1       3.382   3.106  20.334  0.00  0.00    +0.000 N 
ATOM     32  C   UNL     1       4.487   2.172  20.232  0.00  0.00    +0.000 C 
ATOM     33  C   UNL     1       3.499   4.355  19.725  0.00  0.00    +0.000 A 
ATOM     34  O   UNL     1       4.507   4.687  19.101  0.00  0.00    +0.000 OA
ENDBRANCH  24  27
ENDBRANCH   1  26
TORSDOF 4
ENDMDL
MODEL 8
REMARK VINA RESULT:      -7.3      2.979      4.656
REMARK  Name = 
REMARK  7 active torsions:
REMARK  status: ('A' for Active; 'I' for Inactive)
REMARK    1  A    between atoms: C_1  and  C_2
REMARK    2  A    between atoms: C_5  and  C_6
REMARK    3  A    between atoms: N_10  and  C_11
REMARK    4  A    between atoms: C_15  and  N_16
REMARK    5  A    between atoms: C_17  and  C_19
REMARK    6  A    between atoms: N_21  and  C_22
REMARK    7  A    between atoms: C_26  and  C_27
REMARK                            x       y       z     vdW  Elec       q    Type
REMARK                         _______ _______ _______ _____ _____    ______ ____
ROOT
ATOM      1  N   UNL     1       2.739   6.154  18.795  0.00  0.00    +0.000 N 
ATOM      2  C   UNL     1       4.018   5.647  19.018  0.00  0.00    +0.000 C 
ATOM      3  O   UNL     1       5.024   6.310  19.280  0.00  0.00    +0.000 OA
ATOM      4  H   UNL     1       2.009   5.496  18.568  0.00  0.00    +0.000 HD
ENDROOT
BRANCH   2   5
ATOM      5  C   UNL     1       4.122   4.150  19.024  0.00  0.00    +0.000 C 
ATOM      6  C   UNL     1       4.060   3.434  20.163  0.00  0.00    +0.000 C 
ATOM      7  N   UNL     1       3.616   2.105  20.049  0.00  0.00    +0.000 N 
ATOM      8  C   UNL     1       4.649   1.053  19.977  0.00  0.00    +0.000 C 
ATOM      9  C   UNL     1       2.603   1.955  19.059  0.00  0.00    +0.000 C 
ATOM     10  O   UNL     1       1.506   1.470  19.318  0.00  0.00    +0.000 OA
ATOM     11  C   UNL     1       2.973   2.519  17.651  0.00  0.00    +0.000 C 
ATOM     12  C   UNL     1       4.295   3.282  17.797  0.00  0.00    +0.000 C 
BRANCH  12  13
ATOM     13  C   UNL     1       5.313   3.862  16.847  0.00  0.00    +0.000 A 
ATOM     14  C   UNL     1       6.605   4.267  17.150  0.00  0.00    +0.000 A 
ATOM     15  C   UNL     1       7.408   4.781  16.117  0.00  0.00    +0.000 A 
ATOM     16  C   UNL     1       6.921   4.896  14.810  0.00  0.00    +0.000 A 
ATOM     17  F   UNL     1       7.717   5.359  13.838  0.00  0.00    +0.000 F 
ATOM     18  C   UNL     1       5.624   4.549  14.501  0.00  0.00    +0.000 A 
ATOM     19  C   UNL     1       4.827   4.053  15.515  0.00  0.00    +0.000 A 
ENDBRANCH  12  13
ENDBRANCH   2   5
BRANCH   1  26
ATOM     20  C   UNL     1       3.441   8.013  16.594  0.00  0.00    +0.000 C 
ATOM     21  C   UNL     1       2.611   8.399  17.788  0.00  0.00    +0.000 A 
ATOM     22  C   UNL     1       2.127   9.721  17.818  0.00  0.00    +0.000 A 
ATOM     23  C   UNL     1       1.360  10.187  18.882  0.00  0.00    +0.000 A 
ATOM     24  C   UNL     1       1.080   9.360  19.970  0.00  0.00    +0.000 A 
ATOM     25  C   UNL     1       1.565   8.032  19.937  0.00  0.00    +0.000 A 
ATOM     26  C   UNL     1       2.309   7.520  18.856  0.00  0.00    +0.000 A 
BRANCH  24  27
ATOM     27  C   UNL     1       0.301   9.886  21.126  0.00  0.00    +0.000 A 
ATOM     28  C   UNL     1       0.427   9.315  22.332  0.00  0.00    +0.000 A 
ATOM     29  C   UNL     1      -0.369   9.847  23.442  0.00  0.00    +0.000 A 
ATOM     30  N   UNL     1      -1.214  10.818  23.367  0.00  0.00    +0.000 NA
ATOM     31  N   UNL     1      -1.366  11.406  22.136  0.00  0.00    +0.000 N 
ATOM     32  C   UNL     1      -2.320  12.495  22.054  0.00  0.00    +0.000 C 
ATOM     33  C   UNL     1      -0.673  11.032  20.986  0.00  0.00    +0.000 A 
ATOM     34  O   UNL     1      -0.842  11.598  19.906  0.00  0.00    +0.000 OA
ENDBRANCH  24  27
ENDBRANCH   1  26
TORSDOF 4
ENDMDL
MODEL 9
REMARK VINA RESULT:      -7.3      3.980      9.651
REMARK  Name = 
REMARK  7 active torsions:
REMARK  status: ('A' for Active; 'I' for Inactive)
REMARK    1  A    between atoms: C_1  and  C_2
REMARK    2  A    between atoms: C_5  and  C_6
REMARK    3  A    between atoms: N_10  and  C_11
REMARK    4  A    between atoms: C_15  and  N_16
REMARK    5  A    between atoms: C_17  and  C_19
REMARK    6  A    between atoms: N_21  and  C_22
REMARK    7  A    between atoms: C_26  and  C_27
REMARK                            x       y       z     vdW  Elec       q    Type
REMARK                         _______ _______ _______ _____ _____    ______ ____
ROOT
ATOM      1  N   UNL     1       0.555  10.188  19.838  0.00  0.00    +0.000 N 
ATOM      2  C   UNL     1      -0.298  10.148  20.940  0.00  0.00    +0.000 C 
ATOM      3  O   UNL     1      -0.564   9.150  21.614  0.00  0.00    +0.000 OA
ATOM      4  H   UNL     1       0.666  11.072  19.366  0.00  0.00    +0.000 HD
ENDROOT
BRANCH   2   5
ATOM      5  C   UNL     1      -0.848  11.475  21.374  0.00  0.00    +0.000 C 
ATOM      6  C   UNL     1      -1.028  11.785  22.672  0.00  0.00    +0.000 C 
ATOM      7  N   UNL     1      -1.003  13.150  23.004  0.00  0.00    +0.000 N 
ATOM      8  C   UNL     1      -2.302  13.839  23.128  0.00  0.00    +0.000 C 
ATOM      9  C   UNL     1      -0.062  13.880  22.224  0.00  0.00    +0.000 C 
ATOM     10  O   UNL     1       0.834  14.546  22.736  0.00  0.00    +0.000 OA
ATOM     11  C   UNL     1      -0.215  13.708  20.679  0.00  0.00    +0.000 C 
ATOM     12  C   UNL     1      -1.249  12.599  20.445  0.00  0.00    +0.000 C 
BRANCH  12  13
ATOM     13  C   UNL     1      -2.025  12.087  19.257  0.00  0.00    +0.000 A 
ATOM     14  C   UNL     1      -1.515  11.714  18.021  0.00  0.00    +0.000 A 
ATOM     15  C   UNL     1      -2.406  11.253  17.038  0.00  0.00    +0.000 A 
ATOM     16  C   UNL     1      -3.782  11.177  17.284  0.00  0.00    +0.000 A 
ATOM     17  F   UNL     1      -4.605  10.704  16.341  0.00  0.00    +0.000 F 
ATOM     18  C   UNL     1      -4.313  11.593  18.485  0.00  0.00    +0.000 A 
ATOM     19  C   UNL     1      -3.442  12.057  19.453  0.00  0.00    +0.000 A 
ENDBRANCH  12  13
ENDBRANCH   2   5
BRANCH   1  26
ATOM     20  C   UNL     1       2.373  10.719  17.557  0.00  0.00    +0.000 C 
ATOM     21  C   UNL     1       2.219   9.374  18.215  0.00  0.00    +0.000 A 
ATOM     22  C   UNL     1       3.024   8.333  17.714  0.00  0.00    +0.000 A 
ATOM     23  C   UNL     1       2.953   7.047  18.241  0.00  0.00    +0.000 A 
ATOM     24  C   UNL     1       2.050   6.747  19.261  0.00  0.00    +0.000 A 
ATOM     25  C   UNL     1       1.244   7.794  19.763  0.00  0.00    +0.000 A 
ATOM     26  C   UNL     1       1.322   9.115  19.279  0.00  0.00    +0.000 A 
BRANCH  24  27
ATOM     27  C   UNL     1       1.948   5.354  19.781  0.00  0.00    +0.000 A 
ATOM     28  C   UNL     1       2.247   5.096  21.062  0.00  0.00    +0.000 A 
ATOM     29  C   UNL     1       2.153   3.712  21.534  0.00  0.00    +0.000 A 
ATOM     30  N   UNL     1       1.826   2.691  20.818  0.00  0.00    +0.000 NA
ATOM     31  N   UNL     1       1.528   2.935  19.501  0.00  0.00    +0.000 N 
ATOM     32  C   UNL     1       1.164   1.784  18.697  0.00  0.00    +0.000 C 
ATOM     33  C   UNL     1       1.552   4.193  18.901  0.00  0.00    +0.000 A 
ATOM     34  O   UNL     1       1.270   4.359  17.714  0.00  0.00    +0.000 OA
ENDBRANCH  24  27
ENDBRANCH   1  26
TORSDOF 4
ENDMDL
