MODEL 1
REMARK VINA RESULT:      -8.1      0.000      0.000
REMARK  Name = 
REMARK  6 active torsions:
REMARK  status: ('A' for Active; 'I' for Inactive)
REMARK    1  A    between atoms: C_1  and  C_2
REMARK    2  A    between atoms: C_2  and  C_4
REMARK    3  A    between atoms: C_7  and  C_8
REMARK    4  A    between atoms: N_15  and  S_16
REMARK    5  A    between atoms: S_16  and  C_19
REMARK    6  A    between atoms: C_22  and  C_23
REMARK                            x       y       z     vdW  Elec       q    Type
REMARK                         _______ _______ _______ _____ _____    ______ ____
ROOT
ATOM      1  C   UNL     1       2.324   3.661  20.114  0.00  0.00    +0.000 C 
ATOM      2  C   UNL     1       1.294   3.699  19.248  0.00  0.00    +0.000 C 
ATOM      3  C   UNL     1       1.487   4.244  17.862  0.00  0.00    +0.000 C 
ATOM      4  C   UNL     1       2.741   5.151  17.716  0.00  0.00    +0.000 C 
ATOM      5  N   UNL     1       3.912   4.443  18.312  0.00  0.00    +0.000 NA
ATOM      6  C   UNL     1       3.737   4.057  19.758  0.00  0.00    +0.000 C 
ENDROOT
BRANCH   4   7
ATOM      7  C   UNL     1       2.521   6.594  18.159  0.00  0.00    +0.000 A 
ATOM      8  C   UNL     1       2.629   7.698  17.297  0.00  0.00    +0.000 A 
ATOM      9  C   UNL     1       2.287   8.984  17.719  0.00  0.00    +0.000 A 
ATOM     10  C   UNL     1       1.831   9.197  19.016  0.00  0.00    +0.000 A 
ATOM     11  C   UNL     1       1.761   8.123  19.896  0.00  0.00    +0.000 A 
ATOM     12 BR   UNL     1       1.122   8.392  21.655  0.00  0.00    +0.000 Br
ATOM     13  C   UNL     1       2.123   6.841  19.483  0.00  0.00    +0.000 A 
ENDBRANCH   4   7
BRANCH   1  15
ATOM     14  C   UNL     1       1.192   2.220  21.965  0.00  0.00    +0.000 C 
ATOM     15  C   UNL     1       2.116   3.341  21.567  0.00  0.00    +0.000 C 
ATOM     16  O   UNL     1       2.676   4.026  22.422  0.00  0.00    +0.000 OA
ENDBRANCH   1  15
BRANCH   5  17
ATOM     17  S   UNL     1       5.484   5.082  18.076  0.00  0.00    +0.000 S 
ATOM     18  O   UNL     1       5.398   6.523  18.198  0.00  0.00    +0.000 OA
ATOM     19  O   UNL     1       6.373   4.335  18.943  0.00  0.00    +0.000 OA
BRANCH  17  20
ATOM     20  C   UNL     1       5.967   4.703  16.408  0.00  0.00    +0.000 A 
ATOM     21  C   UNL     1       5.127   3.905  15.621  0.00  0.00    +0.000 A 
ATOM     22  C   UNL     1       5.435   3.676  14.277  0.00  0.00    +0.000 A 
ATOM     23  C   UNL     1       6.570   4.257  13.703  0.00  0.00    +0.000 A 
ATOM     24  C   UNL     1       6.884   4.036  12.250  0.00  0.00    +0.000 C 
ATOM     25  C   UNL     1       7.389   5.081  14.491  0.00  0.00    +0.000 A 
ATOM     26  C   UNL     1       7.091   5.307  15.842  0.00  0.00    +0.000 A 
ENDBRANCH  17  20
ENDBRANCH   5  17
TORSDOF 4
ENDMDL
MODEL 2
REMARK VINA RESULT:      -8.0      1.143      1.499
REMARK  Name = 
REMARK  6 active torsions:
REMARK  status: ('A' for Active; 'I' for Inactive)
REMARK    1  A    between atoms: C_1  and  C_2
REMARK    2  A    between atoms: C_2  and  C_4
REMARK    3  A    between atoms: C_7  and  C_8
REMARK    4  A    between atoms: N_15  and  S_16
REMARK    5  A    between atoms: S_16  and  C_19
REMARK    6  A    between atoms: C_22  and  C_23
REMARK                            x       y       z     vdW  Elec       q    Type
REMARK                         _______ _______ _______ _____ _____    ______ ____
ROOT
ATOM      1  C   UNL     1       2.605   3.025  19.948  0.00  0.00    +0.000 C 
ATOM      2  C   UNL     1       1.471   3.075  19.223  0.00  0.00    +0.000 C 
ATOM      3  C   UNL     1       1.394   3.930  17.992  0.00  0.00    +0.000 C 
ATOM      4  C   UNL     1       2.475   5.045  17.936  0.00  0.00    +0.000 C 
ATOM      5  N   UNL     1       3.805   4.433  18.229  0.00  0.00    +0.000 NA
ATOM      6  C   UNL     1       3.885   3.721  19.554  0.00  0.00    +0.000 C 
ENDROOT
BRANCH   4   7
ATOM      7  C   UNL     1       2.116   6.300  18.725  0.00  0.00    +0.000 A 
ATOM      8  C   UNL     1       1.912   6.314  20.115  0.00  0.00    +0.000 A 
ATOM      9  C   UNL     1       1.719   7.509  20.809  0.00  0.00    +0.000 A 
ATOM     10  C   UNL     1       1.721   8.722  20.127  0.00  0.00    +0.000 A 
ATOM     11  C   UNL     1       1.875   8.724  18.746  0.00  0.00    +0.000 A 
ATOM     12 BR   UNL     1       1.903  10.365  17.807  0.00  0.00    +0.000 Br
ATOM     13  C   UNL     1       2.048   7.529  18.048  0.00  0.00    +0.000 A 
ENDBRANCH   4   7
BRANCH   1  15
ATOM     14  C   UNL     1       1.409   2.347  22.162  0.00  0.00    +0.000 C 
ATOM     15  C   UNL     1       2.644   2.369  21.299  0.00  0.00    +0.000 C 
ATOM     16  O   UNL     1       3.701   1.887  21.705  0.00  0.00    +0.000 OA
ENDBRANCH   1  15
BRANCH   5  17
ATOM     17  S   UNL     1       5.223   5.364  17.991  0.00  0.00    +0.000 S 
ATOM     18  O   UNL     1       4.839   6.760  17.976  0.00  0.00    +0.000 OA
ATOM     19  O   UNL     1       6.198   4.892  18.955  0.00  0.00    +0.000 OA
BRANCH  17  20
ATOM     20  C   UNL     1       5.864   4.956  16.384  0.00  0.00    +0.000 A 
ATOM     21  C   UNL     1       5.068   4.214  15.502  0.00  0.00    +0.000 A 
ATOM     22  C   UNL     1       5.509   3.966  14.199  0.00  0.00    +0.000 A 
ATOM     23  C   UNL     1       6.735   4.475  13.759  0.00  0.00    +0.000 A 
ATOM     24  C   UNL     1       7.193   4.236  12.348  0.00  0.00    +0.000 C 
ATOM     25  C   UNL     1       7.512   5.244  14.640  0.00  0.00    +0.000 A 
ATOM     26  C   UNL     1       7.080   5.488  15.951  0.00  0.00    +0.000 A 
ENDBRANCH  17  20
ENDBRANCH   5  17
TORSDOF 4
ENDMDL
MODEL 3
REMARK VINA RESULT:      -8.0      5.255      7.859
REMARK  Name = 
REMARK  6 active torsions:
REMARK  status: ('A' for Active; 'I' for Inactive)
REMARK    1  A    between atoms: C_1  and  C_2
REMARK    2  A    between atoms: C_2  and  C_4
REMARK    3  A    between atoms: C_7  and  C_8
REMARK    4  A    between atoms: N_15  and  S_16
REMARK    5  A    between atoms: S_16  and  C_19
REMARK    6  A    between atoms: C_22  and  C_23
REMARK                            x       y       z     vdW  Elec       q    Type
REMARK                         _______ _______ _______ _____ _____    ______ ____
ROOT
ATOM      1  C   UNL     1      -1.660  10.861  17.908  0.00  0.00    +0.000 C 
ATOM      2  C   UNL     1      -1.438  12.188  17.895  0.00  0.00    +0.000 C 
ATOM      3  C   UNL     1      -0.537  12.818  18.918  0.00  0.00    +0.000 C 
ATOM      4  C   UNL     1      -0.322  11.944  20.185  0.00  0.00    +0.000 C 
ATOM      5  N   UNL     1       0.039  10.561  19.753  0.00  0.00    +0.000 NA
ATOM      6  C   UNL     1      -0.976   9.903  18.855  0.00  0.00    +0.000 C 
ENDROOT
BRANCH   4   7
ATOM      7  C   UNL     1      -1.437  12.063  21.220  0.00  0.00    +0.000 A 
ATOM      8  C   UNL     1      -1.252  11.832  22.593  0.00  0.00    +0.000 A 
ATOM      9  C   UNL     1      -2.269  12.085  23.515  0.00  0.00    +0.000 A 
ATOM     10  C   UNL     1      -3.499  12.571  23.084  0.00  0.00    +0.000 A 
ATOM     11  C   UNL     1      -3.716  12.761  21.723  0.00  0.00    +0.000 A 
ATOM     12 BR   UNL     1      -5.373  13.443  21.123  0.00  0.00    +0.000 Br
ATOM     13  C   UNL     1      -2.707  12.490  20.799  0.00  0.00    +0.000 A 
ENDBRANCH   4   7
BRANCH   1  15
ATOM     14  C   UNL     1      -2.730  10.470  15.565  0.00  0.00    +0.000 C 
ATOM     15  C   UNL     1      -2.725  10.234  17.054  0.00  0.00    +0.000 C 
ATOM     16  O   UNL     1      -3.608   9.563  17.586  0.00  0.00    +0.000 OA
ENDBRANCH   1  15
BRANCH   5  17
ATOM     17  S   UNL     1       0.583   9.435  20.924  0.00  0.00    +0.000 S 
ATOM     18  O   UNL     1       1.454  10.139  21.843  0.00  0.00    +0.000 OA
ATOM     19  O   UNL     1      -0.594   8.752  21.423  0.00  0.00    +0.000 OA
BRANCH  17  20
ATOM     20  C   UNL     1       1.556   8.213  20.076  0.00  0.00    +0.000 A 
ATOM     21  C   UNL     1       1.665   6.929  20.625  0.00  0.00    +0.000 A 
ATOM     22  C   UNL     1       2.341   5.924  19.928  0.00  0.00    +0.000 A 
ATOM     23  C   UNL     1       2.894   6.185  18.670  0.00  0.00    +0.000 A 
ATOM     24  C   UNL     1       3.592   5.095  17.906  0.00  0.00    +0.000 C 
ATOM     25  C   UNL     1       2.752   7.466  18.113  0.00  0.00    +0.000 A 
ATOM     26  C   UNL     1       2.083   8.482  18.812  0.00  0.00    +0.000 A 
ENDBRANCH  17  20
ENDBRANCH   5  17
TORSDOF 4
ENDMDL
MODEL 4
REMARK VINA RESULT:      -7.6      2.111      6.048
REMARK  Name = 
REMARK  6 active torsions:
REMARK  status: ('A' for Active; 'I' for Inactive)
REMARK    1  A    between atoms: C_1  and  C_2
REMARK    2  A    between atoms: C_2  and  C_4
REMARK    3  A    between atoms: C_7  and  C_8
REMARK    4  A    between atoms: N_15  and  S_16
REMARK    5  A    between atoms: S_16  and  C_19
REMARK    6  A    between atoms: C_22  and  C_23
REMARK                            x       y       z     vdW  Elec       q    Type
REMARK                         _______ _______ _______ _____ _____    ______ ____
ROOT
ATOM      1  C   UNL     1       6.596   4.488  16.010  0.00  0.00    +0.000 C 
ATOM      2  C   UNL     1       7.261   4.929  17.093  0.00  0.00    +0.000 C 
ATOM      3  C   UNL     1       6.670   4.772  18.464  0.00  0.00    +0.000 C 
ATOM      4  C   UNL     1       5.132   4.544  18.459  0.00  0.00    +0.000 C 
ATOM      5  N   UNL     1       4.815   3.462  17.479  0.00  0.00    +0.000 NA
ATOM      6  C   UNL     1       5.288   3.737  16.075  0.00  0.00    +0.000 C 
ENDROOT
BRANCH   4   7
ATOM      7  C   UNL     1       4.313   5.825  18.346  0.00  0.00    +0.000 A 
ATOM      8  C   UNL     1       4.322   6.657  17.214  0.00  0.00    +0.000 A 
ATOM      9  C   UNL     1       3.454   7.744  17.105  0.00  0.00    +0.000 A 
ATOM     10  C   UNL     1       2.557   8.029  18.130  0.00  0.00    +0.000 A 
ATOM     11  C   UNL     1       2.566   7.244  19.277  0.00  0.00    +0.000 A 
ATOM     12 BR   UNL     1       1.338   7.604  20.669  0.00  0.00    +0.000 Br
ATOM     13  C   UNL     1       3.447   6.170  19.397  0.00  0.00    +0.000 A 
ENDBRANCH   4   7
BRANCH   1  15
ATOM     14  C   UNL     1       6.429   4.132  13.434  0.00  0.00    +0.000 C 
ATOM     15  C   UNL     1       7.046   4.831  14.618  0.00  0.00    +0.000 C 
ATOM     16  O   UNL     1       7.946   5.656  14.461  0.00  0.00    +0.000 OA
ENDBRANCH   1  15
BRANCH   5  17
ATOM     17  S   UNL     1       3.231   2.813  17.435  0.00  0.00    +0.000 S 
ATOM     18  O   UNL     1       2.408   3.708  16.648  0.00  0.00    +0.000 OA
ATOM     19  O   UNL     1       3.361   1.422  17.049  0.00  0.00    +0.000 OA
BRANCH  17  20
ATOM     20  C   UNL     1       2.607   2.820  19.100  0.00  0.00    +0.000 A 
ATOM     21  C   UNL     1       1.264   3.150  19.321  0.00  0.00    +0.000 A 
ATOM     22  C   UNL     1       0.725   3.066  20.608  0.00  0.00    +0.000 A 
ATOM     23  C   UNL     1       1.513   2.631  21.678  0.00  0.00    +0.000 A 
ATOM     24  C   UNL     1       0.924   2.510  23.055  0.00  0.00    +0.000 C 
ATOM     25  C   UNL     1       2.850   2.272  21.441  0.00  0.00    +0.000 A 
ATOM     26  C   UNL     1       3.399   2.364  20.154  0.00  0.00    +0.000 A 
ENDBRANCH  17  20
ENDBRANCH   5  17
TORSDOF 4
ENDMDL
MODEL 5
REMARK VINA RESULT:      -7.5      1.345      1.949
REMARK  Name = 
REMARK  6 active torsions:
REMARK  status: ('A' for Active; 'I' for Inactive)
REMARK    1  A    between atoms: C_1  and  C_2
REMARK    2  A    between atoms: C_2  and  C_4
REMARK    3  A    between atoms: C_7  and  C_8
REMARK    4  A    between atoms: N_15  and  S_16
REMARK    5  A    between atoms: S_16  and  C_19
REMARK    6  A    between atoms: C_22  and  C_23
REMARK                            x       y       z     vdW  Elec       q    Type
REMARK                         _______ _______ _______ _____ _____    ______ ____
ROOT
ATOM      1  C   UNL     1       3.159   2.956  19.782  0.00  0.00    +0.000 C 
ATOM      2  C   UNL     1       1.925   2.894  19.247  0.00  0.00    +0.000 C 
ATOM      3  C   UNL     1       1.570   3.735  18.056  0.00  0.00    +0.000 C 
ATOM      4  C   UNL     1       2.515   4.952  17.846  0.00  0.00    +0.000 C 
ATOM      5  N   UNL     1       3.928   4.473  17.915  0.00  0.00    +0.000 NA
ATOM      6  C   UNL     1       4.287   3.774  19.200  0.00  0.00    +0.000 C 
ENDROOT
BRANCH   4   7
ATOM      7  C   UNL     1       2.167   6.166  18.700  0.00  0.00    +0.000 A 
ATOM      8  C   UNL     1       2.043   6.124  20.099  0.00  0.00    +0.000 A 
ATOM      9  C   UNL     1       1.856   7.288  20.846  0.00  0.00    +0.000 A 
ATOM     10  C   UNL     1       1.782   8.523  20.211  0.00  0.00    +0.000 A 
ATOM     11  C   UNL     1       1.856   8.579  18.823  0.00  0.00    +0.000 A 
ATOM     12 BR   UNL     1       1.781  10.252  17.946  0.00  0.00    +0.000 Br
ATOM     13  C   UNL     1       2.023   7.415  18.073  0.00  0.00    +0.000 A 
ENDBRANCH   4   7
BRANCH   1  15
ATOM     14  C   UNL     1       4.722   1.473  21.247  0.00  0.00    +0.000 C 
ATOM     15  C   UNL     1       3.476   2.309  21.100  0.00  0.00    +0.000 C 
ATOM     16  O   UNL     1       2.693   2.438  22.040  0.00  0.00    +0.000 OA
ENDBRANCH   1  15
BRANCH   5  17
ATOM     17  S   UNL     1       5.193   5.538  17.469  0.00  0.00    +0.000 S 
ATOM     18  O   UNL     1       4.648   6.880  17.427  0.00  0.00    +0.000 OA
ATOM     19  O   UNL     1       6.315   5.240  18.338  0.00  0.00    +0.000 OA
BRANCH  17  20
ATOM     20  C   UNL     1       5.700   5.103  15.822  0.00  0.00    +0.000 A 
ATOM     21  C   UNL     1       6.997   5.424  15.402  0.00  0.00    +0.000 A 
ATOM     22  C   UNL     1       7.452   5.004  14.149  0.00  0.00    +0.000 A 
ATOM     23  C   UNL     1       6.626   4.244  13.315  0.00  0.00    +0.000 A 
ATOM     24  C   UNL     1       7.127   3.766  11.981  0.00  0.00    +0.000 C 
ATOM     25  C   UNL     1       5.339   3.900  13.757  0.00  0.00    +0.000 A 
ATOM     26  C   UNL     1       4.873   4.326  15.010  0.00  0.00    +0.000 A 
ENDBRANCH  17  20
ENDBRANCH   5  17
TORSDOF 4
ENDMDL
MODEL 6
REMARK VINA RESULT:      -7.5      5.214      7.896
REMARK  Name = 
REMARK  6 active torsions:
REMARK  status: ('A' for Active; 'I' for Inactive)
REMARK    1  A    between atoms: C_1  and  C_2
REMARK    2  A    between atoms: C_2  and  C_4
REMARK    3  A    between atoms: C_7  and  C_8
REMARK    4  A    between atoms: N_15  and  S_16
REMARK    5  A    between atoms: S_16  and  C_19
REMARK    6  A    between atoms: C_22  and  C_23
REMARK                            x       y       z     vdW  Elec       q    Type
REMARK                         _______ _______ _______ _____ _____    ______ ____
ROOT
ATOM      1  C   UNL     1      -1.454  11.313  18.263  0.00  0.00    +0.000 C 
ATOM      2  C   UNL     1      -0.903  12.539  18.201  0.00  0.00    +0.000 C 
ATOM      3  C   UNL     1       0.225  12.912  19.118  0.00  0.00    +0.000 C 
ATOM      4  C   UNL     1       0.334  12.005  20.377  0.00  0.00    +0.000 C 
ATOM      5  N   UNL     1       0.286  10.578  19.940  0.00  0.00    +0.000 NA
ATOM      6  C   UNL     1      -0.947  10.207  19.158  0.00  0.00    +0.000 C 
ENDROOT
BRANCH   4   7
ATOM      7  C   UNL     1      -0.605  12.400  21.512  0.00  0.00    +0.000 A 
ATOM      8  C   UNL     1      -1.609  11.559  22.020  0.00  0.00    +0.000 A 
ATOM      9  C   UNL     1      -2.352  11.914  23.147  0.00  0.00    +0.000 A 
ATOM     10  C   UNL     1      -2.112  13.123  23.791  0.00  0.00    +0.000 A 
ATOM     11  C   UNL     1      -1.154  13.989  23.275  0.00  0.00    +0.000 A 
ATOM     12 BR   UNL     1      -0.800  15.626  24.151  0.00  0.00    +0.000 Br
ATOM     13  C   UNL     1      -0.425  13.645  22.137  0.00  0.00    +0.000 A 
ENDBRANCH   4   7
BRANCH   1  15
ATOM     14  C   UNL     1      -2.662  10.265  16.206  0.00  0.00    +0.000 C 
ATOM     15  C   UNL     1      -2.723  10.984  17.529  0.00  0.00    +0.000 C 
ATOM     16  O   UNL     1      -3.802  11.341  18.000  0.00  0.00    +0.000 OA
ENDBRANCH   1  15
BRANCH   5  17
ATOM     17  S   UNL     1       0.638   9.345  21.075  0.00  0.00    +0.000 S 
ATOM     18  O   UNL     1       1.517   9.907  22.080  0.00  0.00    +0.000 OA
ATOM     19  O   UNL     1      -0.631   8.764  21.466  0.00  0.00    +0.000 OA
BRANCH  17  20
ATOM     20  C   UNL     1       1.534   8.072  20.217  0.00  0.00    +0.000 A 
ATOM     21  C   UNL     1       1.593   6.788  20.774  0.00  0.00    +0.000 A 
ATOM     22  C   UNL     1       2.205   5.747  20.071  0.00  0.00    +0.000 A 
ATOM     23  C   UNL     1       2.743   5.971  18.800  0.00  0.00    +0.000 A 
ATOM     24  C   UNL     1       3.373   4.844  18.031  0.00  0.00    +0.000 C 
ATOM     25  C   UNL     1       2.651   7.254  18.236  0.00  0.00    +0.000 A 
ATOM     26  C   UNL     1       2.047   8.306  18.940  0.00  0.00    +0.000 A 
ENDBRANCH  17  20
ENDBRANCH   5  17
TORSDOF 4
ENDMDL
MODEL 7
REMARK VINA RESULT:      -7.2      5.417      8.121
REMARK  Name = 
REMARK  6 active torsions:
REMARK  status: ('A' for Active; 'I' for Inactive)
REMARK    1  A    between atoms: C_1  and  C_2
REMARK    2  A    between atoms: C_2  and  C_4
REMARK    3  A    between atoms: C_7  and  C_8
REMARK    4  A    between atoms: N_15  and  S_16
REMARK    5  A    between atoms: S_16  and  C_19
REMARK    6  A    between atoms: C_22  and  C_23
REMARK                            x       y       z     vdW  Elec       q    Type
REMARK                         _______ _______ _______ _____ _____    ______ ____
ROOT
ATOM      1  C   UNL     1      -1.844  10.922  17.748  0.00  0.00    +0.000 C 
ATOM      2  C   UNL     1      -1.561  12.199  17.431  0.00  0.00    +0.000 C 
ATOM      3  C   UNL     1      -0.579  12.985  18.251  0.00  0.00    +0.000 C 
ATOM      4  C   UNL     1      -0.340  12.400  19.671  0.00  0.00    +0.000 C 
ATOM      5  N   UNL     1      -0.066  10.938  19.542  0.00  0.00    +0.000 NA
ATOM      6  C   UNL     1      -1.157  10.158  18.855  0.00  0.00    +0.000 C 
ENDROOT
BRANCH   4   7
ATOM      7  C   UNL     1      -1.391  12.807  20.698  0.00  0.00    +0.000 A 
ATOM      8  C   UNL     1      -2.727  12.372  20.658  0.00  0.00    +0.000 A 
ATOM      9  C   UNL     1      -3.615  12.663  21.694  0.00  0.00    +0.000 A 
ATOM     10  C   UNL     1      -3.191  13.402  22.793  0.00  0.00    +0.000 A 
ATOM     11  C   UNL     1      -1.886  13.881  22.828  0.00  0.00    +0.000 A 
ATOM     12 BR   UNL     1      -1.287  14.867  24.324  0.00  0.00    +0.000 Br
ATOM     13  C   UNL     1      -1.002  13.608  21.784  0.00  0.00    +0.000 A 
ENDBRANCH   4   7
BRANCH   1  15
ATOM     14  C   UNL     1      -3.374  10.510  15.680  0.00  0.00    +0.000 C 
ATOM     15  C   UNL     1      -2.981  10.186  17.098  0.00  0.00    +0.000 C 
ATOM     16  O   UNL     1      -3.606   9.347  17.747  0.00  0.00    +0.000 OA
ENDBRANCH   1  15
BRANCH   5  17
ATOM     17  S   UNL     1       0.484  10.068  20.911  0.00  0.00    +0.000 S 
ATOM     18  O   UNL     1       1.443  10.900  21.608  0.00  0.00    +0.000 OA
ATOM     19  O   UNL     1      -0.696   9.589  21.603  0.00  0.00    +0.000 OA
BRANCH  17  20
ATOM     20  C   UNL     1       1.341   8.628  20.317  0.00  0.00    +0.000 A 
ATOM     21  C   UNL     1       1.290   7.447  21.068  0.00  0.00    +0.000 A 
ATOM     22  C   UNL     1       1.870   6.276  20.574  0.00  0.00    +0.000 A 
ATOM     23  C   UNL     1       2.487   6.267  19.319  0.00  0.00    +0.000 A 
ATOM     24  C   UNL     1       3.083   5.000  18.774  0.00  0.00    +0.000 C 
ATOM     25  C   UNL     1       2.506   7.448  18.559  0.00  0.00    +0.000 A 
ATOM     26  C   UNL     1       1.933   8.629  19.053  0.00  0.00    +0.000 A 
ENDBRANCH  17  20
ENDBRANCH   5  17
TORSDOF 4
ENDMDL
MODEL 8
REMARK VINA RESULT:      -7.2      7.101      8.983
REMARK  Name = 
REMARK  6 active torsions:
REMARK  status: ('A' for Active; 'I' for Inactive)
REMARK    1  A    between atoms: C_1  and  C_2
REMARK    2  A    between atoms: C_2  and  C_4
REMARK    3  A    between atoms: C_7  and  C_8
REMARK    4  A    between atoms: N_15  and  S_16
REMARK    5  A    between atoms: S_16  and  C_19
REMARK    6  A    between atoms: C_22  and  C_23
REMARK                            x       y       z     vdW  Elec       q    Type
REMARK                         _______ _______ _______ _____ _____    ______ ____
ROOT
ATOM      1  C   UNL     1       0.171  10.430  21.597  0.00  0.00    +0.000 C 
ATOM      2  C   UNL     1       0.384   9.350  20.822  0.00  0.00    +0.000 C 
ATOM      3  C   UNL     1       0.710   9.513  19.366  0.00  0.00    +0.000 C 
ATOM      4  C   UNL     1       0.303  10.897  18.785  0.00  0.00    +0.000 C 
ATOM      5  N   UNL     1       0.813  11.964  19.696  0.00  0.00    +0.000 NA
ATOM      6  C   UNL     1       0.328  11.853  21.119  0.00  0.00    +0.000 C 
ENDROOT
BRANCH   4   7
ATOM      7  C   UNL     1      -1.164  10.994  18.379  0.00  0.00    +0.000 A 
ATOM      8  C   UNL     1      -2.153  11.602  19.172  0.00  0.00    +0.000 A 
ATOM      9  C   UNL     1      -3.452  11.785  18.697  0.00  0.00    +0.000 A 
ATOM     10  C   UNL     1      -3.797  11.360  17.419  0.00  0.00    +0.000 A 
ATOM     11  C   UNL     1      -2.844  10.715  16.637  0.00  0.00    +0.000 A 
ATOM     12 BR   UNL     1      -3.290  10.151  14.889  0.00  0.00    +0.000 Br
ATOM     13  C   UNL     1      -1.551  10.512  17.118  0.00  0.00    +0.000 A 
ENDBRANCH   4   7
BRANCH   1  15
ATOM     14  C   UNL     1      -1.659  11.002  23.362  0.00  0.00    +0.000 C 
ATOM     15  C   UNL     1      -0.378  10.300  22.989  0.00  0.00    +0.000 C 
ATOM     16  O   UNL     1       0.246   9.649  23.826  0.00  0.00    +0.000 OA
ENDBRANCH   1  15
BRANCH   5  17
ATOM     17  S   UNL     1       0.739  13.599  19.192  0.00  0.00    +0.000 S 
ATOM     18  O   UNL     1       0.292  13.617  17.814  0.00  0.00    +0.000 OA
ATOM     19  O   UNL     1      -0.010  14.315  20.205  0.00  0.00    +0.000 OA
BRANCH  17  20
ATOM     20  C   UNL     1       2.395  14.244  19.236  0.00  0.00    +0.000 A 
ATOM     21  C   UNL     1       3.143  14.281  18.052  0.00  0.00    +0.000 A 
ATOM     22  C   UNL     1       4.408  14.875  18.041  0.00  0.00    +0.000 A 
ATOM     23  C   UNL     1       4.928  15.454  19.202  0.00  0.00    +0.000 A 
ATOM     24  C   UNL     1       6.275  16.120  19.182  0.00  0.00    +0.000 C 
ATOM     25  C   UNL     1       4.158  15.440  20.377  0.00  0.00    +0.000 A 
ATOM     26  C   UNL     1       2.892  14.838  20.397  0.00  0.00    +0.000 A 
ENDBRANCH  17  20
ENDBRANCH   5  17
TORSDOF 4
ENDMDL
MODEL 9
REMARK VINA RESULT:      -7.0      5.902      9.749
REMARK  Name = 
REMARK  6 active torsions:
REMARK  status: ('A' for Active; 'I' for Inactive)
REMARK    1  A    between atoms: C_1  and  C_2
REMARK    2  A    between atoms: C_2  and  C_4
REMARK    3  A    between atoms: C_7  and  C_8
REMARK    4  A    between atoms: N_15  and  S_16
REMARK    5  A    between atoms: S_16  and  C_19
REMARK    6  A    between atoms: C_22  and  C_23
REMARK                            x       y       z     vdW  Elec       q    Type
REMARK                         _______ _______ _______ _____ _____    ______ ____
ROOT
ATOM      1  C   UNL     1       1.168   9.748  18.195  0.00  0.00    +0.000 C 
ATOM      2  C   UNL     1      -0.121   9.701  17.808  0.00  0.00    +0.000 C 
ATOM      3  C   UNL     1      -1.030  10.871  18.048  0.00  0.00    +0.000 C 
ATOM      4  C   UNL     1      -0.519  11.845  19.147  0.00  0.00    +0.000 C 
ATOM      5  N   UNL     1       0.911  12.170  18.867  0.00  0.00    +0.000 NA
ATOM      6  C   UNL     1       1.820  10.970  18.796  0.00  0.00    +0.000 C 
ENDROOT
BRANCH   4   7
ATOM      7  C   UNL     1      -0.850  11.407  20.570  0.00  0.00    +0.000 A 
ATOM      8  C   UNL     1      -0.226  10.327  21.217  0.00  0.00    +0.000 A 
ATOM      9  C   UNL     1      -0.467  10.050  22.563  0.00  0.00    +0.000 A 
ATOM     10  C   UNL     1      -1.343  10.845  23.295  0.00  0.00    +0.000 A 
ATOM     11  C   UNL     1      -2.005  11.890  22.660  0.00  0.00    +0.000 A 
ATOM     12 BR   UNL     1      -3.181  12.994  23.645  0.00  0.00    +0.000 Br
ATOM     13  C   UNL     1      -1.781  12.155  21.309  0.00  0.00    +0.000 A 
ENDBRANCH   4   7
BRANCH   1  15
ATOM     14  C   UNL     1       2.131   7.653  19.408  0.00  0.00    +0.000 C 
ATOM     15  C   UNL     1       2.037   8.523  18.181  0.00  0.00    +0.000 C 
ATOM     16  O   UNL     1       2.697   8.263  17.175  0.00  0.00    +0.000 OA
ENDBRANCH   1  15
BRANCH   5  17
ATOM     17  S   UNL     1       1.675  13.416  19.760  0.00  0.00    +0.000 S 
ATOM     18  O   UNL     1       1.797  12.966  21.131  0.00  0.00    +0.000 OA
ATOM     19  O   UNL     1       2.859  13.797  19.015  0.00  0.00    +0.000 OA
BRANCH  17  20
ATOM     20  C   UNL     1       0.591  14.825  19.742  0.00  0.00    +0.000 A 
ATOM     21  C   UNL     1       0.378  15.503  18.535  0.00  0.00    +0.000 A 
ATOM     22  C   UNL     1      -0.546  16.551  18.474  0.00  0.00    +0.000 A 
ATOM     23  C   UNL     1      -1.279  16.915  19.609  0.00  0.00    +0.000 A 
ATOM     24  C   UNL     1      -2.294  18.019  19.535  0.00  0.00    +0.000 C 
ATOM     25  C   UNL     1      -1.081  16.208  20.806  0.00  0.00    +0.000 A 
ATOM     26  C   UNL     1      -0.149  15.162  20.876  0.00  0.00    +0.000 A 
ENDBRANCH  17  20
ENDBRANCH   5  17
TORSDOF 4
ENDMDL
