MODEL 1
REMARK VINA RESULT:      -8.2      0.000      0.000
REMARK  Name = 
REMARK  0 active torsions:
REMARK  status: ('A' for Active; 'I' for Inactive)
REMARK                            x       y       z     vdW  Elec       q    Type
REMARK                         _______ _______ _______ _____ _____    ______ ____
ROOT
ATOM      1  C   UNL     1       7.672   4.602  17.600  0.00  0.00    +0.000 A 
ATOM      2  C   UNL     1       7.595   5.844  18.230  0.00  0.00    +0.000 A 
ATOM      3  C   UNL     1       6.425   6.594  18.151  0.00  0.00    +0.000 A 
ATOM      4  C   UNL     1       5.321   6.093  17.456  0.00  0.00    +0.000 A 
ATOM      5  C   UNL     1       5.392   4.843  16.820  0.00  0.00    +0.000 A 
ATOM      6  C   UNL     1       6.582   4.106  16.886  0.00  0.00    +0.000 A 
ATOM      7  C   UNL     1       4.169   4.264  16.158  0.00  0.00    +0.000 C 
ATOM      8  C   UNL     1       3.147   3.692  17.157  0.00  0.00    +0.000 C 
ATOM      9  C   UNL     1       3.686   2.383  17.794  0.00  0.00    +0.000 C 
ATOM     10  N   UNL     1       2.615   1.559  18.375  0.00  0.00    +0.000 NA
ATOM     11  C   UNL     1       1.540   2.349  18.974  0.00  0.00    +0.000 C 
ATOM     12  C   UNL     1       1.906   3.784  19.296  0.00  0.00    +0.000 A 
ATOM     13  C   UNL     1       1.431   4.396  20.462  0.00  0.00    +0.000 A 
ATOM     14  C   UNL     1       1.665   5.742  20.687  0.00  0.00    +0.000 A 
ATOM     15  C   UNL     1       2.376   6.494  19.749  0.00  0.00    +0.000 A 
ATOM     16  C   UNL     1       2.869   5.903  18.572  0.00  0.00    +0.000 A 
ATOM     17  C   UNL     1       2.648   4.531  18.338  0.00  0.00    +0.000 A 
ATOM     18  S   UNL     1       3.786   6.998  17.495  0.00  0.00    +0.000 S 
ATOM     19  H   UNL     1       3.016   0.936  19.073  0.00  0.00    +0.000 HD
ENDROOT
TORSDOF 0
ENDMDL
MODEL 2
REMARK VINA RESULT:      -7.1      1.063      1.192
REMARK  Name = 
REMARK  0 active torsions:
REMARK  status: ('A' for Active; 'I' for Inactive)
REMARK                            x       y       z     vdW  Elec       q    Type
REMARK                         _______ _______ _______ _____ _____    ______ ____
ROOT
ATOM      1  C   UNL     1       7.985   5.301  18.255  0.00  0.00    +0.000 A 
ATOM      2  C   UNL     1       7.787   6.681  18.253  0.00  0.00    +0.000 A 
ATOM      3  C   UNL     1       6.576   7.211  17.816  0.00  0.00    +0.000 A 
ATOM      4  C   UNL     1       5.553   6.357  17.395  0.00  0.00    +0.000 A 
ATOM      5  C   UNL     1       5.746   4.967  17.395  0.00  0.00    +0.000 A 
ATOM      6  C   UNL     1       6.976   4.445  17.815  0.00  0.00    +0.000 A 
ATOM      7  C   UNL     1       4.608   4.048  17.036  0.00  0.00    +0.000 C 
ATOM      8  C   UNL     1       3.566   3.898  18.160  0.00  0.00    +0.000 C 
ATOM      9  C   UNL     1       4.152   3.066  19.333  0.00  0.00    +0.000 C 
ATOM     10  N   UNL     1       3.106   2.500  20.197  0.00  0.00    +0.000 NA
ATOM     11  C   UNL     1       1.945   3.378  20.349  0.00  0.00    +0.000 C 
ATOM     12  C   UNL     1       2.194   4.831  19.996  0.00  0.00    +0.000 A 
ATOM     13  C   UNL     1       1.608   5.855  20.748  0.00  0.00    +0.000 A 
ATOM     14  C   UNL     1       1.738   7.175  20.346  0.00  0.00    +0.000 A 
ATOM     15  C   UNL     1       2.453   7.485  19.188  0.00  0.00    +0.000 A 
ATOM     16  C   UNL     1       3.055   6.474  18.417  0.00  0.00    +0.000 A 
ATOM     17  C   UNL     1       2.942   5.130  18.822  0.00  0.00    +0.000 A 
ATOM     18  S   UNL     1       3.961   7.046  16.984  0.00  0.00    +0.000 S 
ATOM     19  H   UNL     1       3.504   2.293  21.111  0.00  0.00    +0.000 HD
ENDROOT
TORSDOF 0
ENDMDL
MODEL 3
REMARK VINA RESULT:      -7.1      2.316      5.138
REMARK  Name = 
REMARK  0 active torsions:
REMARK  status: ('A' for Active; 'I' for Inactive)
REMARK                            x       y       z     vdW  Elec       q    Type
REMARK                         _______ _______ _______ _____ _____    ______ ____
ROOT
ATOM      1  C   UNL     1       1.636   3.335  21.643  0.00  0.00    +0.000 A 
ATOM      2  C   UNL     1       2.736   2.478  21.612  0.00  0.00    +0.000 A 
ATOM      3  C   UNL     1       3.380   2.214  20.405  0.00  0.00    +0.000 A 
ATOM      4  C   UNL     1       2.934   2.822  19.229  0.00  0.00    +0.000 A 
ATOM      5  C   UNL     1       1.828   3.686  19.254  0.00  0.00    +0.000 A 
ATOM      6  C   UNL     1       1.173   3.928  20.469  0.00  0.00    +0.000 A 
ATOM      7  C   UNL     1       1.413   4.417  18.003  0.00  0.00    +0.000 C 
ATOM      8  C   UNL     1       2.328   5.606  17.659  0.00  0.00    +0.000 C 
ATOM      9  C   UNL     1       2.109   6.767  18.667  0.00  0.00    +0.000 C 
ATOM     10  N   UNL     1       2.578   8.059  18.146  0.00  0.00    +0.000 NA
ATOM     11  C   UNL     1       3.777   7.945  17.315  0.00  0.00    +0.000 C 
ATOM     12  C   UNL     1       4.561   6.661  17.499  0.00  0.00    +0.000 A 
ATOM     13  C   UNL     1       5.960   6.673  17.477  0.00  0.00    +0.000 A 
ATOM     14  C   UNL     1       6.667   5.483  17.521  0.00  0.00    +0.000 A 
ATOM     15  C   UNL     1       5.984   4.266  17.583  0.00  0.00    +0.000 A 
ATOM     16  C   UNL     1       4.578   4.227  17.611  0.00  0.00    +0.000 A 
ATOM     17  C   UNL     1       3.848   5.431  17.581  0.00  0.00    +0.000 A 
ATOM     18  S   UNL     1       3.863   2.591  17.726  0.00  0.00    +0.000 S 
ATOM     19  H   UNL     1       2.758   8.688  18.927  0.00  0.00    +0.000 HD
ENDROOT
TORSDOF 0
ENDMDL
MODEL 4
REMARK VINA RESULT:      -7.1      2.210      4.607
REMARK  Name = 
REMARK  0 active torsions:
REMARK  status: ('A' for Active; 'I' for Inactive)
REMARK                            x       y       z     vdW  Elec       q    Type
REMARK                         _______ _______ _______ _____ _____    ______ ____
ROOT
ATOM      1  C   UNL     1       1.616   1.521  18.409  0.00  0.00    +0.000 A 
ATOM      2  C   UNL     1       0.584   2.173  19.082  0.00  0.00    +0.000 A 
ATOM      3  C   UNL     1       0.863   3.278  19.882  0.00  0.00    +0.000 A 
ATOM      4  C   UNL     1       2.175   3.743  19.996  0.00  0.00    +0.000 A 
ATOM      5  C   UNL     1       3.219   3.091  19.320  0.00  0.00    +0.000 A 
ATOM      6  C   UNL     1       2.931   1.966  18.535  0.00  0.00    +0.000 A 
ATOM      7  C   UNL     1       4.615   3.655  19.365  0.00  0.00    +0.000 C 
ATOM      8  C   UNL     1       4.806   4.887  18.461  0.00  0.00    +0.000 C 
ATOM      9  C   UNL     1       4.793   4.467  16.965  0.00  0.00    +0.000 C 
ATOM     10  N   UNL     1       5.418   5.473  16.095  0.00  0.00    +0.000 NA
ATOM     11  C   UNL     1       5.178   6.848  16.536  0.00  0.00    +0.000 C 
ATOM     12  C   UNL     1       4.009   7.017  17.486  0.00  0.00    +0.000 A 
ATOM     13  C   UNL     1       3.171   8.134  17.391  0.00  0.00    +0.000 A 
ATOM     14  C   UNL     1       2.183   8.346  18.338  0.00  0.00    +0.000 A 
ATOM     15  C   UNL     1       2.023   7.446  19.394  0.00  0.00    +0.000 A 
ATOM     16  C   UNL     1       2.849   6.314  19.510  0.00  0.00    +0.000 A 
ATOM     17  C   UNL     1       3.848   6.080  18.545  0.00  0.00    +0.000 A 
ATOM     18  S   UNL     1       2.489   5.247  20.901  0.00  0.00    +0.000 S 
ATOM     19  H   UNL     1       5.074   5.351  15.144  0.00  0.00    +0.000 HD
ENDROOT
TORSDOF 0
ENDMDL
MODEL 5
REMARK VINA RESULT:      -6.6      2.130      3.474
REMARK  Name = 
REMARK  0 active torsions:
REMARK  status: ('A' for Active; 'I' for Inactive)
REMARK                            x       y       z     vdW  Elec       q    Type
REMARK                         _______ _______ _______ _____ _____    ______ ____
ROOT
ATOM      1  C   UNL     1       5.356   6.317  15.500  0.00  0.00    +0.000 A 
ATOM      2  C   UNL     1       5.143   5.080  14.892  0.00  0.00    +0.000 A 
ATOM      3  C   UNL     1       5.031   3.931  15.670  0.00  0.00    +0.000 A 
ATOM      4  C   UNL     1       5.114   4.020  17.062  0.00  0.00    +0.000 A 
ATOM      5  C   UNL     1       5.327   5.262  17.680  0.00  0.00    +0.000 A 
ATOM      6  C   UNL     1       5.462   6.410  16.887  0.00  0.00    +0.000 A 
ATOM      7  C   UNL     1       5.316   5.369  19.183  0.00  0.00    +0.000 C 
ATOM      8  C   UNL     1       3.901   5.316  19.788  0.00  0.00    +0.000 C 
ATOM      9  C   UNL     1       3.130   6.627  19.475  0.00  0.00    +0.000 C 
ATOM     10  N   UNL     1       1.994   6.841  20.384  0.00  0.00    +0.000 NA
ATOM     11  C   UNL     1       1.324   5.600  20.772  0.00  0.00    +0.000 C 
ATOM     12  C   UNL     1       1.597   4.417  19.864  0.00  0.00    +0.000 A 
ATOM     13  C   UNL     1       0.580   3.506  19.559  0.00  0.00    +0.000 A 
ATOM     14  C   UNL     1       0.865   2.362  18.832  0.00  0.00    +0.000 A 
ATOM     15  C   UNL     1       2.171   2.113  18.404  0.00  0.00    +0.000 A 
ATOM     16  C   UNL     1       3.211   3.015  18.695  0.00  0.00    +0.000 A 
ATOM     17  C   UNL     1       2.930   4.189  19.421  0.00  0.00    +0.000 A 
ATOM     18  S   UNL     1       4.816   2.564  18.045  0.00  0.00    +0.000 S 
ATOM     19  H   UNL     1       1.326   7.470  19.941  0.00  0.00    +0.000 HD
ENDROOT
TORSDOF 0
ENDMDL
MODEL 6
REMARK VINA RESULT:      -6.5      7.400      9.351
REMARK  Name = 
REMARK  0 active torsions:
REMARK  status: ('A' for Active; 'I' for Inactive)
REMARK                            x       y       z     vdW  Elec       q    Type
REMARK                         _______ _______ _______ _____ _____    ______ ____
ROOT
ATOM      1  C   UNL     1       0.442   9.030  22.176  0.00  0.00    +0.000 A 
ATOM      2  C   UNL     1      -0.383   9.577  23.157  0.00  0.00    +0.000 A 
ATOM      3  C   UNL     1      -0.932  10.844  22.979  0.00  0.00    +0.000 A 
ATOM      4  C   UNL     1      -0.671  11.559  21.808  0.00  0.00    +0.000 A 
ATOM      5  C   UNL     1       0.158  11.014  20.815  0.00  0.00    +0.000 A 
ATOM      6  C   UNL     1       0.725   9.747  21.014  0.00  0.00    +0.000 A 
ATOM      7  C   UNL     1       0.356  11.744  19.513  0.00  0.00    +0.000 C 
ATOM      8  C   UNL     1      -0.848  11.633  18.561  0.00  0.00    +0.000 C 
ATOM      9  C   UNL     1      -0.952  10.194  17.986  0.00  0.00    +0.000 C 
ATOM     10  N   UNL     1      -1.756  10.138  16.756  0.00  0.00    +0.000 NA
ATOM     11  C   UNL     1      -2.880  11.075  16.758  0.00  0.00    +0.000 C 
ATOM     12  C   UNL     1      -3.284  11.583  18.127  0.00  0.00    +0.000 A 
ATOM     13  C   UNL     1      -4.634  11.772  18.446  0.00  0.00    +0.000 A 
ATOM     14  C   UNL     1      -4.990  12.352  19.652  0.00  0.00    +0.000 A 
ATOM     15  C   UNL     1      -4.001  12.755  20.552  0.00  0.00    +0.000 A 
ATOM     16  C   UNL     1      -2.638  12.572  20.258  0.00  0.00    +0.000 A 
ATOM     17  C   UNL     1      -2.264  11.970  19.041  0.00  0.00    +0.000 A 
ATOM     18  S   UNL     1      -1.504  13.111  21.533  0.00  0.00    +0.000 S 
ATOM     19  H   UNL     1      -2.099   9.188  16.625  0.00  0.00    +0.000 HD
ENDROOT
TORSDOF 0
ENDMDL
MODEL 7
REMARK VINA RESULT:      -6.1      7.404      9.621
REMARK  Name = 
REMARK  0 active torsions:
REMARK  status: ('A' for Active; 'I' for Inactive)
REMARK                            x       y       z     vdW  Elec       q    Type
REMARK                         _______ _______ _______ _____ _____    ______ ____
ROOT
ATOM      1  C   UNL     1      -3.815  10.711  17.246  0.00  0.00    +0.000 A 
ATOM      2  C   UNL     1      -2.935   9.673  16.946  0.00  0.00    +0.000 A 
ATOM      3  C   UNL     1      -1.611   9.735  17.375  0.00  0.00    +0.000 A 
ATOM      4  C   UNL     1      -1.171  10.831  18.121  0.00  0.00    +0.000 A 
ATOM      5  C   UNL     1      -2.052  11.880  18.427  0.00  0.00    +0.000 A 
ATOM      6  C   UNL     1      -3.376  11.818  17.971  0.00  0.00    +0.000 A 
ATOM      7  C   UNL     1      -1.601  13.009  19.315  0.00  0.00    +0.000 C 
ATOM      8  C   UNL     1      -1.545  12.629  20.806  0.00  0.00    +0.000 C 
ATOM      9  C   UNL     1      -2.979  12.467  21.378  0.00  0.00    +0.000 C 
ATOM     10  N   UNL     1      -3.014  12.568  22.844  0.00  0.00    +0.000 NA
ATOM     11  C   UNL     1      -1.833  11.995  23.490  0.00  0.00    +0.000 C 
ATOM     12  C   UNL     1      -1.038  11.034  22.629  0.00  0.00    +0.000 A 
ATOM     13  C   UNL     1      -0.467   9.884  23.187  0.00  0.00    +0.000 A 
ATOM     14  C   UNL     1       0.360   9.077  22.424  0.00  0.00    +0.000 A 
ATOM     15  C   UNL     1       0.628   9.410  21.094  0.00  0.00    +0.000 A 
ATOM     16  C   UNL     1       0.063  10.557  20.508  0.00  0.00    +0.000 A 
ATOM     17  C   UNL     1      -0.791  11.378  21.270  0.00  0.00    +0.000 A 
ATOM     18  S   UNL     1       0.482  10.819  18.789  0.00  0.00    +0.000 S 
ATOM     19  H   UNL     1      -3.854  12.108  23.190  0.00  0.00    +0.000 HD
ENDROOT
TORSDOF 0
ENDMDL
MODEL 8
REMARK VINA RESULT:      -6.0      9.686     12.246
REMARK  Name = 
REMARK  0 active torsions:
REMARK  status: ('A' for Active; 'I' for Inactive)
REMARK                            x       y       z     vdW  Elec       q    Type
REMARK                         _______ _______ _______ _____ _____    ______ ____
ROOT
ATOM      1  C   UNL     1      10.110  10.618  19.300  0.00  0.00    +0.000 A 
ATOM      2  C   UNL     1       9.176  10.827  20.313  0.00  0.00    +0.000 A 
ATOM      3  C   UNL     1       9.218  11.995  21.071  0.00  0.00    +0.000 A 
ATOM      4  C   UNL     1      10.187  12.965  20.803  0.00  0.00    +0.000 A 
ATOM      5  C   UNL     1      11.130  12.762  19.783  0.00  0.00    +0.000 A 
ATOM      6  C   UNL     1      11.093  11.573  19.042  0.00  0.00    +0.000 A 
ATOM      7  C   UNL     1      12.108  13.853  19.431  0.00  0.00    +0.000 C 
ATOM      8  C   UNL     1      11.479  14.996  18.615  0.00  0.00    +0.000 C 
ATOM      9  C   UNL     1      11.162  14.519  17.171  0.00  0.00    +0.000 C 
ATOM     10  N   UNL     1      11.008  15.639  16.232  0.00  0.00    +0.000 NA
ATOM     11  C   UNL     1      10.382  16.816  16.834  0.00  0.00    +0.000 C 
ATOM     12  C   UNL     1       9.616  16.546  18.114  0.00  0.00    +0.000 A 
ATOM     13  C   UNL     1       8.413  17.210  18.377  0.00  0.00    +0.000 A 
ATOM     14  C   UNL     1       7.784  17.053  19.600  0.00  0.00    +0.000 A 
ATOM     15  C   UNL     1       8.351  16.233  20.578  0.00  0.00    +0.000 A 
ATOM     16  C   UNL     1       9.558  15.551  20.337  0.00  0.00    +0.000 A 
ATOM     17  C   UNL     1      10.200  15.691  19.091  0.00  0.00    +0.000 A 
ATOM     18  S   UNL     1      10.129  14.516  21.680  0.00  0.00    +0.000 S 
ATOM     19  H   UNL     1      10.461  15.329  15.430  0.00  0.00    +0.000 HD
ENDROOT
TORSDOF 0
ENDMDL
MODEL 9
REMARK VINA RESULT:      -6.0     10.079     12.218
REMARK  Name = 
REMARK  0 active torsions:
REMARK  status: ('A' for Active; 'I' for Inactive)
REMARK                            x       y       z     vdW  Elec       q    Type
REMARK                         _______ _______ _______ _____ _____    ______ ____
ROOT
ATOM      1  C   UNL     1      10.806  11.599  20.492  0.00  0.00    +0.000 A 
ATOM      2  C   UNL     1      12.077  11.944  20.035  0.00  0.00    +0.000 A 
ATOM      3  C   UNL     1      12.225  12.609  18.821  0.00  0.00    +0.000 A 
ATOM      4  C   UNL     1      11.097  12.947  18.069  0.00  0.00    +0.000 A 
ATOM      5  C   UNL     1       9.814  12.604  18.524  0.00  0.00    +0.000 A 
ATOM      6  C   UNL     1       9.677  11.915  19.736  0.00  0.00    +0.000 A 
ATOM      7  C   UNL     1       8.597  13.058  17.761  0.00  0.00    +0.000 C 
ATOM      8  C   UNL     1       8.267  14.548  17.969  0.00  0.00    +0.000 C 
ATOM      9  C   UNL     1       7.722  14.787  19.403  0.00  0.00    +0.000 C 
ATOM     10  N   UNL     1       6.970  16.045  19.515  0.00  0.00    +0.000 NA
ATOM     11  C   UNL     1       7.513  17.119  18.684  0.00  0.00    +0.000 C 
ATOM     12  C   UNL     1       8.946  16.913  18.233  0.00  0.00    +0.000 A 
ATOM     13  C   UNL     1       9.835  17.992  18.172  0.00  0.00    +0.000 A 
ATOM     14  C   UNL     1      11.103  17.820  17.642  0.00  0.00    +0.000 A 
ATOM     15  C   UNL     1      11.497  16.569  17.164  0.00  0.00    +0.000 A 
ATOM     16  C   UNL     1      10.624  15.467  17.218  0.00  0.00    +0.000 A 
ATOM     17  C   UNL     1       9.337  15.625  17.768  0.00  0.00    +0.000 A 
ATOM     18  S   UNL     1      11.297  13.930  16.596  0.00  0.00    +0.000 S 
ATOM     19  H   UNL     1       6.953  16.338  20.491  0.00  0.00    +0.000 HD
ENDROOT
TORSDOF 0
ENDMDL
