MODEL 1
REMARK VINA RESULT:      -6.3      0.000      0.000
REMARK  Name = 
REMARK  4 active torsions:
REMARK  status: ('A' for Active; 'I' for Inactive)
REMARK    1  A    between atoms: C_1  and  C_2
REMARK    2  A    between atoms: C_2  and  C_3
REMARK    3  A    between atoms: C_8  and  C_9
REMARK    4  A    between atoms: C_12  and  C_13
REMARK                            x       y       z     vdW  Elec       q    Type
REMARK                         _______ _______ _______ _____ _____    ______ ____
ROOT
ATOM      1  C   UNL     1       2.360   4.725  19.229  0.00  0.00    +0.000 A 
ATOM      2  C   UNL     1       1.178   4.261  19.819  0.00  0.00    +0.000 A 
ATOM      3  N   UNL     1       0.640   3.036  19.639  0.00  0.00    +0.000 NA
ATOM      4  C   UNL     1       1.320   2.199  18.841  0.00  0.00    +0.000 A 
ATOM      5  C   UNL     1       2.526   2.521  18.246  0.00  0.00    +0.000 A 
ATOM      6  C   UNL     1       3.081   3.796  18.447  0.00  0.00    +0.000 A 
ENDROOT
BRANCH   6   7
ATOM      7  C   UNL     1       4.388   4.088  17.849  0.00  0.00    +0.000 A 
ATOM      8  C   UNL     1       5.583   4.059  18.552  0.00  0.00    +0.000 A 
ATOM      9  N   UNL     1       6.606   4.390  17.699  0.00  0.00    +0.000 N 
ATOM     10  C   UNL     1       6.097   4.639  16.455  0.00  0.00    +0.000 A 
ATOM     11  C   UNL     1       4.728   4.490  16.524  0.00  0.00    +0.000 A 
ATOM     12  H   UNL     1       7.585   4.443  17.951  0.00  0.00    +0.000 HD
BRANCH  10  13
ATOM     13  C   UNL     1       6.886   4.987  15.326  0.00  0.00    +0.000 C 
ATOM     14  N   UNL     1       7.551   5.257  14.412  0.00  0.00    +0.000 NA
ENDBRANCH  10  13
ENDBRANCH   6   7
BRANCH   1  16
ATOM     15  C   UNL     1       2.463   7.141  18.365  0.00  0.00    +0.000 C 
ATOM     16  C   UNL     1       2.807   6.149  19.474  0.00  0.00    +0.000 C 
ENDBRANCH   1  16
TORSDOF 3
ENDMDL
MODEL 2
REMARK VINA RESULT:      -6.1      1.610      5.285
REMARK  Name = 
REMARK  4 active torsions:
REMARK  status: ('A' for Active; 'I' for Inactive)
REMARK    1  A    between atoms: C_1  and  C_2
REMARK    2  A    between atoms: C_2  and  C_3
REMARK    3  A    between atoms: C_8  and  C_9
REMARK    4  A    between atoms: C_12  and  C_13
REMARK                            x       y       z     vdW  Elec       q    Type
REMARK                         _______ _______ _______ _____ _____    ______ ____
ROOT
ATOM      1  C   UNL     1       4.290   6.284  17.125  0.00  0.00    +0.000 A 
ATOM      2  C   UNL     1       5.142   6.711  16.099  0.00  0.00    +0.000 A 
ATOM      3  N   UNL     1       5.787   5.903  15.230  0.00  0.00    +0.000 NA
ATOM      4  C   UNL     1       5.565   4.587  15.363  0.00  0.00    +0.000 A 
ATOM      5  C   UNL     1       4.702   4.049  16.299  0.00  0.00    +0.000 A 
ATOM      6  C   UNL     1       4.029   4.899  17.194  0.00  0.00    +0.000 A 
ENDROOT
BRANCH   6   7
ATOM      7  C   UNL     1       3.077   4.303  18.138  0.00  0.00    +0.000 A 
ATOM      8  C   UNL     1       1.755   4.024  17.829  0.00  0.00    +0.000 A 
ATOM      9  N   UNL     1       1.147   3.485  18.936  0.00  0.00    +0.000 N 
ATOM     10  C   UNL     1       2.050   3.412  19.959  0.00  0.00    +0.000 A 
ATOM     11  C   UNL     1       3.242   3.937  19.506  0.00  0.00    +0.000 A 
ATOM     12  H   UNL     1       0.180   3.187  18.987  0.00  0.00    +0.000 HD
BRANCH  10  13
ATOM     13  C   UNL     1       1.757   2.880  21.243  0.00  0.00    +0.000 C 
ATOM     14  N   UNL     1       1.494   2.440  22.286  0.00  0.00    +0.000 NA
ENDBRANCH  10  13
ENDBRANCH   6   7
BRANCH   1  16
ATOM     15  C   UNL     1       2.350   7.895  17.615  0.00  0.00    +0.000 C 
ATOM     16  C   UNL     1       3.685   7.305  18.065  0.00  0.00    +0.000 C 
ENDBRANCH   1  16
TORSDOF 3
ENDMDL
MODEL 3
REMARK VINA RESULT:      -6.1      0.982      2.412
REMARK  Name = 
REMARK  4 active torsions:
REMARK  status: ('A' for Active; 'I' for Inactive)
REMARK    1  A    between atoms: C_1  and  C_2
REMARK    2  A    between atoms: C_2  and  C_3
REMARK    3  A    between atoms: C_8  and  C_9
REMARK    4  A    between atoms: C_12  and  C_13
REMARK                            x       y       z     vdW  Elec       q    Type
REMARK                         _______ _______ _______ _____ _____    ______ ____
ROOT
ATOM      1  C   UNL     1       2.399   3.423  18.794  0.00  0.00    +0.000 A 
ATOM      2  C   UNL     1       1.200   3.551  19.507  0.00  0.00    +0.000 A 
ATOM      3  N   UNL     1       0.904   4.547  20.368  0.00  0.00    +0.000 NA
ATOM      4  C   UNL     1       1.840   5.496  20.527  0.00  0.00    +0.000 A 
ATOM      5  C   UNL     1       3.038   5.509  19.838  0.00  0.00    +0.000 A 
ATOM      6  C   UNL     1       3.333   4.472  18.937  0.00  0.00    +0.000 A 
ENDROOT
BRANCH   6   7
ATOM      7  C   UNL     1       4.587   4.544  18.178  0.00  0.00    +0.000 A 
ATOM      8  C   UNL     1       5.835   4.280  18.721  0.00  0.00    +0.000 A 
ATOM      9  N   UNL     1       6.786   4.449  17.746  0.00  0.00    +0.000 N 
ATOM     10  C   UNL     1       6.179   4.824  16.580  0.00  0.00    +0.000 A 
ATOM     11  C   UNL     1       4.825   4.920  16.823  0.00  0.00    +0.000 A 
ATOM     12  H   UNL     1       7.782   4.318  17.870  0.00  0.00    +0.000 HD
BRANCH  10  13
ATOM     13  C   UNL     1       6.870   5.059  15.362  0.00  0.00    +0.000 C 
ATOM     14  N   UNL     1       7.440   5.276  14.373  0.00  0.00    +0.000 NA
ENDBRANCH  10  13
ENDBRANCH   6   7
BRANCH   1  16
ATOM     15  C   UNL     1       3.653   1.214  18.414  0.00  0.00    +0.000 C 
ATOM     16  C   UNL     1       2.615   2.215  17.909  0.00  0.00    +0.000 C 
ENDBRANCH   1  16
TORSDOF 3
ENDMDL
MODEL 4
REMARK VINA RESULT:      -6.0      1.623      1.990
REMARK  Name = 
REMARK  4 active torsions:
REMARK  status: ('A' for Active; 'I' for Inactive)
REMARK    1  A    between atoms: C_1  and  C_2
REMARK    2  A    between atoms: C_2  and  C_3
REMARK    3  A    between atoms: C_8  and  C_9
REMARK    4  A    between atoms: C_12  and  C_13
REMARK                            x       y       z     vdW  Elec       q    Type
REMARK                         _______ _______ _______ _____ _____    ______ ____
ROOT
ATOM      1  C   UNL     1       3.675   5.730  18.471  0.00  0.00    +0.000 A 
ATOM      2  C   UNL     1       2.917   5.678  19.647  0.00  0.00    +0.000 A 
ATOM      3  N   UNL     1       2.760   4.590  20.431  0.00  0.00    +0.000 NA
ATOM      4  C   UNL     1       3.409   3.481  20.046  0.00  0.00    +0.000 A 
ATOM      5  C   UNL     1       4.232   3.423  18.937  0.00  0.00    +0.000 A 
ATOM      6  C   UNL     1       4.395   4.564  18.133  0.00  0.00    +0.000 A 
ENDROOT
BRANCH   6   7
ATOM      7  C   UNL     1       5.319   4.487  16.996  0.00  0.00    +0.000 A 
ATOM      8  C   UNL     1       6.682   4.720  17.091  0.00  0.00    +0.000 A 
ATOM      9  N   UNL     1       7.243   4.577  15.846  0.00  0.00    +0.000 N 
ATOM     10  C   UNL     1       6.268   4.260  14.943  0.00  0.00    +0.000 A 
ATOM     11  C   UNL     1       5.065   4.227  15.617  0.00  0.00    +0.000 A 
ATOM     12  H   UNL     1       8.226   4.689  15.630  0.00  0.00    +0.000 HD
BRANCH  10  13
ATOM     13  C   UNL     1       6.508   4.019  13.564  0.00  0.00    +0.000 C 
ATOM     14  N   UNL     1       6.728   3.828  12.439  0.00  0.00    +0.000 NA
ENDBRANCH  10  13
ENDBRANCH   6   7
BRANCH   1  16
ATOM     15  C   UNL     1       2.551   7.972  17.917  0.00  0.00    +0.000 C 
ATOM     16  C   UNL     1       3.707   7.007  17.660  0.00  0.00    +0.000 C 
ENDBRANCH   1  16
TORSDOF 3
ENDMDL
MODEL 5
REMARK VINA RESULT:      -5.9      1.295      1.332
REMARK  Name = 
REMARK  4 active torsions:
REMARK  status: ('A' for Active; 'I' for Inactive)
REMARK    1  A    between atoms: C_1  and  C_2
REMARK    2  A    between atoms: C_2  and  C_3
REMARK    3  A    between atoms: C_8  and  C_9
REMARK    4  A    between atoms: C_12  and  C_13
REMARK                            x       y       z     vdW  Elec       q    Type
REMARK                         _______ _______ _______ _____ _____    ______ ____
ROOT
ATOM      1  C   UNL     1       2.363   4.741  19.205  0.00  0.00    +0.000 A 
ATOM      2  C   UNL     1       1.514   4.573  20.305  0.00  0.00    +0.000 A 
ATOM      3  N   UNL     1       1.627   3.608  21.243  0.00  0.00    +0.000 NA
ATOM      4  C   UNL     1       2.658   2.761  21.103  0.00  0.00    +0.000 A 
ATOM      5  C   UNL     1       3.595   2.857  20.092  0.00  0.00    +0.000 A 
ATOM      6  C   UNL     1       3.472   3.871  19.125  0.00  0.00    +0.000 A 
ENDROOT
BRANCH   6   7
ATOM      7  C   UNL     1       4.513   3.983  18.098  0.00  0.00    +0.000 A 
ATOM      8  C   UNL     1       5.827   4.335  18.365  0.00  0.00    +0.000 A 
ATOM      9  N   UNL     1       6.528   4.356  17.184  0.00  0.00    +0.000 N 
ATOM     10  C   UNL     1       5.691   4.028  16.154  0.00  0.00    +0.000 A 
ATOM     11  C   UNL     1       4.434   3.822  16.683  0.00  0.00    +0.000 A 
ATOM     12  H   UNL     1       7.511   4.579  17.090  0.00  0.00    +0.000 HD
BRANCH  10  13
ATOM     13  C   UNL     1       6.098   3.933  14.797  0.00  0.00    +0.000 C 
ATOM     14  N   UNL     1       6.414   3.873  13.680  0.00  0.00    +0.000 NA
ENDBRANCH  10  13
ENDBRANCH   6   7
BRANCH   1  16
ATOM     15  C   UNL     1       2.666   7.201  18.532  0.00  0.00    +0.000 C 
ATOM     16  C   UNL     1       2.073   5.833  18.199  0.00  0.00    +0.000 C 
ENDBRANCH   1  16
TORSDOF 3
ENDMDL
MODEL 6
REMARK VINA RESULT:      -5.9      1.986      2.316
REMARK  Name = 
REMARK  4 active torsions:
REMARK  status: ('A' for Active; 'I' for Inactive)
REMARK    1  A    between atoms: C_1  and  C_2
REMARK    2  A    between atoms: C_2  and  C_3
REMARK    3  A    between atoms: C_8  and  C_9
REMARK    4  A    between atoms: C_12  and  C_13
REMARK                            x       y       z     vdW  Elec       q    Type
REMARK                         _______ _______ _______ _____ _____    ______ ____
ROOT
ATOM      1  C   UNL     1       2.483   4.678  18.139  0.00  0.00    +0.000 A 
ATOM      2  C   UNL     1       1.604   3.676  18.567  0.00  0.00    +0.000 A 
ATOM      3  N   UNL     1       1.814   2.347  18.447  0.00  0.00    +0.000 NA
ATOM      4  C   UNL     1       2.975   1.975  17.889  0.00  0.00    +0.000 A 
ATOM      5  C   UNL     1       3.947   2.869  17.479  0.00  0.00    +0.000 A 
ATOM      6  C   UNL     1       3.722   4.250  17.614  0.00  0.00    +0.000 A 
ENDROOT
BRANCH   6   7
ATOM      7  C   UNL     1       4.794   5.171  17.223  0.00  0.00    +0.000 A 
ATOM      8  C   UNL     1       5.239   5.330  15.920  0.00  0.00    +0.000 A 
ATOM      9  N   UNL     1       6.253   6.257  15.909  0.00  0.00    +0.000 N 
ATOM     10  C   UNL     1       6.477   6.699  17.182  0.00  0.00    +0.000 A 
ATOM     11  C   UNL     1       5.613   6.025  18.019  0.00  0.00    +0.000 A 
ATOM     12  H   UNL     1       6.756   6.565  15.086  0.00  0.00    +0.000 HD
BRANCH  10  13
ATOM     13  C   UNL     1       7.445   7.681  17.525  0.00  0.00    +0.000 C 
ATOM     14  N   UNL     1       8.240   8.472  17.828  0.00  0.00    +0.000 NA
ENDBRANCH  10  13
ENDBRANCH   6   7
BRANCH   1  16
ATOM     15  C   UNL     1       2.347   6.748  19.654  0.00  0.00    +0.000 C 
ATOM     16  C   UNL     1       2.084   6.131  18.282  0.00  0.00    +0.000 C 
ENDBRANCH   1  16
TORSDOF 3
ENDMDL
MODEL 7
REMARK VINA RESULT:      -5.9      1.680      5.575
REMARK  Name = 
REMARK  4 active torsions:
REMARK  status: ('A' for Active; 'I' for Inactive)
REMARK    1  A    between atoms: C_1  and  C_2
REMARK    2  A    between atoms: C_2  and  C_3
REMARK    3  A    between atoms: C_8  and  C_9
REMARK    4  A    between atoms: C_12  and  C_13
REMARK                            x       y       z     vdW  Elec       q    Type
REMARK                         _______ _______ _______ _____ _____    ______ ____
ROOT
ATOM      1  C   UNL     1       6.284   5.283  17.567  0.00  0.00    +0.000 A 
ATOM      2  C   UNL     1       7.212   5.581  16.560  0.00  0.00    +0.000 A 
ATOM      3  N   UNL     1       7.131   5.175  15.275  0.00  0.00    +0.000 NA
ATOM      4  C   UNL     1       6.056   4.442  14.949  0.00  0.00    +0.000 A 
ATOM      5  C   UNL     1       5.045   4.130  15.839  0.00  0.00    +0.000 A 
ATOM      6  C   UNL     1       5.135   4.565  17.172  0.00  0.00    +0.000 A 
ENDROOT
BRANCH   6   7
ATOM      7  C   UNL     1       4.020   4.267  18.078  0.00  0.00    +0.000 A 
ATOM      8  C   UNL     1       2.714   4.676  17.857  0.00  0.00    +0.000 A 
ATOM      9  N   UNL     1       1.932   4.240  18.898  0.00  0.00    +0.000 N 
ATOM     10  C   UNL     1       2.708   3.559  19.794  0.00  0.00    +0.000 A 
ATOM     11  C   UNL     1       4.006   3.584  19.330  0.00  0.00    +0.000 A 
ATOM     12  H   UNL     1       0.936   4.398  18.989  0.00  0.00    +0.000 HD
BRANCH  10  13
ATOM     13  C   UNL     1       2.211   2.952  20.978  0.00  0.00    +0.000 C 
ATOM     14  N   UNL     1       1.800   2.479  21.956  0.00  0.00    +0.000 NA
ENDBRANCH  10  13
ENDBRANCH   6   7
BRANCH   1  16
ATOM     15  C   UNL     1       8.003   5.732  19.422  0.00  0.00    +0.000 C 
ATOM     16  C   UNL     1       6.541   5.756  18.980  0.00  0.00    +0.000 C 
ENDBRANCH   1  16
TORSDOF 3
ENDMDL
MODEL 8
REMARK VINA RESULT:      -5.8      1.701      3.104
REMARK  Name = 
REMARK  4 active torsions:
REMARK  status: ('A' for Active; 'I' for Inactive)
REMARK    1  A    between atoms: C_1  and  C_2
REMARK    2  A    between atoms: C_2  and  C_3
REMARK    3  A    between atoms: C_8  and  C_9
REMARK    4  A    between atoms: C_12  and  C_13
REMARK                            x       y       z     vdW  Elec       q    Type
REMARK                         _______ _______ _______ _____ _____    ______ ____
ROOT
ATOM      1  C   UNL     1       3.766   4.614  18.599  0.00  0.00    +0.000 A 
ATOM      2  C   UNL     1       2.798   5.118  19.476  0.00  0.00    +0.000 A 
ATOM      3  N   UNL     1       2.353   6.393  19.503  0.00  0.00    +0.000 NA
ATOM      4  C   UNL     1       2.879   7.227  18.593  0.00  0.00    +0.000 A 
ATOM      5  C   UNL     1       3.800   6.834  17.639  0.00  0.00    +0.000 A 
ATOM      6  C   UNL     1       4.250   5.503  17.614  0.00  0.00    +0.000 A 
ENDROOT
BRANCH   6   7
ATOM      7  C   UNL     1       5.184   5.103  16.556  0.00  0.00    +0.000 A 
ATOM      8  C   UNL     1       6.562   5.196  16.666  0.00  0.00    +0.000 A 
ATOM      9  N   UNL     1       7.130   4.750  15.497  0.00  0.00    +0.000 N 
ATOM     10  C   UNL     1       6.144   4.376  14.628  0.00  0.00    +0.000 A 
ATOM     11  C   UNL     1       4.931   4.610  15.241  0.00  0.00    +0.000 A 
ATOM     12  H   UNL     1       8.124   4.707  15.308  0.00  0.00    +0.000 HD
BRANCH  10  13
ATOM     13  C   UNL     1       6.383   3.844  13.333  0.00  0.00    +0.000 C 
ATOM     14  N   UNL     1       6.603   3.405  12.280  0.00  0.00    +0.000 NA
ENDBRANCH  10  13
ENDBRANCH   6   7
BRANCH   1  16
ATOM     15  C   UNL     1       3.386   2.161  17.939  0.00  0.00    +0.000 C 
ATOM     16  C   UNL     1       4.212   3.175  18.729  0.00  0.00    +0.000 C 
ENDBRANCH   1  16
TORSDOF 3
ENDMDL
MODEL 9
REMARK VINA RESULT:      -5.7      1.373      2.634
REMARK  Name = 
REMARK  4 active torsions:
REMARK  status: ('A' for Active; 'I' for Inactive)
REMARK    1  A    between atoms: C_1  and  C_2
REMARK    2  A    between atoms: C_2  and  C_3
REMARK    3  A    between atoms: C_8  and  C_9
REMARK    4  A    between atoms: C_12  and  C_13
REMARK                            x       y       z     vdW  Elec       q    Type
REMARK                         _______ _______ _______ _____ _____    ______ ____
ROOT
ATOM      1  C   UNL     1       3.007   4.150  19.707  0.00  0.00    +0.000 A 
ATOM      2  C   UNL     1       1.986   4.628  20.538  0.00  0.00    +0.000 A 
ATOM      3  N   UNL     1       1.611   5.920  20.655  0.00  0.00    +0.000 NA
ATOM      4  C   UNL     1       2.267   6.803  19.888  0.00  0.00    +0.000 A 
ATOM      5  C   UNL     1       3.255   6.447  18.987  0.00  0.00    +0.000 A 
ATOM      6  C   UNL     1       3.632   5.098  18.868  0.00  0.00    +0.000 A 
ENDROOT
BRANCH   6   7
ATOM      7  C   UNL     1       4.642   4.744  17.864  0.00  0.00    +0.000 A 
ATOM      8  C   UNL     1       5.977   4.518  18.158  0.00  0.00    +0.000 A 
ATOM      9  N   UNL     1       6.642   4.221  16.993  0.00  0.00    +0.000 N 
ATOM     10  C   UNL     1       5.763   4.256  15.947  0.00  0.00    +0.000 A 
ATOM     11  C   UNL     1       4.527   4.605  16.449  0.00  0.00    +0.000 A 
ATOM     12  H   UNL     1       7.630   4.010  16.919  0.00  0.00    +0.000 HD
BRANCH  10  13
ATOM     13  C   UNL     1       6.115   3.973  14.601  0.00  0.00    +0.000 C 
ATOM     14  N   UNL     1       6.399   3.717  13.504  0.00  0.00    +0.000 NA
ENDBRANCH  10  13
ENDBRANCH   6   7
BRANCH   1  16
ATOM     15  C   UNL     1       2.655   1.824  18.678  0.00  0.00    +0.000 C 
ATOM     16  C   UNL     1       3.359   2.679  19.729  0.00  0.00    +0.000 C 
ENDBRANCH   1  16
TORSDOF 3
ENDMDL
