MODEL 1
REMARK VINA RESULT:      -6.7      0.000      0.000
REMARK  Name = 
REMARK  4 active torsions:
REMARK  status: ('A' for Active; 'I' for Inactive)
REMARK    1  A    between atoms: C_1  and  C_2
REMARK    2  A    between atoms: C_9  and  C_10
REMARK    3  A    between atoms: C_11  and  O_12
REMARK    4  A    between atoms: C_17  and  C_18
REMARK                            x       y       z     vdW  Elec       q    Type
REMARK                         _______ _______ _______ _____ _____    ______ ____
ROOT
ATOM      1  C   UNL     1       4.514   5.993  16.660  0.00  0.00    +0.000 C 
ATOM      2  C   UNL     1       3.620   6.569  17.724  0.00  0.00    +0.000 A 
ATOM      3  C   UNL     1       3.198   7.884  17.602  0.00  0.00    +0.000 A 
ATOM      4  C   UNL     1       2.358   8.487  18.559  0.00  0.00    +0.000 A 
ATOM      5  C   UNL     1       2.023   9.895  18.261  0.00  0.00    +0.000 A 
ATOM      6  O   UNL     1       2.413  10.465  17.244  0.00  0.00    +0.000 OA
ATOM      7  O   UNL     1       1.267  10.570  19.187  0.00  0.00    +0.000 OA
ATOM      8  C   UNL     1       0.726   9.962  20.339  0.00  0.00    +0.000 A 
ATOM      9  C   UNL     1      -0.091  10.821  21.115  0.00  0.00    +0.000 A 
ATOM     10  C   UNL     1      -0.358  12.247  20.702  0.00  0.00    +0.000 C 
ATOM     11  C   UNL     1      -0.662  10.301  22.267  0.00  0.00    +0.000 A 
ATOM     12  C   UNL     1      -0.466   8.970  22.587  0.00  0.00    +0.000 A 
ATOM     13  C   UNL     1       0.307   8.136  21.761  0.00  0.00    +0.000 A 
ATOM     14  C   UNL     1       0.983   8.602  20.626  0.00  0.00    +0.000 A 
ATOM     15  C   UNL     1       1.890   7.809  19.717  0.00  0.00    +0.000 A 
ATOM     16  C   UNL     1       2.363   6.455  19.869  0.00  0.00    +0.000 A 
ATOM     17  C   UNL     1       2.056   5.549  21.039  0.00  0.00    +0.000 C 
ATOM     18  C   UNL     1       3.190   5.859  18.848  0.00  0.00    +0.000 A 
ATOM     19 BR   UNL     1       3.744   4.014  18.976  0.00  0.00    +0.000 Br
ENDROOT
BRANCH  11  20
ATOM     20  O   UNL     1      -1.451  11.016  23.118  0.00  0.00    +0.000 OA
ATOM     21  H   UNL     1      -2.043  10.420  23.601  0.00  0.00    +0.000 HD
ENDBRANCH  11  20
TORSDOF 1
ENDMDL
MODEL 2
REMARK VINA RESULT:      -6.7      3.312      6.837
REMARK  Name = 
REMARK  4 active torsions:
REMARK  status: ('A' for Active; 'I' for Inactive)
REMARK    1  A    between atoms: C_1  and  C_2
REMARK    2  A    between atoms: C_9  and  C_10
REMARK    3  A    between atoms: C_11  and  O_12
REMARK    4  A    between atoms: C_17  and  C_18
REMARK                            x       y       z     vdW  Elec       q    Type
REMARK                         _______ _______ _______ _____ _____    ______ ____
ROOT
ATOM      1  C   UNL     1      -0.426   8.879  22.144  0.00  0.00    +0.000 C 
ATOM      2  C   UNL     1       0.532   8.457  21.063  0.00  0.00    +0.000 A 
ATOM      3  C   UNL     1       1.096   7.192  21.128  0.00  0.00    +0.000 A 
ATOM      4  C   UNL     1       1.998   6.729  20.150  0.00  0.00    +0.000 A 
ATOM      5  C   UNL     1       2.499   5.361  20.395  0.00  0.00    +0.000 A 
ATOM      6  O   UNL     1       2.122   4.680  21.346  0.00  0.00    +0.000 OA
ATOM      7  O   UNL     1       3.438   4.871  19.521  0.00  0.00    +0.000 OA
ATOM      8  C   UNL     1       3.863   5.564  18.369  0.00  0.00    +0.000 A 
ATOM      9  C   UNL     1       4.777   4.839  17.563  0.00  0.00    +0.000 A 
ATOM     10  C   UNL     1       5.213   3.440  17.923  0.00  0.00    +0.000 C 
ATOM     11  C   UNL     1       5.246   5.451  16.410  0.00  0.00    +0.000 A 
ATOM     12  C   UNL     1       4.774   6.703  16.060  0.00  0.00    +0.000 A 
ATOM     13  C   UNL     1       3.826   7.366  16.858  0.00  0.00    +0.000 A 
ATOM     14  C   UNL     1       3.363   6.853  18.076  0.00  0.00    +0.000 A 
ATOM     15  C   UNL     1       2.405   7.514  19.036  0.00  0.00    +0.000 A 
ATOM     16  C   UNL     1       1.853   8.846  18.990  0.00  0.00    +0.000 A 
ATOM     17  C   UNL     1       2.176   9.889  17.945  0.00  0.00    +0.000 C 
ATOM     18  C   UNL     1       0.902   9.270  19.989  0.00  0.00    +0.000 A 
ATOM     19 BR   UNL     1       0.066  11.007  19.885  0.00  0.00    +0.000 Br
ENDROOT
BRANCH  11  20
ATOM     20  O   UNL     1       6.141   4.881  15.554  0.00  0.00    +0.000 OA
ATOM     21  H   UNL     1       6.112   3.916  15.639  0.00  0.00    +0.000 HD
ENDBRANCH  11  20
TORSDOF 1
ENDMDL
MODEL 3
REMARK VINA RESULT:      -6.5      2.881      5.631
REMARK  Name = 
REMARK  4 active torsions:
REMARK  status: ('A' for Active; 'I' for Inactive)
REMARK    1  A    between atoms: C_1  and  C_2
REMARK    2  A    between atoms: C_9  and  C_10
REMARK    3  A    between atoms: C_11  and  O_12
REMARK    4  A    between atoms: C_17  and  C_18
REMARK                            x       y       z     vdW  Elec       q    Type
REMARK                         _______ _______ _______ _____ _____    ______ ____
ROOT
ATOM      1  C   UNL     1      -0.618  13.444  20.418  0.00  0.00    +0.000 C 
ATOM      2  C   UNL     1      -0.122  12.024  20.414  0.00  0.00    +0.000 A 
ATOM      3  C   UNL     1       0.709  11.610  19.384  0.00  0.00    +0.000 A 
ATOM      4  C   UNL     1       1.213  10.297  19.318  0.00  0.00    +0.000 A 
ATOM      5  C   UNL     1       2.074  10.042  18.144  0.00  0.00    +0.000 A 
ATOM      6  O   UNL     1       2.353  10.918  17.329  0.00  0.00    +0.000 OA
ATOM      7  O   UNL     1       2.542   8.763  17.976  0.00  0.00    +0.000 OA
ATOM      8  C   UNL     1       2.323   7.726  18.907  0.00  0.00    +0.000 A 
ATOM      9  C   UNL     1       2.967   6.507  18.575  0.00  0.00    +0.000 A 
ATOM     10  C   UNL     1       3.824   6.374  17.341  0.00  0.00    +0.000 C 
ATOM     11  C   UNL     1       2.801   5.435  19.440  0.00  0.00    +0.000 A 
ATOM     12  C   UNL     1       2.074   5.601  20.604  0.00  0.00    +0.000 A 
ATOM     13  C   UNL     1       1.497   6.843  20.924  0.00  0.00    +0.000 A 
ATOM     14  C   UNL     1       1.549   7.950  20.068  0.00  0.00    +0.000 A 
ATOM     15  C   UNL     1       0.907   9.299  20.285  0.00  0.00    +0.000 A 
ATOM     16  C   UNL     1       0.008   9.715  21.333  0.00  0.00    +0.000 A 
ATOM     17  C   UNL     1      -0.513   8.827  22.439  0.00  0.00    +0.000 C 
ATOM     18  C   UNL     1      -0.456  11.080  21.388  0.00  0.00    +0.000 A 
ATOM     19 BR   UNL     1      -1.571  11.687  22.843  0.00  0.00    +0.000 Br
ENDROOT
BRANCH  11  20
ATOM     20  O   UNL     1       3.343   4.201  19.237  0.00  0.00    +0.000 OA
ATOM     21  H   UNL     1       4.040   4.035  19.889  0.00  0.00    +0.000 HD
ENDBRANCH  11  20
TORSDOF 1
ENDMDL
MODEL 4
REMARK VINA RESULT:      -6.3      3.153      5.648
REMARK  Name = 
REMARK  4 active torsions:
REMARK  status: ('A' for Active; 'I' for Inactive)
REMARK    1  A    between atoms: C_1  and  C_2
REMARK    2  A    between atoms: C_9  and  C_10
REMARK    3  A    between atoms: C_11  and  O_12
REMARK    4  A    between atoms: C_17  and  C_18
REMARK                            x       y       z     vdW  Elec       q    Type
REMARK                         _______ _______ _______ _____ _____    ______ ____
ROOT
ATOM      1  C   UNL     1       1.239  11.933  18.411  0.00  0.00    +0.000 C 
ATOM      2  C   UNL     1       1.412  10.510  18.870  0.00  0.00    +0.000 A 
ATOM      3  C   UNL     1       2.149   9.640  18.081  0.00  0.00    +0.000 A 
ATOM      4  C   UNL     1       2.354   8.296  18.450  0.00  0.00    +0.000 A 
ATOM      5  C   UNL     1       3.158   7.523  17.480  0.00  0.00    +0.000 A 
ATOM      6  O   UNL     1       3.636   8.030  16.467  0.00  0.00    +0.000 OA
ATOM      7  O   UNL     1       3.337   6.187  17.737  0.00  0.00    +0.000 OA
ATOM      8  C   UNL     1       2.880   5.554  18.912  0.00  0.00    +0.000 A 
ATOM      9  C   UNL     1       3.246   4.188  19.011  0.00  0.00    +0.000 A 
ATOM     10  C   UNL     1       4.074   3.510  17.948  0.00  0.00    +0.000 C 
ATOM     11  C   UNL     1       2.834   3.491  20.137  0.00  0.00    +0.000 A 
ATOM     12  C   UNL     1       2.141   4.151  21.136  0.00  0.00    +0.000 A 
ATOM     13  C   UNL     1       1.846   5.521  21.024  0.00  0.00    +0.000 A 
ATOM     14  C   UNL     1       2.154   6.276  19.886  0.00  0.00    +0.000 A 
ATOM     15  C   UNL     1       1.820   7.727  19.639  0.00  0.00    +0.000 A 
ATOM     16  C   UNL     1       1.016   8.619  20.438  0.00  0.00    +0.000 A 
ATOM     17  C   UNL     1       0.294   8.239  21.710  0.00  0.00    +0.000 C 
ATOM     18  C   UNL     1       0.862  10.000  20.048  0.00  0.00    +0.000 A 
ATOM     19 BR   UNL     1      -0.117  11.238  21.160  0.00  0.00    +0.000 Br
ENDROOT
BRANCH  11  20
ATOM     20  O   UNL     1       3.095   2.170  20.355  0.00  0.00    +0.000 OA
ATOM     21  H   UNL     1       2.833   1.926  21.256  0.00  0.00    +0.000 HD
ENDBRANCH  11  20
TORSDOF 1
ENDMDL
MODEL 5
REMARK VINA RESULT:      -6.3      1.247      1.498
REMARK  Name = 
REMARK  4 active torsions:
REMARK  status: ('A' for Active; 'I' for Inactive)
REMARK    1  A    between atoms: C_1  and  C_2
REMARK    2  A    between atoms: C_9  and  C_10
REMARK    3  A    between atoms: C_11  and  O_12
REMARK    4  A    between atoms: C_17  and  C_18
REMARK                            x       y       z     vdW  Elec       q    Type
REMARK                         _______ _______ _______ _____ _____    ______ ____
ROOT
ATOM      1  C   UNL     1       4.695   3.889  17.160  0.00  0.00    +0.000 C 
ATOM      2  C   UNL     1       3.860   4.769  18.051  0.00  0.00    +0.000 A 
ATOM      3  C   UNL     1       3.605   6.072  17.653  0.00  0.00    +0.000 A 
ATOM      4  C   UNL     1       2.829   6.950  18.434  0.00  0.00    +0.000 A 
ATOM      5  C   UNL     1       2.676   8.298  17.849  0.00  0.00    +0.000 A 
ATOM      6  O   UNL     1       3.150   8.602  16.757  0.00  0.00    +0.000 OA
ATOM      7  O   UNL     1       1.992   9.230  18.591  0.00  0.00    +0.000 OA
ATOM      8  C   UNL     1       1.360   8.935  19.817  0.00  0.00    +0.000 A 
ATOM      9  C   UNL     1       0.641  10.023  20.372  0.00  0.00    +0.000 A 
ATOM     10  C   UNL     1       0.559  11.358  19.672  0.00  0.00    +0.000 C 
ATOM     11  C   UNL     1      -0.010   9.817  21.579  0.00  0.00    +0.000 A 
ATOM     12  C   UNL     1       0.015   8.564  22.164  0.00  0.00    +0.000 A 
ATOM     13  C   UNL     1       0.694   7.495  21.553  0.00  0.00    +0.000 A 
ATOM     14  C   UNL     1       1.442   7.640  20.378  0.00  0.00    +0.000 A 
ATOM     15  C   UNL     1       2.260   6.579  19.683  0.00  0.00    +0.000 A 
ATOM     16  C   UNL     1       2.560   5.238  20.121  0.00  0.00    +0.000 A 
ATOM     17  C   UNL     1       2.123   4.630  21.433  0.00  0.00    +0.000 C 
ATOM     18  C   UNL     1       3.326   4.355  19.274  0.00  0.00    +0.000 A 
ATOM     19 BR   UNL     1       3.645   2.522  19.788  0.00  0.00    +0.000 Br
ENDROOT
BRANCH  11  20
ATOM     20  O   UNL     1      -0.720  10.776  22.237  0.00  0.00    +0.000 OA
ATOM     21  H   UNL     1      -0.268  11.630  22.165  0.00  0.00    +0.000 HD
ENDBRANCH  11  20
TORSDOF 1
ENDMDL
MODEL 6
REMARK VINA RESULT:      -6.3      2.987      6.320
REMARK  Name = 
REMARK  4 active torsions:
REMARK  status: ('A' for Active; 'I' for Inactive)
REMARK    1  A    between atoms: C_1  and  C_2
REMARK    2  A    between atoms: C_9  and  C_10
REMARK    3  A    between atoms: C_11  and  O_12
REMARK    4  A    between atoms: C_17  and  C_18
REMARK                            x       y       z     vdW  Elec       q    Type
REMARK                         _______ _______ _______ _____ _____    ______ ____
ROOT
ATOM      1  C   UNL     1      -1.189  13.234  21.122  0.00  0.00    +0.000 C 
ATOM      2  C   UNL     1      -0.367  12.104  20.565  0.00  0.00    +0.000 A 
ATOM      3  C   UNL     1      -0.440  10.861  21.177  0.00  0.00    +0.000 A 
ATOM      4  C   UNL     1       0.299   9.758  20.708  0.00  0.00    +0.000 A 
ATOM      5  C   UNL     1       0.096   8.523  21.493  0.00  0.00    +0.000 A 
ATOM      6  O   UNL     1      -0.683   8.464  22.442  0.00  0.00    +0.000 OA
ATOM      7  O   UNL     1       0.840   7.425  21.139  0.00  0.00    +0.000 OA
ATOM      8  C   UNL     1       1.699   7.396  20.020  0.00  0.00    +0.000 A 
ATOM      9  C   UNL     1       2.305   6.136  19.789  0.00  0.00    +0.000 A 
ATOM     10  C   UNL     1       2.015   4.945  20.668  0.00  0.00    +0.000 C 
ATOM     11  C   UNL     1       3.166   6.024  18.708  0.00  0.00    +0.000 A 
ATOM     12  C   UNL     1       3.359   7.107  17.871  0.00  0.00    +0.000 A 
ATOM     13  C   UNL     1       2.695   8.325  18.103  0.00  0.00    +0.000 A 
ATOM     14  C   UNL     1       1.874   8.545  19.215  0.00  0.00    +0.000 A 
ATOM     15  C   UNL     1       1.176   9.829  19.591  0.00  0.00    +0.000 A 
ATOM     16  C   UNL     1       1.287  11.131  18.981  0.00  0.00    +0.000 A 
ATOM     17  C   UNL     1       2.194  11.477  17.822  0.00  0.00    +0.000 C 
ATOM     18  C   UNL     1       0.484  12.229  19.465  0.00  0.00    +0.000 A 
ATOM     19 BR   UNL     1       0.534  13.950  18.593  0.00  0.00    +0.000 Br
ENDROOT
BRANCH  11  20
ATOM     20  O   UNL     1       3.834   4.881  18.380  0.00  0.00    +0.000 OA
ATOM     21  H   UNL     1       4.485   5.066  17.686  0.00  0.00    +0.000 HD
ENDBRANCH  11  20
TORSDOF 1
ENDMDL
MODEL 7
REMARK VINA RESULT:      -6.2      3.298      6.981
REMARK  Name = 
REMARK  4 active torsions:
REMARK  status: ('A' for Active; 'I' for Inactive)
REMARK    1  A    between atoms: C_1  and  C_2
REMARK    2  A    between atoms: C_9  and  C_10
REMARK    3  A    between atoms: C_11  and  O_12
REMARK    4  A    between atoms: C_17  and  C_18
REMARK                            x       y       z     vdW  Elec       q    Type
REMARK                         _______ _______ _______ _____ _____    ______ ____
ROOT
ATOM      1  C   UNL     1      -2.260  13.781  23.562  0.00  0.00    +0.000 C 
ATOM      2  C   UNL     1      -1.516  12.963  22.542  0.00  0.00    +0.000 A 
ATOM      3  C   UNL     1      -1.063  11.702  22.899  0.00  0.00    +0.000 A 
ATOM      4  C   UNL     1      -0.362  10.880  21.994  0.00  0.00    +0.000 A 
ATOM      5  C   UNL     1       0.046   9.577  22.559  0.00  0.00    +0.000 A 
ATOM      6  O   UNL     1      -0.244   9.234  23.703  0.00  0.00    +0.000 OA
ATOM      7  O   UNL     1       0.796   8.753  21.757  0.00  0.00    +0.000 OA
ATOM      8  C   UNL     1       1.105   9.048  20.413  0.00  0.00    +0.000 A 
ATOM      9  C   UNL     1       1.820   8.022  19.746  0.00  0.00    +0.000 A 
ATOM     10  C   UNL     1       2.178   6.729  20.437  0.00  0.00    +0.000 C 
ATOM     11  C   UNL     1       2.164   8.234  18.420  0.00  0.00    +0.000 A 
ATOM     12  C   UNL     1       1.759   9.393  17.784  0.00  0.00    +0.000 A 
ATOM     13  C   UNL     1       1.003  10.363  18.466  0.00  0.00    +0.000 A 
ATOM     14  C   UNL     1       0.684  10.263  19.825  0.00  0.00    +0.000 A 
ATOM     15  C   UNL     1      -0.058  11.276  20.663  0.00  0.00    +0.000 A 
ATOM     16  C   UNL     1      -0.489  12.605  20.303  0.00  0.00    +0.000 A 
ATOM     17  C   UNL     1      -0.234  13.275  18.973  0.00  0.00    +0.000 C 
ATOM     18  C   UNL     1      -1.238  13.401  21.245  0.00  0.00    +0.000 A 
ATOM     19 BR   UNL     1      -1.922  15.137  20.747  0.00  0.00    +0.000 Br
ENDROOT
BRANCH  11  20
ATOM     20  O   UNL     1       2.867   7.344  17.663  0.00  0.00    +0.000 OA
ATOM     21  H   UNL     1       3.425   6.793  18.232  0.00  0.00    +0.000 HD
ENDBRANCH  11  20
TORSDOF 1
ENDMDL
MODEL 8
REMARK VINA RESULT:      -6.1      2.058      3.936
REMARK  Name = 
REMARK  4 active torsions:
REMARK  status: ('A' for Active; 'I' for Inactive)
REMARK    1  A    between atoms: C_1  and  C_2
REMARK    2  A    between atoms: C_9  and  C_10
REMARK    3  A    between atoms: C_11  and  O_12
REMARK    4  A    between atoms: C_17  and  C_18
REMARK                            x       y       z     vdW  Elec       q    Type
REMARK                         _______ _______ _______ _____ _____    ______ ____
ROOT
ATOM      1  C   UNL     1       2.192   5.422  20.829  0.00  0.00    +0.000 C 
ATOM      2  C   UNL     1       1.795   6.822  20.447  0.00  0.00    +0.000 A 
ATOM      3  C   UNL     1       0.999   7.552  21.318  0.00  0.00    +0.000 A 
ATOM      4  C   UNL     1       0.592   8.868  21.027  0.00  0.00    +0.000 A 
ATOM      5  C   UNL     1      -0.257   9.479  22.071  0.00  0.00    +0.000 A 
ATOM      6  O   UNL     1      -0.540   8.896  23.116  0.00  0.00    +0.000 OA
ATOM      7  O   UNL     1      -0.752  10.735  21.822  0.00  0.00    +0.000 OA
ATOM      8  C   UNL     1      -0.412  11.492  20.681  0.00  0.00    +0.000 A 
ATOM      9  C   UNL     1      -0.970  12.795  20.666  0.00  0.00    +0.000 A 
ATOM     10  C   UNL     1      -1.826  13.304  21.800  0.00  0.00    +0.000 C 
ATOM     11  C   UNL     1      -0.685  13.604  19.577  0.00  0.00    +0.000 A 
ATOM     12  C   UNL     1       0.163  13.146  18.586  0.00  0.00    +0.000 A 
ATOM     13  C   UNL     1       0.741  11.866  18.666  0.00  0.00    +0.000 A 
ATOM     14  C   UNL     1       0.442  10.958  19.689  0.00  0.00    +0.000 A 
ATOM     15  C   UNL     1       0.950   9.544  19.828  0.00  0.00    +0.000 A 
ATOM     16  C   UNL     1       1.740   8.772  18.901  0.00  0.00    +0.000 A 
ATOM     17  C   UNL     1       2.195   9.242  17.539  0.00  0.00    +0.000 C 
ATOM     18  C   UNL     1       2.171   7.440  19.252  0.00  0.00    +0.000 A 
ATOM     19 BR   UNL     1       3.321   6.430  18.075  0.00  0.00    +0.000 Br
ENDROOT
BRANCH  11  20
ATOM     20  O   UNL     1      -1.169  14.869  19.419  0.00  0.00    +0.000 OA
ATOM     21  H   UNL     1      -2.115  14.890  19.626  0.00  0.00    +0.000 HD
ENDBRANCH  11  20
TORSDOF 1
ENDMDL
MODEL 9
REMARK VINA RESULT:      -6.1      3.119      6.567
REMARK  Name = 
REMARK  4 active torsions:
REMARK  status: ('A' for Active; 'I' for Inactive)
REMARK    1  A    between atoms: C_1  and  C_2
REMARK    2  A    between atoms: C_9  and  C_10
REMARK    3  A    between atoms: C_11  and  O_12
REMARK    4  A    between atoms: C_17  and  C_18
REMARK                            x       y       z     vdW  Elec       q    Type
REMARK                         _______ _______ _______ _____ _____    ______ ____
ROOT
ATOM      1  C   UNL     1      -1.290  13.767  22.276  0.00  0.00    +0.000 C 
ATOM      2  C   UNL     1      -0.559  12.726  21.473  0.00  0.00    +0.000 A 
ATOM      3  C   UNL     1      -0.478  11.434  21.970  0.00  0.00    +0.000 A 
ATOM      4  C   UNL     1       0.188  10.409  21.271  0.00  0.00    +0.000 A 
ATOM      5  C   UNL     1       0.176   9.103  21.963  0.00  0.00    +0.000 A 
ATOM      6  O   UNL     1      -0.405   8.929  23.033  0.00  0.00    +0.000 OA
ATOM      7  O   UNL     1       0.868   8.074  21.375  0.00  0.00    +0.000 OA
ATOM      8  C   UNL     1       1.495   8.180  20.116  0.00  0.00    +0.000 A 
ATOM      9  C   UNL     1       2.081   6.972  19.660  0.00  0.00    +0.000 A 
ATOM     10  C   UNL     1       1.999   5.699  20.465  0.00  0.00    +0.000 C 
ATOM     11  C   UNL     1       2.721   6.991  18.430  0.00  0.00    +0.000 A 
ATOM     12  C   UNL     1       2.719   8.150  17.674  0.00  0.00    +0.000 A 
ATOM     13  C   UNL     1       2.077   9.312  18.138  0.00  0.00    +0.000 A 
ATOM     14  C   UNL     1       1.480   9.400  19.402  0.00  0.00    +0.000 A 
ATOM     15  C   UNL     1       0.831  10.614  20.019  0.00  0.00    +0.000 A 
ATOM     16  C   UNL     1       0.786  11.967  19.521  0.00  0.00    +0.000 A 
ATOM     17  C   UNL     1       1.443  12.451  18.249  0.00  0.00    +0.000 C 
ATOM     18  C   UNL     1       0.061  12.982  20.247  0.00  0.00    +0.000 A 
ATOM     19 BR   UNL     1      -0.107  14.772  19.544  0.00  0.00    +0.000 Br
ENDROOT
BRANCH  11  20
ATOM     20  O   UNL     1       3.345   5.912  17.877  0.00  0.00    +0.000 OA
ATOM     21  H   UNL     1       4.221   6.167  17.551  0.00  0.00    +0.000 HD
ENDBRANCH  11  20
TORSDOF 1
ENDMDL
