MODEL 1
REMARK VINA RESULT:      -9.4      0.000      0.000
REMARK  Name = 
REMARK  4 active torsions:
REMARK  status: ('A' for Active; 'I' for Inactive)
REMARK    1  A    between atoms: N_11  and  C_12
REMARK    2  A    between atoms: N_15  and  C_16
REMARK    3  A    between atoms: N_19  and  C_20
REMARK    4  A    between atoms: C_20  and  C_21
REMARK                            x       y       z     vdW  Elec       q    Type
REMARK                         _______ _______ _______ _____ _____    ______ ____
ROOT
ATOM      1  C   UNL     1       1.036   8.616  19.310  0.00  0.00    +0.000 C 
ATOM      2  C   UNL     1       2.208   8.310  18.382  0.00  0.00    +0.000 C 
ATOM      3  C   UNL     1       2.341   6.775  18.325  0.00  0.00    +0.000 C 
ATOM      4  N   UNL     1       2.418   6.103  19.635  0.00  0.00    +0.000 NA
ATOM      5  C   UNL     1       1.630   6.683  20.718  0.00  0.00    +0.000 C 
ATOM      6  C   UNL     1       1.465   8.191  20.704  0.00  0.00    +0.000 C 
ENDROOT
BRANCH   1  17
ATOM      7  O   UNL     1       1.458  10.881  21.282  0.00  0.00    +0.000 OA
ATOM      8  C   UNL     1       0.654  10.896  20.368  0.00  0.00    +0.000 A 
ATOM      9  N   UNL     1      -0.382  11.835  20.214  0.00  0.00    +0.000 N 
ATOM     10  C   UNL     1      -1.199  11.448  19.155  0.00  0.00    +0.000 A 
ATOM     11  C   UNL     1      -2.390  11.987  18.726  0.00  0.00    +0.000 A 
ATOM     12  C   UNL     1      -3.028  11.332  17.666  0.00  0.00    +0.000 A 
ATOM     13 CL   UNL     1      -4.536  11.930  17.084  0.00  0.00    +0.000 Cl
ATOM     14  C   UNL     1      -2.476  10.181  17.072  0.00  0.00    +0.000 A 
ATOM     15  C   UNL     1      -1.272   9.649  17.538  0.00  0.00    +0.000 A 
ATOM     16  C   UNL     1      -0.651  10.302  18.588  0.00  0.00    +0.000 A 
ATOM     17  N   UNL     1       0.513   9.964  19.314  0.00  0.00    +0.000 N 
ATOM     18  H   UNL     1      -0.555  12.578  20.873  0.00  0.00    +0.000 HD
ENDBRANCH   1  17
BRANCH   4  19
ATOM     19  C   UNL     1       2.379   4.615  19.536  0.00  0.00    +0.000 C 
ATOM     20  C   UNL     1       3.628   3.823  19.965  0.00  0.00    +0.000 C 
ATOM     21  C   UNL     1       4.770   3.875  18.957  0.00  0.00    +0.000 C 
ATOM     22  N   UNL     1       4.398   3.507  17.583  0.00  0.00    +0.000 NA
ATOM     23  C   UNL     1       3.099   4.022  17.121  0.00  0.00    +0.000 C 
ATOM     24  C   UNL     1       1.971   4.052  18.161  0.00  0.00    +0.000 C 
BRANCH  22  25
ATOM     25  C   UNL     1       5.452   3.934  16.620  0.00  0.00    +0.000 C 
BRANCH  25  26
ATOM     26  C   UNL     1       6.312   5.067  17.137  0.00  0.00    +0.000 A 
ATOM     27  C   UNL     1       7.327   4.754  18.060  0.00  0.00    +0.000 A 
ATOM     28  C   UNL     1       8.084   5.758  18.659  0.00  0.00    +0.000 A 
ATOM     29  C   UNL     1       7.852   7.092  18.337  0.00  0.00    +0.000 A 
ATOM     30  C   UNL     1       6.878   7.418  17.392  0.00  0.00    +0.000 A 
ATOM     31  C   UNL     1       6.114   6.414  16.790  0.00  0.00    +0.000 A 
ATOM     32 CL   UNL     1       4.923   6.913  15.639  0.00  0.00    +0.000 Cl
ENDBRANCH  25  26
ENDBRANCH  22  25
ENDBRANCH   4  19
TORSDOF 4
ENDMDL
MODEL 2
REMARK VINA RESULT:      -8.8      2.138      2.387
REMARK  Name = 
REMARK  4 active torsions:
REMARK  status: ('A' for Active; 'I' for Inactive)
REMARK    1  A    between atoms: N_11  and  C_12
REMARK    2  A    between atoms: N_15  and  C_16
REMARK    3  A    between atoms: N_19  and  C_20
REMARK    4  A    between atoms: C_20  and  C_21
REMARK                            x       y       z     vdW  Elec       q    Type
REMARK                         _______ _______ _______ _____ _____    ______ ____
ROOT
ATOM      1  C   UNL     1       1.375   8.959  19.195  0.00  0.00    +0.000 C 
ATOM      2  C   UNL     1       2.469   8.527  18.223  0.00  0.00    +0.000 C 
ATOM      3  C   UNL     1       2.416   6.988  18.148  0.00  0.00    +0.000 C 
ATOM      4  N   UNL     1       2.458   6.295  19.449  0.00  0.00    +0.000 NA
ATOM      5  C   UNL     1       1.783   6.952  20.564  0.00  0.00    +0.000 C 
ATOM      6  C   UNL     1       1.799   8.469  20.569  0.00  0.00    +0.000 C 
ENDROOT
BRANCH   1  17
ATOM      7  O   UNL     1       2.573  11.329  17.730  0.00  0.00    +0.000 OA
ATOM      8  C   UNL     1       1.744  11.408  18.618  0.00  0.00    +0.000 A 
ATOM      9  N   UNL     1       1.384  12.590  19.291  0.00  0.00    +0.000 N 
ATOM     10  C   UNL     1       0.534  12.276  20.348  0.00  0.00    +0.000 A 
ATOM     11  C   UNL     1       0.038  13.087  21.342  0.00  0.00    +0.000 A 
ATOM     12  C   UNL     1      -0.745  12.467  22.323  0.00  0.00    +0.000 A 
ATOM     13 CL   UNL     1      -1.386  13.409  23.617  0.00  0.00    +0.000 Cl
ATOM     14  C   UNL     1      -1.010  11.085  22.291  0.00  0.00    +0.000 A 
ATOM     15  C   UNL     1      -0.481  10.285  21.276  0.00  0.00    +0.000 A 
ATOM     16  C   UNL     1       0.295  10.906  20.313  0.00  0.00    +0.000 A 
ATOM     17  N   UNL     1       1.017  10.359  19.229  0.00  0.00    +0.000 N 
ATOM     18  H   UNL     1       1.807  13.484  19.097  0.00  0.00    +0.000 HD
ENDBRANCH   1  17
BRANCH   4  19
ATOM     19  C   UNL     1       2.238   4.824  19.340  0.00  0.00    +0.000 C 
ATOM     20  C   UNL     1       3.335   3.882  19.869  0.00  0.00    +0.000 C 
ATOM     21  C   UNL     1       4.556   3.782  18.962  0.00  0.00    +0.000 C 
ATOM     22  N   UNL     1       4.259   3.457  17.559  0.00  0.00    +0.000 NA
ATOM     23  C   UNL     1       3.080   4.130  16.992  0.00  0.00    +0.000 C 
ATOM     24  C   UNL     1       1.881   4.310  17.931  0.00  0.00    +0.000 C 
BRANCH  22  25
ATOM     25  C   UNL     1       5.436   3.741  16.692  0.00  0.00    +0.000 C 
BRANCH  25  26
ATOM     26  C   UNL     1       6.281   4.894  17.188  0.00  0.00    +0.000 A 
ATOM     27  C   UNL     1       7.242   4.626  18.181  0.00  0.00    +0.000 A 
ATOM     28  C   UNL     1       7.979   5.657  18.761  0.00  0.00    +0.000 A 
ATOM     29  C   UNL     1       7.781   6.971  18.351  0.00  0.00    +0.000 A 
ATOM     30  C   UNL     1       6.862   7.251  17.337  0.00  0.00    +0.000 A 
ATOM     31  C   UNL     1       6.119   6.220  16.755  0.00  0.00    +0.000 A 
ATOM     32 CL   UNL     1       4.997   6.662  15.514  0.00  0.00    +0.000 Cl
ENDBRANCH  25  26
ENDBRANCH  22  25
ENDBRANCH   4  19
TORSDOF 4
ENDMDL
MODEL 3
REMARK VINA RESULT:      -8.5      0.978      1.316
REMARK  Name = 
REMARK  4 active torsions:
REMARK  status: ('A' for Active; 'I' for Inactive)
REMARK    1  A    between atoms: N_11  and  C_12
REMARK    2  A    between atoms: N_15  and  C_16
REMARK    3  A    between atoms: N_19  and  C_20
REMARK    4  A    between atoms: C_20  and  C_21
REMARK                            x       y       z     vdW  Elec       q    Type
REMARK                         _______ _______ _______ _____ _____    ______ ____
ROOT
ATOM      1  C   UNL     1       1.005   8.556  19.459  0.00  0.00    +0.000 C 
ATOM      2  C   UNL     1       2.201   8.314  18.542  0.00  0.00    +0.000 C 
ATOM      3  C   UNL     1       2.350   6.785  18.401  0.00  0.00    +0.000 C 
ATOM      4  N   UNL     1       2.405   6.041  19.673  0.00  0.00    +0.000 NA
ATOM      5  C   UNL     1       1.588   6.552  20.769  0.00  0.00    +0.000 C 
ATOM      6  C   UNL     1       1.408   8.057  20.836  0.00  0.00    +0.000 C 
ENDROOT
BRANCH   1  17
ATOM      7  O   UNL     1       1.328  10.695  21.585  0.00  0.00    +0.000 OA
ATOM      8  C   UNL     1       0.559  10.762  20.643  0.00  0.00    +0.000 A 
ATOM      9  N   UNL     1      -0.480  11.700  20.508  0.00  0.00    +0.000 N 
ATOM     10  C   UNL     1      -1.251  11.375  19.396  0.00  0.00    +0.000 A 
ATOM     11  C   UNL     1      -2.430  11.930  18.955  0.00  0.00    +0.000 A 
ATOM     12  C   UNL     1      -3.019  11.339  17.831  0.00  0.00    +0.000 A 
ATOM     13 CL   UNL     1      -4.510  11.961  17.229  0.00  0.00    +0.000 Cl
ATOM     14  C   UNL     1      -2.433  10.232  17.188  0.00  0.00    +0.000 A 
ATOM     15  C   UNL     1      -1.243   9.681  17.666  0.00  0.00    +0.000 A 
ATOM     16  C   UNL     1      -0.670  10.271  18.780  0.00  0.00    +0.000 A 
ATOM     17  N   UNL     1       0.469   9.897  19.527  0.00  0.00    +0.000 N 
ATOM     18  H   UNL     1      -0.685  12.399  21.205  0.00  0.00    +0.000 HD
ENDBRANCH   1  17
BRANCH   4  19
ATOM     19  C   UNL     1       2.383   4.561  19.490  0.00  0.00    +0.000 C 
ATOM     20  C   UNL     1       3.631   3.757  19.901  0.00  0.00    +0.000 C 
ATOM     21  C   UNL     1       4.794   3.876  18.922  0.00  0.00    +0.000 C 
ATOM     22  N   UNL     1       4.455   3.583  17.521  0.00  0.00    +0.000 NA
ATOM     23  C   UNL     1       3.161   4.112  17.062  0.00  0.00    +0.000 C 
ATOM     24  C   UNL     1       2.011   4.073  18.076  0.00  0.00    +0.000 C 
BRANCH  22  25
ATOM     25  C   UNL     1       5.525   4.073  16.608  0.00  0.00    +0.000 C 
BRANCH  25  26
ATOM     26  C   UNL     1       6.087   5.418  17.012  0.00  0.00    +0.000 A 
ATOM     27  C   UNL     1       5.341   6.567  16.691  0.00  0.00    +0.000 A 
ATOM     28  C   UNL     1       5.849   7.842  16.935  0.00  0.00    +0.000 A 
ATOM     29  C   UNL     1       7.103   7.993  17.516  0.00  0.00    +0.000 A 
ATOM     30  C   UNL     1       7.840   6.864  17.880  0.00  0.00    +0.000 A 
ATOM     31  C   UNL     1       7.336   5.584  17.635  0.00  0.00    +0.000 A 
ATOM     32 CL   UNL     1       8.323   4.244  18.110  0.00  0.00    +0.000 Cl
ENDBRANCH  25  26
ENDBRANCH  22  25
ENDBRANCH   4  19
TORSDOF 4
ENDMDL
MODEL 4
REMARK VINA RESULT:      -8.5      3.756      9.050
REMARK  Name = 
REMARK  4 active torsions:
REMARK  status: ('A' for Active; 'I' for Inactive)
REMARK    1  A    between atoms: N_11  and  C_12
REMARK    2  A    between atoms: N_15  and  C_16
REMARK    3  A    between atoms: N_19  and  C_20
REMARK    4  A    between atoms: C_20  and  C_21
REMARK                            x       y       z     vdW  Elec       q    Type
REMARK                         _______ _______ _______ _____ _____    ______ ____
ROOT
ATOM      1  C   UNL     1       1.664   7.175  19.306  0.00  0.00    +0.000 C 
ATOM      2  C   UNL     1       1.982   7.858  20.633  0.00  0.00    +0.000 C 
ATOM      3  C   UNL     1       0.987   9.026  20.781  0.00  0.00    +0.000 C 
ATOM      4  N   UNL     1       0.924   9.946  19.630  0.00  0.00    +0.000 NA
ATOM      5  C   UNL     1       1.095   9.354  18.307  0.00  0.00    +0.000 C 
ATOM      6  C   UNL     1       2.030   8.163  18.212  0.00  0.00    +0.000 C 
ENDROOT
BRANCH   1  17
ATOM      7  O   UNL     1       0.980   4.451  20.450  0.00  0.00    +0.000 OA
ATOM      8  C   UNL     1       1.955   4.690  19.761  0.00  0.00    +0.000 A 
ATOM      9  N   UNL     1       3.055   3.831  19.584  0.00  0.00    +0.000 N 
ATOM     10  C   UNL     1       4.048   4.497  18.871  0.00  0.00    +0.000 A 
ATOM     11  C   UNL     1       5.331   4.100  18.578  0.00  0.00    +0.000 A 
ATOM     12  C   UNL     1       6.134   5.024  17.898  0.00  0.00    +0.000 A 
ATOM     13 CL   UNL     1       7.763   4.611  17.513  0.00  0.00    +0.000 Cl
ATOM     14  C   UNL     1       5.649   6.294  17.535  0.00  0.00    +0.000 A 
ATOM     15  C   UNL     1       4.345   6.675  17.858  0.00  0.00    +0.000 A 
ATOM     16  C   UNL     1       3.561   5.756  18.533  0.00  0.00    +0.000 A 
ATOM     17  N   UNL     1       2.254   5.879  19.055  0.00  0.00    +0.000 N 
ATOM     18  H   UNL     1       3.132   2.934  20.038  0.00  0.00    +0.000 HD
ENDBRANCH   1  17
BRANCH   4  19
ATOM     19  C   UNL     1      -0.163  10.960  19.746  0.00  0.00    +0.000 C 
ATOM     20  C   UNL     1      -0.371  11.944  18.579  0.00  0.00    +0.000 C 
ATOM     21  C   UNL     1       0.675  13.051  18.510  0.00  0.00    +0.000 C 
ATOM     22  N   UNL     1       0.866  13.800  19.761  0.00  0.00    +0.000 NA
ATOM     23  C   UNL     1       0.857  12.989  20.989  0.00  0.00    +0.000 C 
ATOM     24  C   UNL     1      -0.136  11.819  21.025  0.00  0.00    +0.000 C 
BRANCH  22  25
ATOM     25  C   UNL     1       2.130  14.587  19.716  0.00  0.00    +0.000 C 
BRANCH  25  26
ATOM     26  C   UNL     1       2.066  15.771  18.777  0.00  0.00    +0.000 A 
ATOM     27  C   UNL     1       0.946  16.618  18.862  0.00  0.00    +0.000 A 
ATOM     28  C   UNL     1       0.768  17.663  17.957  0.00  0.00    +0.000 A 
ATOM     29  C   UNL     1       1.711  17.889  16.960  0.00  0.00    +0.000 A 
ATOM     30  C   UNL     1       2.850  17.085  16.886  0.00  0.00    +0.000 A 
ATOM     31  C   UNL     1       3.031  16.034  17.790  0.00  0.00    +0.000 A 
ATOM     32 CL   UNL     1       4.466  15.084  17.616  0.00  0.00    +0.000 Cl
ENDBRANCH  25  26
ENDBRANCH  22  25
ENDBRANCH   4  19
TORSDOF 4
ENDMDL
MODEL 5
REMARK VINA RESULT:      -8.4      1.599      1.811
REMARK  Name = 
REMARK  4 active torsions:
REMARK  status: ('A' for Active; 'I' for Inactive)
REMARK    1  A    between atoms: N_11  and  C_12
REMARK    2  A    between atoms: N_15  and  C_16
REMARK    3  A    between atoms: N_19  and  C_20
REMARK    4  A    between atoms: C_20  and  C_21
REMARK                            x       y       z     vdW  Elec       q    Type
REMARK                         _______ _______ _______ _____ _____    ______ ____
ROOT
ATOM      1  C   UNL     1       1.287   9.603  18.701  0.00  0.00    +0.000 C 
ATOM      2  C   UNL     1       2.357   8.988  17.804  0.00  0.00    +0.000 C 
ATOM      3  C   UNL     1       2.284   7.462  18.007  0.00  0.00    +0.000 C 
ATOM      4  N   UNL     1       2.343   7.012  19.411  0.00  0.00    +0.000 NA
ATOM      5  C   UNL     1       1.697   7.868  20.401  0.00  0.00    +0.000 C 
ATOM      6  C   UNL     1       1.731   9.361  20.134  0.00  0.00    +0.000 C 
ENDROOT
BRANCH   1  17
ATOM      7  O   UNL     1       3.038  11.963  17.949  0.00  0.00    +0.000 OA
ATOM      8  C   UNL     1       1.871  12.043  18.289  0.00  0.00    +0.000 A 
ATOM      9  N   UNL     1       1.207  13.234  18.635  0.00  0.00    +0.000 N 
ATOM     10  C   UNL     1      -0.059  12.927  19.127  0.00  0.00    +0.000 A 
ATOM     11  C   UNL     1      -1.001  13.752  19.696  0.00  0.00    +0.000 A 
ATOM     12  C   UNL     1      -2.167  13.140  20.169  0.00  0.00    +0.000 A 
ATOM     13 CL   UNL     1      -3.387  14.101  20.917  0.00  0.00    +0.000 Cl
ATOM     14  C   UNL     1      -2.364  11.750  20.065  0.00  0.00    +0.000 A 
ATOM     15  C   UNL     1      -1.384  10.935  19.494  0.00  0.00    +0.000 A 
ATOM     16  C   UNL     1      -0.233  11.550  19.033  0.00  0.00    +0.000 A 
ATOM     17  N   UNL     1       0.946  10.993  18.490  0.00  0.00    +0.000 N 
ATOM     18  H   UNL     1       1.660  14.134  18.646  0.00  0.00    +0.000 HD
ENDBRANCH   1  17
BRANCH   4  19
ATOM     19  C   UNL     1       2.104   5.549  19.570  0.00  0.00    +0.000 C 
ATOM     20  C   UNL     1       3.200   4.700  20.242  0.00  0.00    +0.000 C 
ATOM     21  C   UNL     1       4.402   4.422  19.347  0.00  0.00    +0.000 C 
ATOM     22  N   UNL     1       4.074   3.855  18.030  0.00  0.00    +0.000 NA
ATOM     23  C   UNL     1       2.893   4.434  17.371  0.00  0.00    +0.000 C 
ATOM     24  C   UNL     1       1.713   4.796  18.283  0.00  0.00    +0.000 C 
BRANCH  22  25
ATOM     25  C   UNL     1       5.238   3.962  17.106  0.00  0.00    +0.000 C 
BRANCH  25  26
ATOM     26  C   UNL     1       6.177   5.095  17.455  0.00  0.00    +0.000 A 
ATOM     27  C   UNL     1       7.148   4.864  18.447  0.00  0.00    +0.000 A 
ATOM     28  C   UNL     1       7.973   5.894  18.894  0.00  0.00    +0.000 A 
ATOM     29  C   UNL     1       7.855   7.169  18.350  0.00  0.00    +0.000 A 
ATOM     30  C   UNL     1       6.926   7.407  17.335  0.00  0.00    +0.000 A 
ATOM     31  C   UNL     1       6.094   6.377  16.885  0.00  0.00    +0.000 A 
ATOM     32 CL   UNL     1       4.967   6.766  15.631  0.00  0.00    +0.000 Cl
ENDBRANCH  25  26
ENDBRANCH  22  25
ENDBRANCH   4  19
TORSDOF 4
ENDMDL
MODEL 6
REMARK VINA RESULT:      -8.4      2.585      4.248
REMARK  Name = 
REMARK  4 active torsions:
REMARK  status: ('A' for Active; 'I' for Inactive)
REMARK    1  A    between atoms: N_11  and  C_12
REMARK    2  A    between atoms: N_15  and  C_16
REMARK    3  A    between atoms: N_19  and  C_20
REMARK    4  A    between atoms: C_20  and  C_21
REMARK                            x       y       z     vdW  Elec       q    Type
REMARK                         _______ _______ _______ _____ _____    ______ ____
ROOT
ATOM      1  C   UNL     1       1.875   8.994  19.619  0.00  0.00    +0.000 C 
ATOM      2  C   UNL     1       1.837   7.547  20.102  0.00  0.00    +0.000 C 
ATOM      3  C   UNL     1       3.085   6.852  19.521  0.00  0.00    +0.000 C 
ATOM      4  N   UNL     1       3.262   6.997  18.064  0.00  0.00    +0.000 NA
ATOM      5  C   UNL     1       2.848   8.267  17.476  0.00  0.00    +0.000 C 
ATOM      6  C   UNL     1       1.657   8.955  18.116  0.00  0.00    +0.000 C 
ENDROOT
BRANCH   1  17
ATOM      7  O   UNL     1      -0.599   8.530  21.311  0.00  0.00    +0.000 OA
ATOM      8  C   UNL     1      -0.236   9.615  20.895  0.00  0.00    +0.000 A 
ATOM      9  N   UNL     1      -1.011  10.788  20.902  0.00  0.00    +0.000 N 
ATOM     10  C   UNL     1      -0.340  11.787  20.202  0.00  0.00    +0.000 A 
ATOM     11  C   UNL     1      -0.766  13.046  19.847  0.00  0.00    +0.000 A 
ATOM     12  C   UNL     1       0.114  13.810  19.071  0.00  0.00    +0.000 A 
ATOM     13 CL   UNL     1      -0.355  15.390  18.566  0.00  0.00    +0.000 Cl
ATOM     14  C   UNL     1       1.370  13.313  18.677  0.00  0.00    +0.000 A 
ATOM     15  C   UNL     1       1.771  12.026  19.040  0.00  0.00    +0.000 A 
ATOM     16  C   UNL     1       0.892  11.277  19.804  0.00  0.00    +0.000 A 
ATOM     17  N   UNL     1       0.981   9.940  20.251  0.00  0.00    +0.000 N 
ATOM     18  H   UNL     1      -1.958  10.821  21.246  0.00  0.00    +0.000 HD
ENDBRANCH   1  17
BRANCH   4  19
ATOM     19  C   UNL     1       4.561   6.453  17.572  0.00  0.00    +0.000 C 
ATOM     20  C   UNL     1       4.551   5.572  16.309  0.00  0.00    +0.000 C 
ATOM     21  C   UNL     1       4.031   4.159  16.544  0.00  0.00    +0.000 C 
ATOM     22  N   UNL     1       4.683   3.436  17.647  0.00  0.00    +0.000 NA
ATOM     23  C   UNL     1       4.957   4.237  18.850  0.00  0.00    +0.000 C 
ATOM     24  C   UNL     1       5.397   5.688  18.616  0.00  0.00    +0.000 C 
BRANCH  22  25
ATOM     25  C   UNL     1       3.883   2.242  18.039  0.00  0.00    +0.000 C 
BRANCH  25  26
ATOM     26  C   UNL     1       2.964   2.496  19.214  0.00  0.00    +0.000 A 
ATOM     27  C   UNL     1       1.691   3.035  18.949  0.00  0.00    +0.000 A 
ATOM     28  C   UNL     1       0.836   3.395  19.988  0.00  0.00    +0.000 A 
ATOM     29  C   UNL     1       1.228   3.209  21.310  0.00  0.00    +0.000 A 
ATOM     30  C   UNL     1       2.470   2.637  21.591  0.00  0.00    +0.000 A 
ATOM     31  C   UNL     1       3.332   2.277  20.552  0.00  0.00    +0.000 A 
ATOM     32 CL   UNL     1       4.854   1.584  20.995  0.00  0.00    +0.000 Cl
ENDBRANCH  25  26
ENDBRANCH  22  25
ENDBRANCH   4  19
TORSDOF 4
ENDMDL
MODEL 7
REMARK VINA RESULT:      -8.4      1.724      3.659
REMARK  Name = 
REMARK  4 active torsions:
REMARK  status: ('A' for Active; 'I' for Inactive)
REMARK    1  A    between atoms: N_11  and  C_12
REMARK    2  A    between atoms: N_15  and  C_16
REMARK    3  A    between atoms: N_19  and  C_20
REMARK    4  A    between atoms: C_20  and  C_21
REMARK                            x       y       z     vdW  Elec       q    Type
REMARK                         _______ _______ _______ _____ _____    ______ ____
ROOT
ATOM      1  C   UNL     1       1.943   9.026  19.338  0.00  0.00    +0.000 C 
ATOM      2  C   UNL     1       1.702   7.552  19.652  0.00  0.00    +0.000 C 
ATOM      3  C   UNL     1       2.982   6.796  19.242  0.00  0.00    +0.000 C 
ATOM      4  N   UNL     1       3.448   7.051  17.866  0.00  0.00    +0.000 NA
ATOM      5  C   UNL     1       3.253   8.401  17.347  0.00  0.00    +0.000 C 
ATOM      6  C   UNL     1       2.017   9.140  17.825  0.00  0.00    +0.000 C 
ENDROOT
BRANCH   1  17
ATOM      7  O   UNL     1       1.505   9.914  22.205  0.00  0.00    +0.000 OA
ATOM      8  C   UNL     1       0.793  10.221  21.266  0.00  0.00    +0.000 A 
ATOM      9  N   UNL     1      -0.477  10.817  21.371  0.00  0.00    +0.000 N 
ATOM     10  C   UNL     1      -1.064  10.872  20.109  0.00  0.00    +0.000 A 
ATOM     11  C   UNL     1      -2.336  11.252  19.752  0.00  0.00    +0.000 A 
ATOM     12  C   UNL     1      -2.669  11.133  18.397  0.00  0.00    +0.000 A 
ATOM     13 CL   UNL     1      -4.252  11.567  17.871  0.00  0.00    +0.000 Cl
ATOM     14  C   UNL     1      -1.746  10.648  17.452  0.00  0.00    +0.000 A 
ATOM     15  C   UNL     1      -0.465  10.256  17.846  0.00  0.00    +0.000 A 
ATOM     16  C   UNL     1      -0.147  10.375  19.188  0.00  0.00    +0.000 A 
ATOM     17  N   UNL     1       1.019   9.993  19.888  0.00  0.00    +0.000 N 
ATOM     18  H   UNL     1      -0.915  11.027  22.253  0.00  0.00    +0.000 HD
ENDBRANCH   1  17
BRANCH   4  19
ATOM     19  C   UNL     1       4.771   6.432  17.569  0.00  0.00    +0.000 C 
ATOM     20  C   UNL     1       4.866   5.444  16.391  0.00  0.00    +0.000 C 
ATOM     21  C   UNL     1       4.273   4.072  16.684  0.00  0.00    +0.000 C 
ATOM     22  N   UNL     1       4.775   3.431  17.909  0.00  0.00    +0.000 NA
ATOM     23  C   UNL     1       4.947   4.326  19.064  0.00  0.00    +0.000 C 
ATOM     24  C   UNL     1       5.462   5.739  18.760  0.00  0.00    +0.000 C 
BRANCH  22  25
ATOM     25  C   UNL     1       3.895   2.297  18.309  0.00  0.00    +0.000 C 
BRANCH  25  26
ATOM     26  C   UNL     1       2.935   2.648  19.425  0.00  0.00    +0.000 A 
ATOM     27  C   UNL     1       3.259   2.227  20.728  0.00  0.00    +0.000 A 
ATOM     28  C   UNL     1       2.371   2.420  21.784  0.00  0.00    +0.000 A 
ATOM     29  C   UNL     1       1.150   3.049  21.561  0.00  0.00    +0.000 A 
ATOM     30  C   UNL     1       0.830   3.511  20.284  0.00  0.00    +0.000 A 
ATOM     31  C   UNL     1       1.717   3.317  19.221  0.00  0.00    +0.000 A 
ATOM     32 CL   UNL     1       1.231   3.913  17.671  0.00  0.00    +0.000 Cl
ENDBRANCH  25  26
ENDBRANCH  22  25
ENDBRANCH   4  19
TORSDOF 4
ENDMDL
MODEL 8
REMARK VINA RESULT:      -8.4      1.920      8.942
REMARK  Name = 
REMARK  4 active torsions:
REMARK  status: ('A' for Active; 'I' for Inactive)
REMARK    1  A    between atoms: N_11  and  C_12
REMARK    2  A    between atoms: N_15  and  C_16
REMARK    3  A    between atoms: N_19  and  C_20
REMARK    4  A    between atoms: C_20  and  C_21
REMARK                            x       y       z     vdW  Elec       q    Type
REMARK                         _______ _______ _______ _____ _____    ______ ____
ROOT
ATOM      1  C   UNL     1       2.467   7.454  19.126  0.00  0.00    +0.000 C 
ATOM      2  C   UNL     1       1.748   8.174  17.989  0.00  0.00    +0.000 C 
ATOM      3  C   UNL     1       1.552   9.635  18.442  0.00  0.00    +0.000 C 
ATOM      4  N   UNL     1       0.913   9.802  19.761  0.00  0.00    +0.000 NA
ATOM      5  C   UNL     1       1.236   8.806  20.778  0.00  0.00    +0.000 C 
ATOM      6  C   UNL     1       1.489   7.393  20.287  0.00  0.00    +0.000 C 
ENDROOT
BRANCH   1  17
ATOM      7  O   UNL     1       2.665   4.988  20.881  0.00  0.00    +0.000 OA
ATOM      8  C   UNL     1       3.206   5.115  19.797  0.00  0.00    +0.000 A 
ATOM      9  N   UNL     1       4.205   4.269  19.284  0.00  0.00    +0.000 N 
ATOM     10  C   UNL     1       4.703   4.810  18.102  0.00  0.00    +0.000 A 
ATOM     11  C   UNL     1       5.764   4.398  17.329  0.00  0.00    +0.000 A 
ATOM     12  C   UNL     1       6.078   5.193  16.220  0.00  0.00    +0.000 A 
ATOM     13 CL   UNL     1       7.408   4.758  15.214  0.00  0.00    +0.000 Cl
ATOM     14  C   UNL     1       5.343   6.354  15.915  0.00  0.00    +0.000 A 
ATOM     15  C   UNL     1       4.280   6.755  16.726  0.00  0.00    +0.000 A 
ATOM     16  C   UNL     1       3.980   5.964  17.821  0.00  0.00    +0.000 A 
ATOM     17  N   UNL     1       3.030   6.151  18.850  0.00  0.00    +0.000 N 
ATOM     18  H   UNL     1       4.574   3.480  19.792  0.00  0.00    +0.000 HD
ENDBRANCH   1  17
BRANCH   4  19
ATOM     19  C   UNL     1       0.893  11.218  20.230  0.00  0.00    +0.000 C 
ATOM     20  C   UNL     1      -0.014  11.579  21.421  0.00  0.00    +0.000 C 
ATOM     21  C   UNL     1      -1.495  11.658  21.069  0.00  0.00    +0.000 C 
ATOM     22  N   UNL     1      -1.812  12.526  19.924  0.00  0.00    +0.000 NA
ATOM     23  C   UNL     1      -0.878  12.441  18.791  0.00  0.00    +0.000 C 
ATOM     24  C   UNL     1       0.606  12.272  19.144  0.00  0.00    +0.000 C 
BRANCH  22  25
ATOM     25  C   UNL     1      -3.191  12.260  19.429  0.00  0.00    +0.000 C 
BRANCH  25  26
ATOM     26  C   UNL     1      -3.226  11.393  18.189  0.00  0.00    +0.000 A 
ATOM     27  C   UNL     1      -2.207  10.436  18.027  0.00  0.00    +0.000 A 
ATOM     28  C   UNL     1      -2.114   9.680  16.860  0.00  0.00    +0.000 A 
ATOM     29  C   UNL     1      -3.045   9.855  15.840  0.00  0.00    +0.000 A 
ATOM     30  C   UNL     1      -4.087  10.769  16.001  0.00  0.00    +0.000 A 
ATOM     31  C   UNL     1      -4.182  11.532  17.169  0.00  0.00    +0.000 A 
ATOM     32 CL   UNL     1      -5.500  12.648  17.276  0.00  0.00    +0.000 Cl
ENDBRANCH  25  26
ENDBRANCH  22  25
ENDBRANCH   4  19
TORSDOF 4
ENDMDL
MODEL 9
REMARK VINA RESULT:      -8.3      2.383      4.083
REMARK  Name = 
REMARK  4 active torsions:
REMARK  status: ('A' for Active; 'I' for Inactive)
REMARK    1  A    between atoms: N_11  and  C_12
REMARK    2  A    between atoms: N_15  and  C_16
REMARK    3  A    between atoms: N_19  and  C_20
REMARK    4  A    between atoms: C_20  and  C_21
REMARK                            x       y       z     vdW  Elec       q    Type
REMARK                         _______ _______ _______ _____ _____    ______ ____
ROOT
ATOM      1  C   UNL     1       1.869   9.124  19.564  0.00  0.00    +0.000 C 
ATOM      2  C   UNL     1       1.797   7.670  20.020  0.00  0.00    +0.000 C 
ATOM      3  C   UNL     1       3.054   6.968  19.469  0.00  0.00    +0.000 C 
ATOM      4  N   UNL     1       3.282   7.136  18.021  0.00  0.00    +0.000 NA
ATOM      5  C   UNL     1       2.904   8.421  17.441  0.00  0.00    +0.000 C 
ATOM      6  C   UNL     1       1.701   9.113  18.054  0.00  0.00    +0.000 C 
ENDROOT
BRANCH   1  17
ATOM      7  O   UNL     1      -0.645   8.662  21.196  0.00  0.00    +0.000 OA
ATOM      8  C   UNL     1      -0.266   9.748  20.795  0.00  0.00    +0.000 A 
ATOM      9  N   UNL     1      -1.035  10.926  20.793  0.00  0.00    +0.000 N 
ATOM     10  C   UNL     1      -0.342  11.925  20.115  0.00  0.00    +0.000 A 
ATOM     11  C   UNL     1      -0.754  13.189  19.760  0.00  0.00    +0.000 A 
ATOM     12  C   UNL     1       0.148  13.954  19.009  0.00  0.00    +0.000 A 
ATOM     13 CL   UNL     1      -0.301  15.539  18.504  0.00  0.00    +0.000 Cl
ATOM     14  C   UNL     1       1.410  13.452  18.639  0.00  0.00    +0.000 A 
ATOM     15  C   UNL     1       1.795  12.160  19.003  0.00  0.00    +0.000 A 
ATOM     16  C   UNL     1       0.895  11.411  19.742  0.00  0.00    +0.000 A 
ATOM     17  N   UNL     1       0.966  10.070  20.181  0.00  0.00    +0.000 N 
ATOM     18  H   UNL     1      -1.989  10.962  21.117  0.00  0.00    +0.000 HD
ENDBRANCH   1  17
BRANCH   4  19
ATOM     19  C   UNL     1       4.590   6.583  17.564  0.00  0.00    +0.000 C 
ATOM     20  C   UNL     1       4.597   5.643  16.344  0.00  0.00    +0.000 C 
ATOM     21  C   UNL     1       4.090   4.237  16.643  0.00  0.00    +0.000 C 
ATOM     22  N   UNL     1       4.743   3.574  17.783  0.00  0.00    +0.000 NA
ATOM     23  C   UNL     1       5.002   4.434  18.948  0.00  0.00    +0.000 C 
ATOM     24  C   UNL     1       5.427   5.878  18.648  0.00  0.00    +0.000 C 
BRANCH  22  25
ATOM     25  C   UNL     1       3.953   2.392  18.227  0.00  0.00    +0.000 C 
BRANCH  25  26
ATOM     26  C   UNL     1       3.010   2.695  19.370  0.00  0.00    +0.000 A 
ATOM     27  C   UNL     1       3.377   2.262  20.658  0.00  0.00    +0.000 A 
ATOM     28  C   UNL     1       2.509   2.411  21.738  0.00  0.00    +0.000 A 
ATOM     29  C   UNL     1       1.265   3.008  21.555  0.00  0.00    +0.000 A 
ATOM     30  C   UNL     1       0.902   3.482  20.293  0.00  0.00    +0.000 A 
ATOM     31  C   UNL     1       1.769   3.332  19.207  0.00  0.00    +0.000 A 
ATOM     32 CL   UNL     1       1.230   3.940  17.680  0.00  0.00    +0.000 Cl
ENDBRANCH  25  26
ENDBRANCH  22  25
ENDBRANCH   4  19
TORSDOF 4
ENDMDL
