MODEL 1
REMARK VINA RESULT:      -7.7      0.000      0.000
REMARK  Name = 
REMARK  17 active torsions:
REMARK  status: ('A' for Active; 'I' for Inactive)
REMARK    1  A    between atoms: C_1  and  C_2
REMARK    2  A    between atoms: C_2  and  C_3
REMARK    3  A    between atoms: C_4  and  C_5
REMARK    4  A    between atoms: C_5  and  C_6
REMARK    5  A    between atoms: C_6  and  C_7
REMARK    6  A    between atoms: C_7  and  C_8
REMARK    7  A    between atoms: C_9  and  C_10
REMARK    8  A    between atoms: C_10  and  O_11
REMARK    9  A    between atoms: O_11  and  C_12
REMARK   10  A    between atoms: C_16  and  C_17
REMARK   11  A    between atoms: C_17  and  N_18
REMARK   12  A    between atoms: N_21  and  O_22
REMARK   13  A    between atoms: N_21  and  C_23
REMARK   14  A    between atoms: C_23  and  C_24
REMARK   15  A    between atoms: C_23  and  C_25
REMARK   16  A    between atoms: C_23  and  C_26
REMARK   17  A    between atoms: C_26  and  O_28
REMARK                            x       y       z     vdW  Elec       q    Type
REMARK                         _______ _______ _______ _____ _____    ______ ____
ROOT
ATOM      1  C   UNL     1       2.812   4.549  18.715  0.00  0.00    +0.000 A 
ATOM      2  C   UNL     1       2.333   4.220  19.986  0.00  0.00    +0.000 A 
ATOM      3  C   UNL     1       1.803   5.206  20.816  0.00  0.00    +0.000 A 
ATOM      4  C   UNL     1       1.776   6.533  20.392  0.00  0.00    +0.000 A 
ATOM      5  C   UNL     1       2.286   6.890  19.135  0.00  0.00    +0.000 A 
ATOM      6  C   UNL     1       2.828   5.889  18.312  0.00  0.00    +0.000 A 
ENDROOT
BRANCH   1   7
ATOM      7  O   UNL     1       3.255   3.635  17.790  0.00  0.00    +0.000 OA
BRANCH   7   8
ATOM      8  C   UNL     1       4.675   3.469  17.766  0.00  0.00    +0.000 C 
BRANCH   8  11
ATOM      9  C   UNL     1       6.420   4.393  16.173  0.00  0.00    +0.000 C 
ATOM     10  C   UNL     1       7.396   4.614  17.303  0.00  0.00    +0.000 C 
ATOM     11  C   UNL     1       5.214   3.827  16.409  0.00  0.00    +0.000 C 
BRANCH   9  12
ATOM     12  C   UNL     1       6.786   4.799  14.753  0.00  0.00    +0.000 C 
BRANCH  12  13
ATOM     13  C   UNL     1       5.791   4.390  13.660  0.00  0.00    +0.000 C 
BRANCH  13  17
ATOM     14  C   UNL     1       6.128   1.494  11.078  0.00  0.00    +0.000 C 
ATOM     15  C   UNL     1       5.574   2.688  11.803  0.00  0.00    +0.000 C 
ATOM     16  C   UNL     1       4.233   3.206  11.362  0.00  0.00    +0.000 C 
ATOM     17  C   UNL     1       6.277   3.257  12.802  0.00  0.00    +0.000 C 
ENDBRANCH  13  17
ENDBRANCH  12  13
ENDBRANCH   9  12
ENDBRANCH   8  11
ENDBRANCH   7   8
ENDBRANCH   1   7
BRANCH   5  18
ATOM     18  C   UNL     1       2.215   8.322  18.675  0.00  0.00    +0.000 C 
BRANCH  18  19
ATOM     19  N   UNL     1       1.288   9.101  19.457  0.00  0.00    +0.000 N 
ATOM     20  C   UNL     1       1.044  10.421  19.159  0.00  0.00    +0.000 C 
ATOM     21  O   UNL     1       1.569  10.985  18.207  0.00  0.00    +0.000 OA
ATOM     22  N   UNL     1       0.126  11.023  20.015  0.00  0.00    +0.000 N 
ATOM     23  H   UNL     1       0.963   8.746  20.343  0.00  0.00    +0.000 HD
BRANCH  22  24
ATOM     24  C   UNL     1      -0.605  12.283  19.679  0.00  0.00    +0.000 C 
ATOM     25  C   UNL     1      -1.607  12.643  20.799  0.00  0.00    +0.000 C 
ATOM     26  C   UNL     1       0.346  13.481  19.511  0.00  0.00    +0.000 C 
BRANCH  24  27
ATOM     27  C   UNL     1      -1.447  12.094  18.400  0.00  0.00    +0.000 C 
ATOM     28  O   UNL     1      -2.322  11.249  18.263  0.00  0.00    +0.000 OA
BRANCH  27  29
ATOM     29  O   UNL     1      -1.027  12.846  17.351  0.00  0.00    +0.000 OA
ATOM     30  H   UNL     1      -0.100  12.617  17.114  0.00  0.00    +0.000 HD
ENDBRANCH  27  29
ENDBRANCH  24  27
ENDBRANCH  22  24
BRANCH  22  31
ATOM     31  O   UNL     1      -0.606  10.126  20.834  0.00  0.00    +0.000 OA
ATOM     32  H   UNL     1      -1.486  10.556  20.835  0.00  0.00    +0.000 HD
ENDBRANCH  22  31
ENDBRANCH  18  19
ENDBRANCH   5  18
TORSDOF 12
ENDMDL
MODEL 2
REMARK VINA RESULT:      -7.6      5.682      9.438
REMARK  Name = 
REMARK  17 active torsions:
REMARK  status: ('A' for Active; 'I' for Inactive)
REMARK    1  A    between atoms: C_1  and  C_2
REMARK    2  A    between atoms: C_2  and  C_3
REMARK    3  A    between atoms: C_4  and  C_5
REMARK    4  A    between atoms: C_5  and  C_6
REMARK    5  A    between atoms: C_6  and  C_7
REMARK    6  A    between atoms: C_7  and  C_8
REMARK    7  A    between atoms: C_9  and  C_10
REMARK    8  A    between atoms: C_10  and  O_11
REMARK    9  A    between atoms: O_11  and  C_12
REMARK   10  A    between atoms: C_16  and  C_17
REMARK   11  A    between atoms: C_17  and  N_18
REMARK   12  A    between atoms: N_21  and  O_22
REMARK   13  A    between atoms: N_21  and  C_23
REMARK   14  A    between atoms: C_23  and  C_24
REMARK   15  A    between atoms: C_23  and  C_25
REMARK   16  A    between atoms: C_23  and  C_26
REMARK   17  A    between atoms: C_26  and  O_28
REMARK                            x       y       z     vdW  Elec       q    Type
REMARK                         _______ _______ _______ _____ _____    ______ ____
ROOT
ATOM      1  C   UNL     1       7.781   7.496  17.637  0.00  0.00    +0.000 A 
ATOM      2  C   UNL     1       8.272   7.048  18.867  0.00  0.00    +0.000 A 
ATOM      3  C   UNL     1       8.118   5.714  19.242  0.00  0.00    +0.000 A 
ATOM      4  C   UNL     1       7.444   4.828  18.404  0.00  0.00    +0.000 A 
ATOM      5  C   UNL     1       6.911   5.267  17.183  0.00  0.00    +0.000 A 
ATOM      6  C   UNL     1       7.063   6.616  16.821  0.00  0.00    +0.000 A 
ENDROOT
BRANCH   1   7
ATOM      7  O   UNL     1       7.975   8.761  17.137  0.00  0.00    +0.000 OA
BRANCH   7   8
ATOM      8  C   UNL     1       8.001   9.786  18.134  0.00  0.00    +0.000 C 
BRANCH   8  11
ATOM      9  C   UNL     1       9.702  11.655  17.915  0.00  0.00    +0.000 C 
ATOM     10  C   UNL     1       8.628  12.644  17.531  0.00  0.00    +0.000 C 
ATOM     11  C   UNL     1       9.378  10.380  18.230  0.00  0.00    +0.000 C 
BRANCH   9  12
ATOM     12  C   UNL     1      11.161  12.085  17.959  0.00  0.00    +0.000 C 
BRANCH  12  13
ATOM     13  C   UNL     1      11.784  12.203  19.354  0.00  0.00    +0.000 C 
BRANCH  13  17
ATOM     14  C   UNL     1      10.101  14.914  21.587  0.00  0.00    +0.000 C 
ATOM     15  C   UNL     1      10.450  13.572  21.010  0.00  0.00    +0.000 C 
ATOM     16  C   UNL     1       9.695  12.377  21.525  0.00  0.00    +0.000 C 
ATOM     17  C   UNL     1      11.411  13.469  20.071  0.00  0.00    +0.000 C 
ENDBRANCH  13  17
ENDBRANCH  12  13
ENDBRANCH   9  12
ENDBRANCH   8  11
ENDBRANCH   7   8
ENDBRANCH   1   7
BRANCH   5  18
ATOM     18  C   UNL     1       6.219   4.289  16.271  0.00  0.00    +0.000 C 
BRANCH  18  19
ATOM     19  N   UNL     1       5.293   3.443  16.981  0.00  0.00    +0.000 N 
ATOM     20  C   UNL     1       4.211   3.976  17.644  0.00  0.00    +0.000 C 
ATOM     21  O   UNL     1       3.965   5.175  17.636  0.00  0.00    +0.000 OA
ATOM     22  N   UNL     1       3.422   3.020  18.278  0.00  0.00    +0.000 N 
ATOM     23  H   UNL     1       5.536   2.482  17.164  0.00  0.00    +0.000 HD
BRANCH  22  24
ATOM     24  C   UNL     1       2.012   3.272  18.706  0.00  0.00    +0.000 C 
ATOM     25  C   UNL     1       1.337   4.297  17.769  0.00  0.00    +0.000 C 
ATOM     26  C   UNL     1       1.159   1.991  18.680  0.00  0.00    +0.000 C 
BRANCH  24  27
ATOM     27  C   UNL     1       1.981   3.898  20.116  0.00  0.00    +0.000 C 
ATOM     28  O   UNL     1       1.417   4.947  20.397  0.00  0.00    +0.000 OA
BRANCH  27  29
ATOM     29  O   UNL     1       2.781   3.268  21.013  0.00  0.00    +0.000 OA
ATOM     30  H   UNL     1       3.667   3.094  20.621  0.00  0.00    +0.000 HD
ENDBRANCH  27  29
ENDBRANCH  24  27
ENDBRANCH  22  24
BRANCH  22  31
ATOM     31  O   UNL     1       3.685   1.679  17.896  0.00  0.00    +0.000 OA
ATOM     32  H   UNL     1       3.204   1.635  17.043  0.00  0.00    +0.000 HD
ENDBRANCH  22  31
ENDBRANCH  18  19
ENDBRANCH   5  18
TORSDOF 12
ENDMDL
MODEL 3
REMARK VINA RESULT:      -7.4      3.972      8.529
REMARK  Name = 
REMARK  17 active torsions:
REMARK  status: ('A' for Active; 'I' for Inactive)
REMARK    1  A    between atoms: C_1  and  C_2
REMARK    2  A    between atoms: C_2  and  C_3
REMARK    3  A    between atoms: C_4  and  C_5
REMARK    4  A    between atoms: C_5  and  C_6
REMARK    5  A    between atoms: C_6  and  C_7
REMARK    6  A    between atoms: C_7  and  C_8
REMARK    7  A    between atoms: C_9  and  C_10
REMARK    8  A    between atoms: C_10  and  O_11
REMARK    9  A    between atoms: O_11  and  C_12
REMARK   10  A    between atoms: C_16  and  C_17
REMARK   11  A    between atoms: C_17  and  N_18
REMARK   12  A    between atoms: N_21  and  O_22
REMARK   13  A    between atoms: N_21  and  C_23
REMARK   14  A    between atoms: C_23  and  C_24
REMARK   15  A    between atoms: C_23  and  C_25
REMARK   16  A    between atoms: C_23  and  C_26
REMARK   17  A    between atoms: C_26  and  O_28
REMARK                            x       y       z     vdW  Elec       q    Type
REMARK                         _______ _______ _______ _____ _____    ______ ____
ROOT
ATOM      1  C   UNL     1       1.368   4.361  20.170  0.00  0.00    +0.000 A 
ATOM      2  C   UNL     1       0.405   3.535  19.583  0.00  0.00    +0.000 A 
ATOM      3  C   UNL     1       0.774   2.314  19.022  0.00  0.00    +0.000 A 
ATOM      4  C   UNL     1       2.112   1.926  19.015  0.00  0.00    +0.000 A 
ATOM      5  C   UNL     1       3.099   2.758  19.565  0.00  0.00    +0.000 A 
ATOM      6  C   UNL     1       2.716   3.991  20.118  0.00  0.00    +0.000 A 
ENDROOT
BRANCH   1   7
ATOM      7  O   UNL     1       1.088   5.529  20.838  0.00  0.00    +0.000 OA
BRANCH   7   8
ATOM      8  C   UNL     1       2.021   6.583  20.588  0.00  0.00    +0.000 C 
BRANCH   8  11
ATOM      9  C   UNL     1       1.329   8.861  19.709  0.00  0.00    +0.000 C 
ATOM     10  C   UNL     1       1.960   8.581  18.366  0.00  0.00    +0.000 C 
ATOM     11  C   UNL     1       1.331   7.916  20.677  0.00  0.00    +0.000 C 
BRANCH   9  12
ATOM     12  C   UNL     1       0.677  10.208  19.985  0.00  0.00    +0.000 C 
BRANCH  12  13
ATOM     13  C   UNL     1       0.167  10.971  18.757  0.00  0.00    +0.000 C 
BRANCH  13  17
ATOM     14  C   UNL     1      -3.376   9.867  17.573  0.00  0.00    +0.000 C 
ATOM     15  C   UNL     1      -2.287  10.672  18.225  0.00  0.00    +0.000 C 
ATOM     16  C   UNL     1      -2.699  11.879  19.022  0.00  0.00    +0.000 C 
ATOM     17  C   UNL     1      -0.998  10.306  18.081  0.00  0.00    +0.000 C 
ENDBRANCH  13  17
ENDBRANCH  12  13
ENDBRANCH   9  12
ENDBRANCH   8  11
ENDBRANCH   7   8
ENDBRANCH   1   7
BRANCH   5  18
ATOM     18  C   UNL     1       4.536   2.308  19.585  0.00  0.00    +0.000 C 
BRANCH  18  19
ATOM     19  N   UNL     1       5.452   3.404  19.392  0.00  0.00    +0.000 N 
ATOM     20  C   UNL     1       5.676   3.930  18.141  0.00  0.00    +0.000 C 
ATOM     21  O   UNL     1       5.090   3.520  17.146  0.00  0.00    +0.000 OA
ATOM     22  N   UNL     1       6.590   4.980  18.134  0.00  0.00    +0.000 N 
ATOM     23  H   UNL     1       6.081   3.664  20.135  0.00  0.00    +0.000 HD
BRANCH  22  24
ATOM     24  C   UNL     1       6.700   5.965  17.015  0.00  0.00    +0.000 C 
ATOM     25  C   UNL     1       7.652   7.118  17.401  0.00  0.00    +0.000 C 
ATOM     26  C   UNL     1       7.250   5.325  15.728  0.00  0.00    +0.000 C 
BRANCH  24  27
ATOM     27  C   UNL     1       5.330   6.619  16.736  0.00  0.00    +0.000 C 
ATOM     28  O   UNL     1       4.470   6.815  17.582  0.00  0.00    +0.000 OA
BRANCH  27  29
ATOM     29  O   UNL     1       5.078   6.819  15.417  0.00  0.00    +0.000 OA
ATOM     30  H   UNL     1       4.703   7.717  15.271  0.00  0.00    +0.000 HD
ENDBRANCH  27  29
ENDBRANCH  24  27
ENDBRANCH  22  24
BRANCH  22  31
ATOM     31  O   UNL     1       6.897   5.512  19.412  0.00  0.00    +0.000 OA
ATOM     32  H   UNL     1       6.090   5.267  19.911  0.00  0.00    +0.000 HD
ENDBRANCH  22  31
ENDBRANCH  18  19
ENDBRANCH   5  18
TORSDOF 12
ENDMDL
MODEL 4
REMARK VINA RESULT:      -7.4      4.052      8.766
REMARK  Name = 
REMARK  17 active torsions:
REMARK  status: ('A' for Active; 'I' for Inactive)
REMARK    1  A    between atoms: C_1  and  C_2
REMARK    2  A    between atoms: C_2  and  C_3
REMARK    3  A    between atoms: C_4  and  C_5
REMARK    4  A    between atoms: C_5  and  C_6
REMARK    5  A    between atoms: C_6  and  C_7
REMARK    6  A    between atoms: C_7  and  C_8
REMARK    7  A    between atoms: C_9  and  C_10
REMARK    8  A    between atoms: C_10  and  O_11
REMARK    9  A    between atoms: O_11  and  C_12
REMARK   10  A    between atoms: C_16  and  C_17
REMARK   11  A    between atoms: C_17  and  N_18
REMARK   12  A    between atoms: N_21  and  O_22
REMARK   13  A    between atoms: N_21  and  C_23
REMARK   14  A    between atoms: C_23  and  C_24
REMARK   15  A    between atoms: C_23  and  C_25
REMARK   16  A    between atoms: C_23  and  C_26
REMARK   17  A    between atoms: C_26  and  O_28
REMARK                            x       y       z     vdW  Elec       q    Type
REMARK                         _______ _______ _______ _____ _____    ______ ____
ROOT
ATOM      1  C   UNL     1       1.275   4.717  20.419  0.00  0.00    +0.000 A 
ATOM      2  C   UNL     1       0.985   3.500  21.041  0.00  0.00    +0.000 A 
ATOM      3  C   UNL     1       1.279   2.296  20.402  0.00  0.00    +0.000 A 
ATOM      4  C   UNL     1       1.837   2.303  19.125  0.00  0.00    +0.000 A 
ATOM      5  C   UNL     1       2.100   3.514  18.469  0.00  0.00    +0.000 A 
ATOM      6  C   UNL     1       1.790   4.720  19.119  0.00  0.00    +0.000 A 
ENDROOT
BRANCH   1   7
ATOM      7  O   UNL     1       1.119   5.948  21.010  0.00  0.00    +0.000 OA
BRANCH   7   8
ATOM      8  C   UNL     1       2.010   6.951  20.515  0.00  0.00    +0.000 C 
BRANCH   8  11
ATOM      9  C   UNL     1       1.198   9.106  19.451  0.00  0.00    +0.000 C 
ATOM     10  C   UNL     1       1.642   8.647  18.083  0.00  0.00    +0.000 C 
ATOM     11  C   UNL     1       1.334   8.293  20.524  0.00  0.00    +0.000 C 
BRANCH   9  12
ATOM     12  C   UNL     1       0.584  10.486  19.636  0.00  0.00    +0.000 C 
BRANCH  12  13
ATOM     13  C   UNL     1      -0.247  11.014  18.461  0.00  0.00    +0.000 C 
BRANCH  13  17
ATOM     14  C   UNL     1      -4.069  10.408  18.024  0.00  0.00    +0.000 C 
ATOM     15  C   UNL     1      -2.594  10.414  17.737  0.00  0.00    +0.000 C 
ATOM     16  C   UNL     1      -2.145   9.889  16.401  0.00  0.00    +0.000 C 
ATOM     17  C   UNL     1      -1.728  10.871  18.663  0.00  0.00    +0.000 C 
ENDBRANCH  13  17
ENDBRANCH  12  13
ENDBRANCH   9  12
ENDBRANCH   8  11
ENDBRANCH   7   8
ENDBRANCH   1   7
BRANCH   5  18
ATOM     18  C   UNL     1       2.738   3.507  17.105  0.00  0.00    +0.000 C 
BRANCH  18  19
ATOM     19  N   UNL     1       3.690   4.578  16.943  0.00  0.00    +0.000 N 
ATOM     20  C   UNL     1       4.814   4.653  17.733  0.00  0.00    +0.000 C 
ATOM     21  O   UNL     1       5.077   3.806  18.578  0.00  0.00    +0.000 OA
ATOM     22  N   UNL     1       5.623   5.749  17.446  0.00  0.00    +0.000 N 
ATOM     23  H   UNL     1       3.443   5.385  16.392  0.00  0.00    +0.000 HD
BRANCH  22  24
ATOM     24  C   UNL     1       7.058   5.840  17.854  0.00  0.00    +0.000 C 
ATOM     25  C   UNL     1       7.689   7.148  17.328  0.00  0.00    +0.000 C 
ATOM     26  C   UNL     1       7.230   5.828  19.384  0.00  0.00    +0.000 C 
BRANCH  24  27
ATOM     27  C   UNL     1       7.871   4.690  17.223  0.00  0.00    +0.000 C 
ATOM     28  O   UNL     1       8.645   3.969  17.836  0.00  0.00    +0.000 OA
BRANCH  27  29
ATOM     29  O   UNL     1       7.785   4.638  15.869  0.00  0.00    +0.000 OA
ATOM     30  H   UNL     1       7.346   5.447  15.521  0.00  0.00    +0.000 HD
ENDBRANCH  27  29
ENDBRANCH  24  27
ENDBRANCH  22  24
BRANCH  22  31
ATOM     31  O   UNL     1       5.319   6.413  16.230  0.00  0.00    +0.000 OA
ATOM     32  H   UNL     1       5.577   5.728  15.579  0.00  0.00    +0.000 HD
ENDBRANCH  22  31
ENDBRANCH  18  19
ENDBRANCH   5  18
TORSDOF 12
ENDMDL
MODEL 5
REMARK VINA RESULT:      -7.4      1.242      1.966
REMARK  Name = 
REMARK  17 active torsions:
REMARK  status: ('A' for Active; 'I' for Inactive)
REMARK    1  A    between atoms: C_1  and  C_2
REMARK    2  A    between atoms: C_2  and  C_3
REMARK    3  A    between atoms: C_4  and  C_5
REMARK    4  A    between atoms: C_5  and  C_6
REMARK    5  A    between atoms: C_6  and  C_7
REMARK    6  A    between atoms: C_7  and  C_8
REMARK    7  A    between atoms: C_9  and  C_10
REMARK    8  A    between atoms: C_10  and  O_11
REMARK    9  A    between atoms: O_11  and  C_12
REMARK   10  A    between atoms: C_16  and  C_17
REMARK   11  A    between atoms: C_17  and  N_18
REMARK   12  A    between atoms: N_21  and  O_22
REMARK   13  A    between atoms: N_21  and  C_23
REMARK   14  A    between atoms: C_23  and  C_24
REMARK   15  A    between atoms: C_23  and  C_25
REMARK   16  A    between atoms: C_23  and  C_26
REMARK   17  A    between atoms: C_26  and  O_28
REMARK                            x       y       z     vdW  Elec       q    Type
REMARK                         _______ _______ _______ _____ _____    ______ ____
ROOT
ATOM      1  C   UNL     1       2.711   4.280  18.465  0.00  0.00    +0.000 A 
ATOM      2  C   UNL     1       1.814   3.417  19.101  0.00  0.00    +0.000 A 
ATOM      3  C   UNL     1       0.997   3.885  20.129  0.00  0.00    +0.000 A 
ATOM      4  C   UNL     1       1.094   5.209  20.549  0.00  0.00    +0.000 A 
ATOM      5  C   UNL     1       2.015   6.081  19.950  0.00  0.00    +0.000 A 
ATOM      6  C   UNL     1       2.840   5.596  18.921  0.00  0.00    +0.000 A 
ENDROOT
BRANCH   1   7
ATOM      7  O   UNL     1       3.478   3.940  17.377  0.00  0.00    +0.000 OA
BRANCH   7   8
ATOM      8  C   UNL     1       4.880   3.869  17.651  0.00  0.00    +0.000 C 
BRANCH   8  11
ATOM      9  C   UNL     1       5.765   5.108  15.622  0.00  0.00    +0.000 C 
ATOM     10  C   UNL     1       5.159   6.406  16.097  0.00  0.00    +0.000 C 
ATOM     11  C   UNL     1       5.663   3.988  16.374  0.00  0.00    +0.000 C 
BRANCH   9  12
ATOM     12  C   UNL     1       6.506   5.048  14.295  0.00  0.00    +0.000 C 
BRANCH  12  13
ATOM     13  C   UNL     1       6.305   3.772  13.470  0.00  0.00    +0.000 C 
BRANCH  13  17
ATOM     14  C   UNL     1       3.614   3.138  10.726  0.00  0.00    +0.000 C 
ATOM     15  C   UNL     1       4.817   2.935  11.604  0.00  0.00    +0.000 C 
ATOM     16  C   UNL     1       5.675   1.730  11.338  0.00  0.00    +0.000 C 
ATOM     17  C   UNL     1       5.088   3.813  12.590  0.00  0.00    +0.000 C 
ENDBRANCH  13  17
ENDBRANCH  12  13
ENDBRANCH   9  12
ENDBRANCH   8  11
ENDBRANCH   7   8
ENDBRANCH   1   7
BRANCH   5  18
ATOM     18  C   UNL     1       2.082   7.520  20.388  0.00  0.00    +0.000 C 
BRANCH  18  19
ATOM     19  N   UNL     1       1.308   8.386  19.534  0.00  0.00    +0.000 N 
ATOM     20  C   UNL     1       0.833   9.593  19.993  0.00  0.00    +0.000 C 
ATOM     21  O   UNL     1       1.068  10.002  21.123  0.00  0.00    +0.000 OA
ATOM     22  N   UNL     1       0.104  10.301  19.041  0.00  0.00    +0.000 N 
ATOM     23  H   UNL     1       0.943   8.032  18.664  0.00  0.00    +0.000 HD
BRANCH  22  24
ATOM     24  C   UNL     1      -0.165  11.769  19.137  0.00  0.00    +0.000 C 
ATOM     25  C   UNL     1      -1.331  12.168  18.206  0.00  0.00    +0.000 C 
ATOM     26  C   UNL     1      -0.548  12.198  20.565  0.00  0.00    +0.000 C 
BRANCH  24  27
ATOM     27  C   UNL     1       1.061  12.573  18.655  0.00  0.00    +0.000 C 
ATOM     28  O   UNL     1       1.115  13.795  18.609  0.00  0.00    +0.000 OA
BRANCH  27  29
ATOM     29  O   UNL     1       2.044  11.805  18.119  0.00  0.00    +0.000 OA
ATOM     30  H   UNL     1       2.852  11.841  18.679  0.00  0.00    +0.000 HD
ENDBRANCH  27  29
ENDBRANCH  24  27
ENDBRANCH  22  24
BRANCH  22  31
ATOM     31  O   UNL     1       0.226   9.817  17.713  0.00  0.00    +0.000 OA
ATOM     32  H   UNL     1       0.824   9.053  17.852  0.00  0.00    +0.000 HD
ENDBRANCH  22  31
ENDBRANCH  18  19
ENDBRANCH   5  18
TORSDOF 12
ENDMDL
MODEL 6
REMARK VINA RESULT:      -7.3      5.420      9.357
REMARK  Name = 
REMARK  17 active torsions:
REMARK  status: ('A' for Active; 'I' for Inactive)
REMARK    1  A    between atoms: C_1  and  C_2
REMARK    2  A    between atoms: C_2  and  C_3
REMARK    3  A    between atoms: C_4  and  C_5
REMARK    4  A    between atoms: C_5  and  C_6
REMARK    5  A    between atoms: C_6  and  C_7
REMARK    6  A    between atoms: C_7  and  C_8
REMARK    7  A    between atoms: C_9  and  C_10
REMARK    8  A    between atoms: C_10  and  O_11
REMARK    9  A    between atoms: O_11  and  C_12
REMARK   10  A    between atoms: C_16  and  C_17
REMARK   11  A    between atoms: C_17  and  N_18
REMARK   12  A    between atoms: N_21  and  O_22
REMARK   13  A    between atoms: N_21  and  C_23
REMARK   14  A    between atoms: C_23  and  C_24
REMARK   15  A    between atoms: C_23  and  C_25
REMARK   16  A    between atoms: C_23  and  C_26
REMARK   17  A    between atoms: C_26  and  O_28
REMARK                            x       y       z     vdW  Elec       q    Type
REMARK                         _______ _______ _______ _____ _____    ______ ____
ROOT
ATOM      1  C   UNL     1       7.725   7.662  17.845  0.00  0.00    +0.000 A 
ATOM      2  C   UNL     1       8.194   6.649  18.686  0.00  0.00    +0.000 A 
ATOM      3  C   UNL     1       7.383   5.557  18.991  0.00  0.00    +0.000 A 
ATOM      4  C   UNL     1       6.088   5.488  18.484  0.00  0.00    +0.000 A 
ATOM      5  C   UNL     1       5.585   6.513  17.670  0.00  0.00    +0.000 A 
ATOM      6  C   UNL     1       6.408   7.613  17.377  0.00  0.00    +0.000 A 
ENDROOT
BRANCH   1   7
ATOM      7  O   UNL     1       8.485   8.720  17.404  0.00  0.00    +0.000 OA
BRANCH   7   8
ATOM      8  C   UNL     1       8.124   9.978  17.981  0.00  0.00    +0.000 C 
BRANCH   8  11
ATOM      9  C   UNL     1       9.650  11.948  18.457  0.00  0.00    +0.000 C 
ATOM     10  C   UNL     1       8.705  12.901  17.767  0.00  0.00    +0.000 C 
ATOM     11  C   UNL     1       9.334  10.638  18.580  0.00  0.00    +0.000 C 
BRANCH   9  12
ATOM     12  C   UNL     1      10.967  12.452  19.029  0.00  0.00    +0.000 C 
BRANCH  12  13
ATOM     13  C   UNL     1      10.869  13.262  20.327  0.00  0.00    +0.000 C 
BRANCH  13  17
ATOM     14  C   UNL     1       8.319  12.203  23.074  0.00  0.00    +0.000 C 
ATOM     15  C   UNL     1       8.925  12.937  21.910  0.00  0.00    +0.000 C 
ATOM     16  C   UNL     1       8.145  14.085  21.332  0.00  0.00    +0.000 C 
ATOM     17  C   UNL     1      10.120  12.554  21.420  0.00  0.00    +0.000 C 
ENDBRANCH  13  17
ENDBRANCH  12  13
ENDBRANCH   9  12
ENDBRANCH   8  11
ENDBRANCH   7   8
ENDBRANCH   1   7
BRANCH   5  18
ATOM     18  C   UNL     1       4.196   6.407  17.097  0.00  0.00    +0.000 C 
BRANCH  18  19
ATOM     19  N   UNL     1       3.245   5.920  18.065  0.00  0.00    +0.000 N 
ATOM     20  C   UNL     1       2.871   4.596  18.087  0.00  0.00    +0.000 C 
ATOM     21  O   UNL     1       3.346   3.769  17.318  0.00  0.00    +0.000 OA
ATOM     22  N   UNL     1       1.944   4.297  19.081  0.00  0.00    +0.000 N 
ATOM     23  H   UNL     1       2.699   6.576  18.601  0.00  0.00    +0.000 HD
BRANCH  22  24
ATOM     24  C   UNL     1       1.689   2.909  19.576  0.00  0.00    +0.000 C 
ATOM     25  C   UNL     1       1.189   2.939  21.037  0.00  0.00    +0.000 C 
ATOM     26  C   UNL     1       0.624   2.179  18.739  0.00  0.00    +0.000 C 
BRANCH  24  27
ATOM     27  C   UNL     1       3.000   2.094  19.591  0.00  0.00    +0.000 C 
ATOM     28  O   UNL     1       3.947   2.316  20.332  0.00  0.00    +0.000 OA
BRANCH  27  29
ATOM     29  O   UNL     1       3.092   1.187  18.584  0.00  0.00    +0.000 OA
ATOM     30  H   UNL     1       2.500   1.440  17.840  0.00  0.00    +0.000 HD
ENDBRANCH  27  29
ENDBRANCH  24  27
ENDBRANCH  22  24
BRANCH  22  31
ATOM     31  O   UNL     1       1.774   5.306  20.063  0.00  0.00    +0.000 OA
ATOM     32  H   UNL     1       0.938   5.718  19.758  0.00  0.00    +0.000 HD
ENDBRANCH  22  31
ENDBRANCH  18  19
ENDBRANCH   5  18
TORSDOF 12
ENDMDL
MODEL 7
REMARK VINA RESULT:      -7.3      1.359      1.685
REMARK  Name = 
REMARK  17 active torsions:
REMARK  status: ('A' for Active; 'I' for Inactive)
REMARK    1  A    between atoms: C_1  and  C_2
REMARK    2  A    between atoms: C_2  and  C_3
REMARK    3  A    between atoms: C_4  and  C_5
REMARK    4  A    between atoms: C_5  and  C_6
REMARK    5  A    between atoms: C_6  and  C_7
REMARK    6  A    between atoms: C_7  and  C_8
REMARK    7  A    between atoms: C_9  and  C_10
REMARK    8  A    between atoms: C_10  and  O_11
REMARK    9  A    between atoms: O_11  and  C_12
REMARK   10  A    between atoms: C_16  and  C_17
REMARK   11  A    between atoms: C_17  and  N_18
REMARK   12  A    between atoms: N_21  and  O_22
REMARK   13  A    between atoms: N_21  and  C_23
REMARK   14  A    between atoms: C_23  and  C_24
REMARK   15  A    between atoms: C_23  and  C_25
REMARK   16  A    between atoms: C_23  and  C_26
REMARK   17  A    between atoms: C_26  and  O_28
REMARK                            x       y       z     vdW  Elec       q    Type
REMARK                         _______ _______ _______ _____ _____    ______ ____
ROOT
ATOM      1  C   UNL     1       5.035   5.006  19.224  0.00  0.00    +0.000 A 
ATOM      2  C   UNL     1       4.277   3.876  19.546  0.00  0.00    +0.000 A 
ATOM      3  C   UNL     1       2.903   3.863  19.315  0.00  0.00    +0.000 A 
ATOM      4  C   UNL     1       2.273   4.989  18.789  0.00  0.00    +0.000 A 
ATOM      5  C   UNL     1       3.010   6.145  18.495  0.00  0.00    +0.000 A 
ATOM      6  C   UNL     1       4.393   6.151  18.742  0.00  0.00    +0.000 A 
ENDROOT
BRANCH   1   7
ATOM      7  O   UNL     1       6.405   5.075  19.318  0.00  0.00    +0.000 OA
BRANCH   7   8
ATOM      8  C   UNL     1       7.042   5.622  18.160  0.00  0.00    +0.000 C 
BRANCH   8  11
ATOM      9  C   UNL     1       6.188   4.867  15.894  0.00  0.00    +0.000 C 
ATOM     10  C   UNL     1       5.477   6.181  15.677  0.00  0.00    +0.000 C 
ATOM     11  C   UNL     1       6.929   4.664  17.007  0.00  0.00    +0.000 C 
BRANCH   9  12
ATOM     12  C   UNL     1       6.085   3.758  14.857  0.00  0.00    +0.000 C 
BRANCH  12  13
ATOM     13  C   UNL     1       6.297   4.181  13.398  0.00  0.00    +0.000 C 
BRANCH  13  17
ATOM     14  C   UNL     1       6.103   1.265  10.824  0.00  0.00    +0.000 C 
ATOM     15  C   UNL     1       5.715   2.476  11.623  0.00  0.00    +0.000 C 
ATOM     16  C   UNL     1       4.332   3.029  11.419  0.00  0.00    +0.000 C 
ATOM     17  C   UNL     1       6.596   3.031  12.479  0.00  0.00    +0.000 C 
ENDBRANCH  13  17
ENDBRANCH  12  13
ENDBRANCH   9  12
ENDBRANCH   8  11
ENDBRANCH   7   8
ENDBRANCH   1   7
BRANCH   5  18
ATOM     18  C   UNL     1       2.323   7.341  17.892  0.00  0.00    +0.000 C 
BRANCH  18  19
ATOM     19  N   UNL     1       1.782   8.223  18.896  0.00  0.00    +0.000 N 
ATOM     20  C   UNL     1       1.625   9.567  18.649  0.00  0.00    +0.000 C 
ATOM     21  O   UNL     1       1.901  10.070  17.567  0.00  0.00    +0.000 OA
ATOM     22  N   UNL     1       1.093  10.271  19.726  0.00  0.00    +0.000 N 
ATOM     23  H   UNL     1       1.700   7.903  19.848  0.00  0.00    +0.000 HD
BRANCH  22  24
ATOM     24  C   UNL     1       0.457  11.618  19.593  0.00  0.00    +0.000 C 
ATOM     25  C   UNL     1      -0.002  12.139  20.973  0.00  0.00    +0.000 C 
ATOM     26  C   UNL     1       1.423  12.662  19.004  0.00  0.00    +0.000 C 
BRANCH  24  27
ATOM     27  C   UNL     1      -0.817  11.528  18.726  0.00  0.00    +0.000 C 
ATOM     28  O   UNL     1      -1.761  10.785  18.955  0.00  0.00    +0.000 OA
BRANCH  27  29
ATOM     29  O   UNL     1      -0.743  12.237  17.571  0.00  0.00    +0.000 OA
ATOM     30  H   UNL     1       0.190  12.305  17.268  0.00  0.00    +0.000 HD
ENDBRANCH  27  29
ENDBRANCH  24  27
ENDBRANCH  22  24
BRANCH  22  31
ATOM     31  O   UNL     1       0.540   9.464  20.753  0.00  0.00    +0.000 OA
ATOM     32  H   UNL     1      -0.417   9.612  20.606  0.00  0.00    +0.000 HD
ENDBRANCH  22  31
ENDBRANCH  18  19
ENDBRANCH   5  18
TORSDOF 12
ENDMDL
MODEL 8
REMARK VINA RESULT:      -7.3      4.063      9.730
REMARK  Name = 
REMARK  17 active torsions:
REMARK  status: ('A' for Active; 'I' for Inactive)
REMARK    1  A    between atoms: C_1  and  C_2
REMARK    2  A    between atoms: C_2  and  C_3
REMARK    3  A    between atoms: C_4  and  C_5
REMARK    4  A    between atoms: C_5  and  C_6
REMARK    5  A    between atoms: C_6  and  C_7
REMARK    6  A    between atoms: C_7  and  C_8
REMARK    7  A    between atoms: C_9  and  C_10
REMARK    8  A    between atoms: C_10  and  O_11
REMARK    9  A    between atoms: O_11  and  C_12
REMARK   10  A    between atoms: C_16  and  C_17
REMARK   11  A    between atoms: C_17  and  N_18
REMARK   12  A    between atoms: N_21  and  O_22
REMARK   13  A    between atoms: N_21  and  C_23
REMARK   14  A    between atoms: C_23  and  C_24
REMARK   15  A    between atoms: C_23  and  C_25
REMARK   16  A    between atoms: C_23  and  C_26
REMARK   17  A    between atoms: C_26  and  O_28
REMARK                            x       y       z     vdW  Elec       q    Type
REMARK                         _______ _______ _______ _____ _____    ______ ____
ROOT
ATOM      1  C   UNL     1       1.477   4.536  20.475  0.00  0.00    +0.000 A 
ATOM      2  C   UNL     1       0.425   3.780  19.952  0.00  0.00    +0.000 A 
ATOM      3  C   UNL     1       0.675   2.549  19.348  0.00  0.00    +0.000 A 
ATOM      4  C   UNL     1       1.982   2.081  19.235  0.00  0.00    +0.000 A 
ATOM      5  C   UNL     1       3.056   2.842  19.719  0.00  0.00    +0.000 A 
ATOM      6  C   UNL     1       2.792   4.086  20.317  0.00  0.00    +0.000 A 
ENDROOT
BRANCH   1   7
ATOM      7  O   UNL     1       1.320   5.706  21.178  0.00  0.00    +0.000 OA
BRANCH   7   8
ATOM      8  C   UNL     1       1.571   6.886  20.411  0.00  0.00    +0.000 C 
BRANCH   8  11
ATOM      9  C   UNL     1       0.983   9.337  20.706  0.00  0.00    +0.000 C 
ATOM     10  C   UNL     1       0.923   9.546  19.212  0.00  0.00    +0.000 C 
ATOM     11  C   UNL     1       1.231   8.109  21.217  0.00  0.00    +0.000 C 
BRANCH   9  12
ATOM     12  C   UNL     1       0.758  10.505  21.654  0.00  0.00    +0.000 C 
BRANCH  12  13
ATOM     13  C   UNL     1      -0.209  11.590  21.165  0.00  0.00    +0.000 C 
BRANCH  13  17
ATOM     14  C   UNL     1      -3.208  12.321  23.540  0.00  0.00    +0.000 C 
ATOM     15  C   UNL     1      -1.902  12.486  22.817  0.00  0.00    +0.000 C 
ATOM     16  C   UNL     1      -1.059  13.680  23.170  0.00  0.00    +0.000 C 
ATOM     17  C   UNL     1      -1.527  11.586  21.886  0.00  0.00    +0.000 C 
ENDBRANCH  13  17
ENDBRANCH  12  13
ENDBRANCH   9  12
ENDBRANCH   8  11
ENDBRANCH   7   8
ENDBRANCH   1   7
BRANCH   5  18
ATOM     18  C   UNL     1       4.460   2.307  19.625  0.00  0.00    +0.000 C 
BRANCH  18  19
ATOM     19  N   UNL     1       5.430   3.354  19.423  0.00  0.00    +0.000 N 
ATOM     20  C   UNL     1       5.523   4.012  18.218  0.00  0.00    +0.000 C 
ATOM     21  O   UNL     1       4.774   3.767  17.281  0.00  0.00    +0.000 OA
ATOM     22  N   UNL     1       6.512   4.991  18.194  0.00  0.00    +0.000 N 
ATOM     23  H   UNL     1       6.175   3.479  20.090  0.00  0.00    +0.000 HD
BRANCH  22  24
ATOM     24  C   UNL     1       6.550   6.095  17.188  0.00  0.00    +0.000 C 
ATOM     25  C   UNL     1       5.180   6.806  17.111  0.00  0.00    +0.000 C 
ATOM     26  C   UNL     1       7.603   7.163  17.533  0.00  0.00    +0.000 C 
BRANCH  24  27
ATOM     27  C   UNL     1       6.815   5.529  15.776  0.00  0.00    +0.000 C 
ATOM     28  O   UNL     1       6.114   5.747  14.798  0.00  0.00    +0.000 OA
BRANCH  27  29
ATOM     29  O   UNL     1       7.820   4.617  15.733  0.00  0.00    +0.000 OA
ATOM     30  H   UNL     1       7.467   3.711  15.882  0.00  0.00    +0.000 HD
ENDBRANCH  27  29
ENDBRANCH  24  27
ENDBRANCH  22  24
BRANCH  22  31
ATOM     31  O   UNL     1       7.036   5.342  19.465  0.00  0.00    +0.000 OA
ATOM     32  H   UNL     1       7.652   6.062  19.215  0.00  0.00    +0.000 HD
ENDBRANCH  22  31
ENDBRANCH  18  19
ENDBRANCH   5  18
TORSDOF 12
ENDMDL
MODEL 9
REMARK VINA RESULT:      -7.3      4.002      9.095
REMARK  Name = 
REMARK  17 active torsions:
REMARK  status: ('A' for Active; 'I' for Inactive)
REMARK    1  A    between atoms: C_1  and  C_2
REMARK    2  A    between atoms: C_2  and  C_3
REMARK    3  A    between atoms: C_4  and  C_5
REMARK    4  A    between atoms: C_5  and  C_6
REMARK    5  A    between atoms: C_6  and  C_7
REMARK    6  A    between atoms: C_7  and  C_8
REMARK    7  A    between atoms: C_9  and  C_10
REMARK    8  A    between atoms: C_10  and  O_11
REMARK    9  A    between atoms: O_11  and  C_12
REMARK   10  A    between atoms: C_16  and  C_17
REMARK   11  A    between atoms: C_17  and  N_18
REMARK   12  A    between atoms: N_21  and  O_22
REMARK   13  A    between atoms: N_21  and  C_23
REMARK   14  A    between atoms: C_23  and  C_24
REMARK   15  A    between atoms: C_23  and  C_25
REMARK   16  A    between atoms: C_23  and  C_26
REMARK   17  A    between atoms: C_26  and  O_28
REMARK                            x       y       z     vdW  Elec       q    Type
REMARK                         _______ _______ _______ _____ _____    ______ ____
ROOT
ATOM      1  C   UNL     1       1.343   4.353  20.241  0.00  0.00    +0.000 A 
ATOM      2  C   UNL     1       0.359   3.543  19.666  0.00  0.00    +0.000 A 
ATOM      3  C   UNL     1       0.701   2.318  19.096  0.00  0.00    +0.000 A 
ATOM      4  C   UNL     1       2.033   1.909  19.070  0.00  0.00    +0.000 A 
ATOM      5  C   UNL     1       3.039   2.724  19.608  0.00  0.00    +0.000 A 
ATOM      6  C   UNL     1       2.684   3.961  20.171  0.00  0.00    +0.000 A 
ENDROOT
BRANCH   1   7
ATOM      7  O   UNL     1       1.089   5.522  20.917  0.00  0.00    +0.000 OA
BRANCH   7   8
ATOM      8  C   UNL     1       1.888   6.628  20.489  0.00  0.00    +0.000 C 
BRANCH   8  11
ATOM      9  C   UNL     1       1.150   9.024  20.098  0.00  0.00    +0.000 C 
ATOM     10  C   UNL     1       1.643   8.988  18.671  0.00  0.00    +0.000 C 
ATOM     11  C   UNL     1       1.232   7.923  20.880  0.00  0.00    +0.000 C 
BRANCH   9  12
ATOM     12  C   UNL     1       0.549  10.299  20.670  0.00  0.00    +0.000 C 
BRANCH  12  13
ATOM     13  C   UNL     1      -0.625  10.898  19.887  0.00  0.00    +0.000 C 
BRANCH  13  17
ATOM     14  C   UNL     1      -0.152  14.571  18.681  0.00  0.00    +0.000 C 
ATOM     15  C   UNL     1      -0.462  13.402  19.573  0.00  0.00    +0.000 C 
ATOM     16  C   UNL     1      -0.983  13.700  20.952  0.00  0.00    +0.000 C 
ATOM     17  C   UNL     1      -0.266  12.145  19.130  0.00  0.00    +0.000 C 
ENDBRANCH  13  17
ENDBRANCH  12  13
ENDBRANCH   9  12
ENDBRANCH   8  11
ENDBRANCH   7   8
ENDBRANCH   1   7
BRANCH   5  18
ATOM     18  C   UNL     1       4.469   2.252  19.608  0.00  0.00    +0.000 C 
BRANCH  18  19
ATOM     19  N   UNL     1       5.403   3.343  19.473  0.00  0.00    +0.000 N 
ATOM     20  C   UNL     1       5.530   4.024  18.285  0.00  0.00    +0.000 C 
ATOM     21  O   UNL     1       4.843   3.764  17.305  0.00  0.00    +0.000 OA
ATOM     22  N   UNL     1       6.476   5.044  18.328  0.00  0.00    +0.000 N 
ATOM     23  H   UNL     1       6.106   3.487  20.181  0.00  0.00    +0.000 HD
BRANCH  22  24
ATOM     24  C   UNL     1       6.519   6.166  17.341  0.00  0.00    +0.000 C 
ATOM     25  C   UNL     1       5.185   6.944  17.346  0.00  0.00    +0.000 C 
ATOM     26  C   UNL     1       7.640   7.173  17.653  0.00  0.00    +0.000 C 
BRANCH  24  27
ATOM     27  C   UNL     1       6.687   5.617  15.908  0.00  0.00    +0.000 C 
ATOM     28  O   UNL     1       7.697   5.070  15.488  0.00  0.00    +0.000 OA
BRANCH  27  29
ATOM     29  O   UNL     1       5.662   5.936  15.076  0.00  0.00    +0.000 OA
ATOM     30  H   UNL     1       4.957   5.252  15.122  0.00  0.00    +0.000 HD
ENDBRANCH  27  29
ENDBRANCH  24  27
ENDBRANCH  22  24
BRANCH  22  31
ATOM     31  O   UNL     1       6.917   5.396  19.629  0.00  0.00    +0.000 OA
ATOM     32  H   UNL     1       7.612   6.053  19.415  0.00  0.00    +0.000 HD
ENDBRANCH  22  31
ENDBRANCH  18  19
ENDBRANCH   5  18
TORSDOF 12
ENDMDL
