MODEL 1
REMARK VINA RESULT:      -8.9      0.000      0.000
REMARK  Name = 
REMARK  9 active torsions:
REMARK  status: ('A' for Active; 'I' for Inactive)
REMARK    1  A    between atoms: C_1  and  C_2
REMARK    2  A    between atoms: C_2  and  O_3
REMARK    3  A    between atoms: O_3  and  C_4
REMARK    4  A    between atoms: C_10  and  C_11
REMARK    5  A    between atoms: N_13  and  C_14
REMARK    6  A    between atoms: C_16  and  C_17
REMARK    7  A    between atoms: C_17  and  O_19
REMARK    8  A    between atoms: C_21  and  C_22
REMARK    9  A    between atoms: C_30  and  C_31
REMARK                            x       y       z     vdW  Elec       q    Type
REMARK                         _______ _______ _______ _____ _____    ______ ____
ROOT
ATOM      1  C   UNL     1       2.065   7.650  19.045  0.00  0.00    +0.000 C 
ATOM      2  O   UNL     1       1.944   7.858  20.248  0.00  0.00    +0.000 OA
ATOM      3  N   UNL     1       1.675   8.524  18.038  0.00  0.00    +0.000 N 
ATOM      4  H   UNL     1       1.586   8.143  17.104  0.00  0.00    +0.000 HD
ENDROOT
BRANCH   1  11
ATOM      5  C   UNL     1       6.042   6.219  16.964  0.00  0.00    +0.000 A 
ATOM      6  C   UNL     1       6.012   4.857  16.699  0.00  0.00    +0.000 A 
ATOM      7  C   UNL     1       4.916   4.073  17.063  0.00  0.00    +0.000 A 
ATOM      8  C   UNL     1       3.818   4.681  17.694  0.00  0.00    +0.000 A 
ATOM      9  C   UNL     1       3.814   6.058  17.948  0.00  0.00    +0.000 A 
ATOM     10  C   UNL     1       4.951   6.822  17.596  0.00  0.00    +0.000 A 
ATOM     11  C   UNL     1       2.576   6.369  18.571  0.00  0.00    +0.000 A 
ATOM     12  C   UNL     1       1.896   5.173  18.724  0.00  0.00    +0.000 A 
ATOM     13  N   UNL     1       2.619   4.131  18.176  0.00  0.00    +0.000 N 
ATOM     14  C   UNL     1       2.257   2.762  18.104  0.00  0.00    +0.000 C 
ATOM     15  C   UNL     1       0.931   2.344  18.667  0.00  0.00    +0.000 C 
ATOM     16  O   UNL     1       3.017   1.952  17.582  0.00  0.00    +0.000 OA
BRANCH   5  17
ATOM     17  O   UNL     1       7.071   7.069  16.660  0.00  0.00    +0.000 OA
BRANCH  17  19
ATOM     18  C   UNL     1       7.996   8.996  17.738  0.00  0.00    +0.000 C 
ATOM     19  C   UNL     1       7.877   7.485  17.763  0.00  0.00    +0.000 C 
ENDBRANCH  17  19
ENDBRANCH   5  17
ENDBRANCH   1  11
BRANCH   3  20
ATOM     20  C   UNL     1       1.228   9.846  18.242  0.00  0.00    +0.000 A 
ATOM     21  C   UNL     1       2.124  10.907  18.310  0.00  0.00    +0.000 A 
ATOM     22  C   UNL     1       1.680  12.199  18.571  0.00  0.00    +0.000 A 
ATOM     23  C   UNL     1       0.310  12.452  18.704  0.00  0.00    +0.000 A 
ATOM     24  C   UNL     1      -0.619  11.405  18.619  0.00  0.00    +0.000 A 
ATOM     25  C   UNL     1      -0.143  10.101  18.369  0.00  0.00    +0.000 A 
BRANCH  24  26
ATOM     26  C   UNL     1      -2.044  11.666  18.835  0.00  0.00    +0.000 A 
ATOM     27  C   UNL     1      -3.199  11.380  18.129  0.00  0.00    +0.000 A 
ATOM     28  C   UNL     1      -4.275  11.956  18.849  0.00  0.00    +0.000 A 
ATOM     29  C   UNL     1      -3.717  12.553  19.953  0.00  0.00    +0.000 A 
ATOM     30  O   UNL     1      -2.370  12.379  19.958  0.00  0.00    +0.000 OA
ENDBRANCH  24  26
BRANCH  22  31
ATOM     31  C   UNL     1       2.648  13.315  18.677  0.00  0.00    +0.000 C 
ATOM     32  O   UNL     1       2.644  14.090  19.618  0.00  0.00    +0.000 OA
BRANCH  31  33
ATOM     33  O   UNL     1       3.553  13.373  17.676  0.00  0.00    +0.000 OA
ATOM     34  H   UNL     1       3.711  14.253  17.280  0.00  0.00    +0.000 HD
ENDBRANCH  31  33
ENDBRANCH  22  31
ENDBRANCH   3  20
TORSDOF 7
ENDMDL
MODEL 2
REMARK VINA RESULT:      -8.9      2.180      4.422
REMARK  Name = 
REMARK  9 active torsions:
REMARK  status: ('A' for Active; 'I' for Inactive)
REMARK    1  A    between atoms: C_1  and  C_2
REMARK    2  A    between atoms: C_2  and  O_3
REMARK    3  A    between atoms: O_3  and  C_4
REMARK    4  A    between atoms: C_10  and  C_11
REMARK    5  A    between atoms: N_13  and  C_14
REMARK    6  A    between atoms: C_16  and  C_17
REMARK    7  A    between atoms: C_17  and  O_19
REMARK    8  A    between atoms: C_21  and  C_22
REMARK    9  A    between atoms: C_30  and  C_31
REMARK                            x       y       z     vdW  Elec       q    Type
REMARK                         _______ _______ _______ _____ _____    ______ ____
ROOT
ATOM      1  C   UNL     1       2.474   8.434  17.964  0.00  0.00    +0.000 C 
ATOM      2  O   UNL     1       2.389   9.256  17.056  0.00  0.00    +0.000 OA
ATOM      3  N   UNL     1       1.785   8.498  19.168  0.00  0.00    +0.000 N 
ATOM      4  H   UNL     1       2.126   7.919  19.926  0.00  0.00    +0.000 HD
ENDROOT
BRANCH   1  11
ATOM      5  C   UNL     1       2.090   3.740  17.897  0.00  0.00    +0.000 A 
ATOM      6  C   UNL     1       3.334   3.131  17.801  0.00  0.00    +0.000 A 
ATOM      7  C   UNL     1       4.504   3.889  17.708  0.00  0.00    +0.000 A 
ATOM      8  C   UNL     1       4.416   5.291  17.730  0.00  0.00    +0.000 A 
ATOM      9  C   UNL     1       3.175   5.926  17.853  0.00  0.00    +0.000 A 
ATOM     10  C   UNL     1       2.004   5.134  17.914  0.00  0.00    +0.000 A 
ATOM     11  C   UNL     1       3.415   7.326  17.862  0.00  0.00    +0.000 A 
ATOM     12  C   UNL     1       4.778   7.496  17.691  0.00  0.00    +0.000 A 
ATOM     13  N   UNL     1       5.416   6.272  17.632  0.00  0.00    +0.000 N 
ATOM     14  C   UNL     1       6.804   6.018  17.492  0.00  0.00    +0.000 C 
ATOM     15  C   UNL     1       7.738   7.188  17.404  0.00  0.00    +0.000 C 
ATOM     16  O   UNL     1       7.217   4.862  17.454  0.00  0.00    +0.000 OA
BRANCH   5  17
ATOM     17  O   UNL     1       0.888   3.089  17.979  0.00  0.00    +0.000 OA
BRANCH  17  19
ATOM     18  C   UNL     1       0.890   2.997  20.371  0.00  0.00    +0.000 C 
ATOM     19  C   UNL     1       0.738   2.203  19.089  0.00  0.00    +0.000 C 
ENDBRANCH  17  19
ENDBRANCH   5  17
ENDBRANCH   1  11
BRANCH   3  20
ATOM     20  C   UNL     1       0.768   9.427  19.471  0.00  0.00    +0.000 A 
ATOM     21  C   UNL     1       0.712  10.056  20.710  0.00  0.00    +0.000 A 
ATOM     22  C   UNL     1      -0.329  10.924  21.021  0.00  0.00    +0.000 A 
ATOM     23  C   UNL     1      -1.299  11.225  20.059  0.00  0.00    +0.000 A 
ATOM     24  C   UNL     1      -1.255  10.623  18.792  0.00  0.00    +0.000 A 
ATOM     25  C   UNL     1      -0.199   9.733  18.506  0.00  0.00    +0.000 A 
BRANCH  24  26
ATOM     26  C   UNL     1      -2.315  10.884  17.817  0.00  0.00    +0.000 A 
ATOM     27  C   UNL     1      -3.573  11.457  17.882  0.00  0.00    +0.000 A 
ATOM     28  C   UNL     1      -4.137  11.365  16.585  0.00  0.00    +0.000 A 
ATOM     29  C   UNL     1      -3.190  10.750  15.803  0.00  0.00    +0.000 A 
ATOM     30  O   UNL     1      -2.084  10.459  16.535  0.00  0.00    +0.000 OA
ENDBRANCH  24  26
BRANCH  22  31
ATOM     31  C   UNL     1      -0.397  11.559  22.358  0.00  0.00    +0.000 C 
ATOM     32  O   UNL     1      -0.420  12.771  22.500  0.00  0.00    +0.000 OA
BRANCH  31  33
ATOM     33  O   UNL     1      -0.476  10.693  23.391  0.00  0.00    +0.000 OA
ATOM     34  H   UNL     1       0.346  10.218  23.627  0.00  0.00    +0.000 HD
ENDBRANCH  31  33
ENDBRANCH  22  31
ENDBRANCH   3  20
TORSDOF 7
ENDMDL
MODEL 3
REMARK VINA RESULT:      -8.8      2.030      2.469
REMARK  Name = 
REMARK  9 active torsions:
REMARK  status: ('A' for Active; 'I' for Inactive)
REMARK    1  A    between atoms: C_1  and  C_2
REMARK    2  A    between atoms: C_2  and  O_3
REMARK    3  A    between atoms: O_3  and  C_4
REMARK    4  A    between atoms: C_10  and  C_11
REMARK    5  A    between atoms: N_13  and  C_14
REMARK    6  A    between atoms: C_16  and  C_17
REMARK    7  A    between atoms: C_17  and  O_19
REMARK    8  A    between atoms: C_21  and  C_22
REMARK    9  A    between atoms: C_30  and  C_31
REMARK                            x       y       z     vdW  Elec       q    Type
REMARK                         _______ _______ _______ _____ _____    ______ ____
ROOT
ATOM      1  C   UNL     1       2.243   8.150  18.221  0.00  0.00    +0.000 C 
ATOM      2  O   UNL     1       2.576   8.783  17.224  0.00  0.00    +0.000 OA
ATOM      3  N   UNL     1       1.420   8.627  19.234  0.00  0.00    +0.000 N 
ATOM      4  H   UNL     1       1.428   8.121  20.111  0.00  0.00    +0.000 HD
ENDROOT
BRANCH   1  11
ATOM      5  C   UNL     1       5.495   5.463  16.124  0.00  0.00    +0.000 A 
ATOM      6  C   UNL     1       5.619   4.234  16.756  0.00  0.00    +0.000 A 
ATOM      7  C   UNL     1       4.862   3.922  17.887  0.00  0.00    +0.000 A 
ATOM      8  C   UNL     1       3.945   4.866  18.379  0.00  0.00    +0.000 A 
ATOM      9  C   UNL     1       3.782   6.101  17.742  0.00  0.00    +0.000 A 
ATOM     10  C   UNL     1       4.586   6.402  16.618  0.00  0.00    +0.000 A 
ATOM     11  C   UNL     1       2.785   6.818  18.457  0.00  0.00    +0.000 A 
ATOM     12  C   UNL     1       2.416   6.023  19.529  0.00  0.00    +0.000 A 
ATOM     13  N   UNL     1       3.089   4.817  19.492  0.00  0.00    +0.000 N 
ATOM     14  C   UNL     1       2.971   3.725  20.389  0.00  0.00    +0.000 C 
ATOM     15  C   UNL     1       2.002   3.839  21.528  0.00  0.00    +0.000 C 
ATOM     16  O   UNL     1       3.647   2.714  20.219  0.00  0.00    +0.000 OA
BRANCH   5  17
ATOM     17  O   UNL     1       6.199   5.869  15.022  0.00  0.00    +0.000 OA
BRANCH  17  19
ATOM     18  C   UNL     1       6.338   4.101  13.416  0.00  0.00    +0.000 C 
ATOM     19  C   UNL     1       7.086   4.900  14.463  0.00  0.00    +0.000 C 
ENDBRANCH  17  19
ENDBRANCH   5  17
ENDBRANCH   1  11
BRANCH   3  20
ATOM     20  C   UNL     1       0.716   9.849  19.197  0.00  0.00    +0.000 A 
ATOM     21  C   UNL     1       1.155  10.955  19.918  0.00  0.00    +0.000 A 
ATOM     22  C   UNL     1       0.423  12.136  19.924  0.00  0.00    +0.000 A 
ATOM     23  C   UNL     1      -0.736  12.244  19.146  0.00  0.00    +0.000 A 
ATOM     24  C   UNL     1      -1.191  11.152  18.392  0.00  0.00    +0.000 A 
ATOM     25  C   UNL     1      -0.439   9.959  18.414  0.00  0.00    +0.000 A 
BRANCH  24  26
ATOM     26  C   UNL     1      -2.444  11.247  17.641  0.00  0.00    +0.000 A 
ATOM     27  C   UNL     1      -3.753  11.546  17.974  0.00  0.00    +0.000 A 
ATOM     28  C   UNL     1      -4.520  11.417  16.790  0.00  0.00    +0.000 A 
ATOM     29  C   UNL     1      -3.637  11.055  15.803  0.00  0.00    +0.000 A 
ATOM     30  O   UNL     1      -2.379  10.954  16.305  0.00  0.00    +0.000 OA
ENDBRANCH  24  26
BRANCH  22  31
ATOM     31  C   UNL     1       0.881  13.295  20.725  0.00  0.00    +0.000 C 
ATOM     32  O   UNL     1       0.581  13.431  21.899  0.00  0.00    +0.000 OA
BRANCH  31  33
ATOM     33  O   UNL     1       1.686  14.154  20.064  0.00  0.00    +0.000 OA
ATOM     34  H   UNL     1       1.608  14.167  19.089  0.00  0.00    +0.000 HD
ENDBRANCH  31  33
ENDBRANCH  22  31
ENDBRANCH   3  20
TORSDOF 7
ENDMDL
MODEL 4
REMARK VINA RESULT:      -8.7      0.826      3.388
REMARK  Name = 
REMARK  9 active torsions:
REMARK  status: ('A' for Active; 'I' for Inactive)
REMARK    1  A    between atoms: C_1  and  C_2
REMARK    2  A    between atoms: C_2  and  O_3
REMARK    3  A    between atoms: O_3  and  C_4
REMARK    4  A    between atoms: C_10  and  C_11
REMARK    5  A    between atoms: N_13  and  C_14
REMARK    6  A    between atoms: C_16  and  C_17
REMARK    7  A    between atoms: C_17  and  O_19
REMARK    8  A    between atoms: C_21  and  C_22
REMARK    9  A    between atoms: C_30  and  C_31
REMARK                            x       y       z     vdW  Elec       q    Type
REMARK                         _______ _______ _______ _____ _____    ______ ____
ROOT
ATOM      1  C   UNL     1       2.011   7.748  19.073  0.00  0.00    +0.000 C 
ATOM      2  O   UNL     1       1.950   7.964  20.279  0.00  0.00    +0.000 OA
ATOM      3  N   UNL     1       1.545   8.601  18.081  0.00  0.00    +0.000 N 
ATOM      4  H   UNL     1       1.415   8.208  17.157  0.00  0.00    +0.000 HD
ENDROOT
BRANCH   1  11
ATOM      5  C   UNL     1       5.980   6.373  16.940  0.00  0.00    +0.000 A 
ATOM      6  C   UNL     1       5.961   5.013  16.662  0.00  0.00    +0.000 A 
ATOM      7  C   UNL     1       4.876   4.215  17.032  0.00  0.00    +0.000 A 
ATOM      8  C   UNL     1       3.779   4.808  17.679  0.00  0.00    +0.000 A 
ATOM      9  C   UNL     1       3.764   6.182  17.944  0.00  0.00    +0.000 A 
ATOM     10  C   UNL     1       4.890   6.960  17.587  0.00  0.00    +0.000 A 
ATOM     11  C   UNL     1       2.529   6.476  18.583  0.00  0.00    +0.000 A 
ATOM     12  C   UNL     1       1.863   5.272  18.733  0.00  0.00    +0.000 A 
ATOM     13  N   UNL     1       2.590   4.242  18.168  0.00  0.00    +0.000 N 
ATOM     14  C   UNL     1       2.241   2.870  18.088  0.00  0.00    +0.000 C 
ATOM     15  C   UNL     1       0.925   2.434  18.662  0.00  0.00    +0.000 C 
ATOM     16  O   UNL     1       3.004   2.072  17.552  0.00  0.00    +0.000 OA
BRANCH   5  17
ATOM     17  O   UNL     1       6.998   7.236  16.632  0.00  0.00    +0.000 OA
BRANCH  17  19
ATOM     18  C   UNL     1       8.013   9.076  17.777  0.00  0.00    +0.000 C 
ATOM     19  C   UNL     1       7.874   7.569  17.709  0.00  0.00    +0.000 C 
ENDBRANCH  17  19
ENDBRANCH   5  17
ENDBRANCH   1  11
BRANCH   3  20
ATOM     20  C   UNL     1       1.074   9.913  18.298  0.00  0.00    +0.000 A 
ATOM     21  C   UNL     1      -0.287  10.200  18.296  0.00  0.00    +0.000 A 
ATOM     22  C   UNL     1      -0.740  11.505  18.450  0.00  0.00    +0.000 A 
ATOM     23  C   UNL     1       0.175  12.539  18.678  0.00  0.00    +0.000 A 
ATOM     24  C   UNL     1       1.553  12.276  18.708  0.00  0.00    +0.000 A 
ATOM     25  C   UNL     1       1.988  10.947  18.533  0.00  0.00    +0.000 A 
BRANCH  24  26
ATOM     26  C   UNL     1       2.508  13.374  18.870  0.00  0.00    +0.000 A 
ATOM     27  C   UNL     1       3.133  14.251  18.002  0.00  0.00    +0.000 A 
ATOM     28  C   UNL     1       4.000  15.057  18.782  0.00  0.00    +0.000 A 
ATOM     29  C   UNL     1       3.848  14.632  20.079  0.00  0.00    +0.000 A 
ATOM     30  O   UNL     1       2.945  13.619  20.145  0.00  0.00    +0.000 OA
ENDBRANCH  24  26
BRANCH  22  31
ATOM     31  C   UNL     1      -2.190  11.802  18.409  0.00  0.00    +0.000 C 
ATOM     32  O   UNL     1      -2.844  11.990  19.422  0.00  0.00    +0.000 OA
BRANCH  31  33
ATOM     33  O   UNL     1      -2.713  11.891  17.167  0.00  0.00    +0.000 OA
ATOM     34  H   UNL     1      -2.212  12.425  16.518  0.00  0.00    +0.000 HD
ENDBRANCH  31  33
ENDBRANCH  22  31
ENDBRANCH   3  20
TORSDOF 7
ENDMDL
MODEL 5
REMARK VINA RESULT:      -8.6      2.304      9.437
REMARK  Name = 
REMARK  9 active torsions:
REMARK  status: ('A' for Active; 'I' for Inactive)
REMARK    1  A    between atoms: C_1  and  C_2
REMARK    2  A    between atoms: C_2  and  O_3
REMARK    3  A    between atoms: O_3  and  C_4
REMARK    4  A    between atoms: C_10  and  C_11
REMARK    5  A    between atoms: N_13  and  C_14
REMARK    6  A    between atoms: C_16  and  C_17
REMARK    7  A    between atoms: C_17  and  O_19
REMARK    8  A    between atoms: C_21  and  C_22
REMARK    9  A    between atoms: C_30  and  C_31
REMARK                            x       y       z     vdW  Elec       q    Type
REMARK                         _______ _______ _______ _____ _____    ______ ____
ROOT
ATOM      1  C   UNL     1       1.836   8.772  18.501  0.00  0.00    +0.000 C 
ATOM      2  O   UNL     1       2.292   8.514  17.391  0.00  0.00    +0.000 OA
ATOM      3  N   UNL     1       1.786   7.889  19.571  0.00  0.00    +0.000 N 
ATOM      4  H   UNL     1       1.165   8.124  20.336  0.00  0.00    +0.000 HD
ENDROOT
BRANCH   1  11
ATOM      5  C   UNL     1      -2.385  10.653  17.588  0.00  0.00    +0.000 A 
ATOM      6  C   UNL     1      -2.463  11.964  18.035  0.00  0.00    +0.000 A 
ATOM      7  C   UNL     1      -1.390  12.568  18.694  0.00  0.00    +0.000 A 
ATOM      8  C   UNL     1      -0.206  11.837  18.888  0.00  0.00    +0.000 A 
ATOM      9  C   UNL     1      -0.095  10.521  18.421  0.00  0.00    +0.000 A 
ATOM     10  C   UNL     1      -1.209   9.925  17.786  0.00  0.00    +0.000 A 
ATOM     11  C   UNL     1       1.209  10.064  18.752  0.00  0.00    +0.000 A 
ATOM     12  C   UNL     1       1.824  11.088  19.450  0.00  0.00    +0.000 A 
ATOM     13  N   UNL     1       0.994  12.190  19.527  0.00  0.00    +0.000 N 
ATOM     14  C   UNL     1       1.263  13.444  20.131  0.00  0.00    +0.000 C 
ATOM     15  C   UNL     1       2.604  13.655  20.769  0.00  0.00    +0.000 C 
ATOM     16  O   UNL     1       0.412  14.329  20.117  0.00  0.00    +0.000 OA
BRANCH   5  17
ATOM     17  O   UNL     1      -3.383   9.968  16.945  0.00  0.00    +0.000 OA
BRANCH  17  19
ATOM     18  C   UNL     1      -3.093  10.119  14.575  0.00  0.00    +0.000 C 
ATOM     19  C   UNL     1      -3.900  10.588  15.768  0.00  0.00    +0.000 C 
ENDBRANCH  17  19
ENDBRANCH   5  17
ENDBRANCH   1  11
BRANCH   3  20
ATOM     20  C   UNL     1       2.393   6.615  19.599  0.00  0.00    +0.000 A 
ATOM     21  C   UNL     1       1.860   5.580  20.360  0.00  0.00    +0.000 A 
ATOM     22  C   UNL     1       2.498   4.347  20.429  0.00  0.00    +0.000 A 
ATOM     23  C   UNL     1       3.653   4.114  19.675  0.00  0.00    +0.000 A 
ATOM     24  C   UNL     1       4.201   5.133  18.880  0.00  0.00    +0.000 A 
ATOM     25  C   UNL     1       3.545   6.381  18.839  0.00  0.00    +0.000 A 
BRANCH  24  26
ATOM     26  C   UNL     1       5.451   4.907  18.153  0.00  0.00    +0.000 A 
ATOM     27  C   UNL     1       6.792   5.061  18.460  0.00  0.00    +0.000 A 
ATOM     28  C   UNL     1       7.523   4.718  17.295  0.00  0.00    +0.000 A 
ATOM     29  C   UNL     1       6.590   4.369  16.350  0.00  0.00    +0.000 A 
ATOM     30  O   UNL     1       5.335   4.475  16.859  0.00  0.00    +0.000 OA
ENDBRANCH  24  26
BRANCH  22  31
ATOM     31  C   UNL     1       1.940   3.264  21.273  0.00  0.00    +0.000 C 
ATOM     32  O   UNL     1       2.570   2.770  22.193  0.00  0.00    +0.000 OA
BRANCH  31  33
ATOM     33  O   UNL     1       0.675   2.906  20.968  0.00  0.00    +0.000 OA
ATOM     34  H   UNL     1       0.419   2.961  20.025  0.00  0.00    +0.000 HD
ENDBRANCH  31  33
ENDBRANCH  22  31
ENDBRANCH   3  20
TORSDOF 7
ENDMDL
MODEL 6
REMARK VINA RESULT:      -8.5      1.711      1.930
REMARK  Name = 
REMARK  9 active torsions:
REMARK  status: ('A' for Active; 'I' for Inactive)
REMARK    1  A    between atoms: C_1  and  C_2
REMARK    2  A    between atoms: C_2  and  O_3
REMARK    3  A    between atoms: O_3  and  C_4
REMARK    4  A    between atoms: C_10  and  C_11
REMARK    5  A    between atoms: N_13  and  C_14
REMARK    6  A    between atoms: C_16  and  C_17
REMARK    7  A    between atoms: C_17  and  O_19
REMARK    8  A    between atoms: C_21  and  C_22
REMARK    9  A    between atoms: C_30  and  C_31
REMARK                            x       y       z     vdW  Elec       q    Type
REMARK                         _______ _______ _______ _____ _____    ______ ____
ROOT
ATOM      1  C   UNL     1       2.245   8.096  18.186  0.00  0.00    +0.000 C 
ATOM      2  O   UNL     1       2.567   8.668  17.149  0.00  0.00    +0.000 OA
ATOM      3  N   UNL     1       1.435   8.633  19.178  0.00  0.00    +0.000 N 
ATOM      4  H   UNL     1       1.452   8.180  20.084  0.00  0.00    +0.000 HD
ENDROOT
BRANCH   1  11
ATOM      5  C   UNL     1       6.322   5.899  17.324  0.00  0.00    +0.000 A 
ATOM      6  C   UNL     1       6.320   4.609  17.837  0.00  0.00    +0.000 A 
ATOM      7  C   UNL     1       5.220   4.111  18.537  0.00  0.00    +0.000 A 
ATOM      8  C   UNL     1       4.089   4.927  18.707  0.00  0.00    +0.000 A 
ATOM      9  C   UNL     1       4.057   6.222  18.175  0.00  0.00    +0.000 A 
ATOM     10  C   UNL     1       5.198   6.711  17.498  0.00  0.00    +0.000 A 
ATOM     11  C   UNL     1       2.791   6.780  18.495  0.00  0.00    +0.000 A 
ATOM     12  C   UNL     1       2.120   5.835  19.252  0.00  0.00    +0.000 A 
ATOM     13  N   UNL     1       2.878   4.686  19.375  0.00  0.00    +0.000 N 
ATOM     14  C   UNL     1       2.536   3.484  20.046  0.00  0.00    +0.000 C 
ATOM     15  C   UNL     1       1.194   3.394  20.709  0.00  0.00    +0.000 C 
ATOM     16  O   UNL     1       3.328   2.546  20.067  0.00  0.00    +0.000 OA
BRANCH   5  17
ATOM     17  O   UNL     1       7.352   6.484  16.637  0.00  0.00    +0.000 OA
BRANCH  17  19
ATOM     18  C   UNL     1       8.208   7.596  18.575  0.00  0.00    +0.000 C 
ATOM     19  C   UNL     1       7.784   7.752  17.129  0.00  0.00    +0.000 C 
ENDBRANCH  17  19
ENDBRANCH   5  17
ENDBRANCH   1  11
BRANCH   3  20
ATOM     20  C   UNL     1       0.730   9.851  19.077  0.00  0.00    +0.000 A 
ATOM     21  C   UNL     1       1.180  10.999  19.720  0.00  0.00    +0.000 A 
ATOM     22  C   UNL     1       0.447  12.179  19.665  0.00  0.00    +0.000 A 
ATOM     23  C   UNL     1      -0.723  12.239  18.900  0.00  0.00    +0.000 A 
ATOM     24  C   UNL     1      -1.190  11.103  18.222  0.00  0.00    +0.000 A 
ATOM     25  C   UNL     1      -0.438   9.913  18.307  0.00  0.00    +0.000 A 
BRANCH  24  26
ATOM     26  C   UNL     1      -2.454  11.153  17.487  0.00  0.00    +0.000 A 
ATOM     27  C   UNL     1      -3.752  11.506  17.813  0.00  0.00    +0.000 A 
ATOM     28  C   UNL     1      -4.543  11.283  16.658  0.00  0.00    +0.000 A 
ATOM     29  C   UNL     1      -3.684  10.815  15.694  0.00  0.00    +0.000 A 
ATOM     30  O   UNL     1      -2.419  10.737  16.183  0.00  0.00    +0.000 OA
ENDBRANCH  24  26
BRANCH  22  31
ATOM     31  C   UNL     1       0.919  13.385  20.385  0.00  0.00    +0.000 C 
ATOM     32  O   UNL     1       1.186  13.367  21.575  0.00  0.00    +0.000 OA
BRANCH  31  33
ATOM     33  O   UNL     1       1.067  14.482  19.612  0.00  0.00    +0.000 OA
ATOM     34  H   UNL     1       1.780  15.102  19.864  0.00  0.00    +0.000 HD
ENDBRANCH  31  33
ENDBRANCH  22  31
ENDBRANCH   3  20
TORSDOF 7
ENDMDL
MODEL 7
REMARK VINA RESULT:      -8.5      2.077      3.689
REMARK  Name = 
REMARK  9 active torsions:
REMARK  status: ('A' for Active; 'I' for Inactive)
REMARK    1  A    between atoms: C_1  and  C_2
REMARK    2  A    between atoms: C_2  and  O_3
REMARK    3  A    between atoms: O_3  and  C_4
REMARK    4  A    between atoms: C_10  and  C_11
REMARK    5  A    between atoms: N_13  and  C_14
REMARK    6  A    between atoms: C_16  and  C_17
REMARK    7  A    between atoms: C_17  and  O_19
REMARK    8  A    between atoms: C_21  and  C_22
REMARK    9  A    between atoms: C_30  and  C_31
REMARK                            x       y       z     vdW  Elec       q    Type
REMARK                         _______ _______ _______ _____ _____    ______ ____
ROOT
ATOM      1  C   UNL     1       2.313   8.279  18.120  0.00  0.00    +0.000 C 
ATOM      2  O   UNL     1       2.706   8.908  17.142  0.00  0.00    +0.000 OA
ATOM      3  N   UNL     1       1.448   8.766  19.091  0.00  0.00    +0.000 N 
ATOM      4  H   UNL     1       1.404   8.260  19.967  0.00  0.00    +0.000 HD
ENDROOT
BRANCH   1  11
ATOM      5  C   UNL     1       5.560   5.510  16.125  0.00  0.00    +0.000 A 
ATOM      6  C   UNL     1       5.645   4.284  16.771  0.00  0.00    +0.000 A 
ATOM      7  C   UNL     1       4.855   3.997  17.885  0.00  0.00    +0.000 A 
ATOM      8  C   UNL     1       3.945   4.963  18.347  0.00  0.00    +0.000 A 
ATOM      9  C   UNL     1       3.823   6.196  17.696  0.00  0.00    +0.000 A 
ATOM     10  C   UNL     1       4.658   6.471  16.589  0.00  0.00    +0.000 A 
ATOM     11  C   UNL     1       2.823   6.938  18.381  0.00  0.00    +0.000 A 
ATOM     12  C   UNL     1       2.413   6.160  19.450  0.00  0.00    +0.000 A 
ATOM     13  N   UNL     1       3.062   4.941  19.439  0.00  0.00    +0.000 N 
ATOM     14  C   UNL     1       2.901   3.859  20.342  0.00  0.00    +0.000 C 
ATOM     15  C   UNL     1       1.908   4.003  21.456  0.00  0.00    +0.000 C 
ATOM     16  O   UNL     1       3.560   2.834  20.197  0.00  0.00    +0.000 OA
BRANCH   5  17
ATOM     17  O   UNL     1       6.299   5.892  15.037  0.00  0.00    +0.000 OA
BRANCH  17  19
ATOM     18  C   UNL     1       5.948   4.046  13.556  0.00  0.00    +0.000 C 
ATOM     19  C   UNL     1       6.970   4.840  14.344  0.00  0.00    +0.000 C 
ENDBRANCH  17  19
ENDBRANCH   5  17
ENDBRANCH   1  11
BRANCH   3  20
ATOM     20  C   UNL     1       0.765   9.999  19.022  0.00  0.00    +0.000 A 
ATOM     21  C   UNL     1      -0.459  10.108  18.371  0.00  0.00    +0.000 A 
ATOM     22  C   UNL     1      -1.096  11.338  18.255  0.00  0.00    +0.000 A 
ATOM     23  C   UNL     1      -0.539  12.473  18.855  0.00  0.00    +0.000 A 
ATOM     24  C   UNL     1       0.685  12.388  19.538  0.00  0.00    +0.000 A 
ATOM     25  C   UNL     1       1.319  11.133  19.628  0.00  0.00    +0.000 A 
BRANCH  24  26
ATOM     26  C   UNL     1       1.299  13.593  20.098  0.00  0.00    +0.000 A 
ATOM     27  C   UNL     1       1.841  14.745  19.557  0.00  0.00    +0.000 A 
ATOM     28  C   UNL     1       2.330  15.520  20.639  0.00  0.00    +0.000 A 
ATOM     29  C   UNL     1       2.052  14.801  21.775  0.00  0.00    +0.000 A 
ATOM     30  O   UNL     1       1.425  13.637  21.461  0.00  0.00    +0.000 OA
ENDBRANCH  24  26
BRANCH  22  31
ATOM     31  C   UNL     1      -2.382  11.448  17.527  0.00  0.00    +0.000 C 
ATOM     32  O   UNL     1      -3.457  11.446  18.105  0.00  0.00    +0.000 OA
BRANCH  31  33
ATOM     33  O   UNL     1      -2.262  11.593  16.190  0.00  0.00    +0.000 OA
ATOM     34  H   UNL     1      -1.729  12.352  15.878  0.00  0.00    +0.000 HD
ENDBRANCH  31  33
ENDBRANCH  22  31
ENDBRANCH   3  20
TORSDOF 7
ENDMDL
MODEL 8
REMARK VINA RESULT:      -8.5      2.452      9.364
REMARK  Name = 
REMARK  9 active torsions:
REMARK  status: ('A' for Active; 'I' for Inactive)
REMARK    1  A    between atoms: C_1  and  C_2
REMARK    2  A    between atoms: C_2  and  O_3
REMARK    3  A    between atoms: O_3  and  C_4
REMARK    4  A    between atoms: C_10  and  C_11
REMARK    5  A    between atoms: N_13  and  C_14
REMARK    6  A    between atoms: C_16  and  C_17
REMARK    7  A    between atoms: C_17  and  O_19
REMARK    8  A    between atoms: C_21  and  C_22
REMARK    9  A    between atoms: C_30  and  C_31
REMARK                            x       y       z     vdW  Elec       q    Type
REMARK                         _______ _______ _______ _____ _____    ______ ____
ROOT
ATOM      1  C   UNL     1       1.268   8.841  20.394  0.00  0.00    +0.000 C 
ATOM      2  O   UNL     1       1.221   8.428  21.549  0.00  0.00    +0.000 OA
ATOM      3  N   UNL     1       1.889   8.190  19.336  0.00  0.00    +0.000 N 
ATOM      4  H   UNL     1       2.085   8.737  18.508  0.00  0.00    +0.000 HD
ENDROOT
BRANCH   1  11
ATOM      5  C   UNL     1      -1.983  10.411  17.369  0.00  0.00    +0.000 A 
ATOM      6  C   UNL     1      -2.117  11.791  17.441  0.00  0.00    +0.000 A 
ATOM      7  C   UNL     1      -1.367  12.543  18.347  0.00  0.00    +0.000 A 
ATOM      8  C   UNL     1      -0.449  11.890  19.186  0.00  0.00    +0.000 A 
ATOM      9  C   UNL     1      -0.277  10.503  19.112  0.00  0.00    +0.000 A 
ATOM     10  C   UNL     1      -1.073   9.762  18.208  0.00  0.00    +0.000 A 
ATOM     11  C   UNL     1       0.719  10.149  20.062  0.00  0.00    +0.000 A 
ATOM     12  C   UNL     1       1.078  11.316  20.714  0.00  0.00    +0.000 A 
ATOM     13  N   UNL     1       0.400  12.396  20.183  0.00  0.00    +0.000 N 
ATOM     14  C   UNL     1       0.508  13.761  20.554  0.00  0.00    +0.000 C 
ATOM     15  C   UNL     1       1.471  14.130  21.643  0.00  0.00    +0.000 C 
ATOM     16  O   UNL     1      -0.171  14.609  19.982  0.00  0.00    +0.000 OA
BRANCH   5  17
ATOM     17  O   UNL     1      -2.679   9.584  16.528  0.00  0.00    +0.000 OA
BRANCH  17  19
ATOM     18  C   UNL     1      -3.048  10.033  14.206  0.00  0.00    +0.000 C 
ATOM     19  C   UNL     1      -3.566  10.233  15.616  0.00  0.00    +0.000 C 
ENDBRANCH  17  19
ENDBRANCH   5  17
ENDBRANCH   1  11
BRANCH   3  20
ATOM     20  C   UNL     1       2.423   6.885  19.390  0.00  0.00    +0.000 A 
ATOM     21  C   UNL     1       1.837   5.899  20.177  0.00  0.00    +0.000 A 
ATOM     22  C   UNL     1       2.404   4.633  20.270  0.00  0.00    +0.000 A 
ATOM     23  C   UNL     1       3.539   4.318  19.516  0.00  0.00    +0.000 A 
ATOM     24  C   UNL     1       4.139   5.286  18.695  0.00  0.00    +0.000 A 
ATOM     25  C   UNL     1       3.555   6.568  18.629  0.00  0.00    +0.000 A 
BRANCH  24  26
ATOM     26  C   UNL     1       5.370   4.973  17.967  0.00  0.00    +0.000 A 
ATOM     27  C   UNL     1       5.653   4.529  16.688  0.00  0.00    +0.000 A 
ATOM     28  C   UNL     1       7.058   4.363  16.610  0.00  0.00    +0.000 A 
ATOM     29  C   UNL     1       7.552   4.722  17.840  0.00  0.00    +0.000 A 
ATOM     30  O   UNL     1       6.541   5.096  18.667  0.00  0.00    +0.000 OA
ENDBRANCH  24  26
BRANCH  22  31
ATOM     31  C   UNL     1       1.791   3.603  21.141  0.00  0.00    +0.000 C 
ATOM     32  O   UNL     1       2.283   3.280  22.210  0.00  0.00    +0.000 OA
BRANCH  31  33
ATOM     33  O   UNL     1       0.632   3.089  20.678  0.00  0.00    +0.000 OA
ATOM     34  H   UNL     1       0.192   3.581  19.956  0.00  0.00    +0.000 HD
ENDBRANCH  31  33
ENDBRANCH  22  31
ENDBRANCH   3  20
TORSDOF 7
ENDMDL
MODEL 9
REMARK VINA RESULT:      -8.5      0.886      1.211
REMARK  Name = 
REMARK  9 active torsions:
REMARK  status: ('A' for Active; 'I' for Inactive)
REMARK    1  A    between atoms: C_1  and  C_2
REMARK    2  A    between atoms: C_2  and  O_3
REMARK    3  A    between atoms: O_3  and  C_4
REMARK    4  A    between atoms: C_10  and  C_11
REMARK    5  A    between atoms: N_13  and  C_14
REMARK    6  A    between atoms: C_16  and  C_17
REMARK    7  A    between atoms: C_17  and  O_19
REMARK    8  A    between atoms: C_21  and  C_22
REMARK    9  A    between atoms: C_30  and  C_31
REMARK                            x       y       z     vdW  Elec       q    Type
REMARK                         _______ _______ _______ _____ _____    ______ ____
ROOT
ATOM      1  C   UNL     1       2.001   7.585  19.016  0.00  0.00    +0.000 C 
ATOM      2  O   UNL     1       1.975   7.834  20.217  0.00  0.00    +0.000 OA
ATOM      3  N   UNL     1       1.458   8.386  18.020  0.00  0.00    +0.000 N 
ATOM      4  H   UNL     1       1.313   7.960  17.113  0.00  0.00    +0.000 HD
ENDROOT
BRANCH   1  11
ATOM      5  C   UNL     1       6.000   6.319  16.872  0.00  0.00    +0.000 A 
ATOM      6  C   UNL     1       6.028   4.954  16.617  0.00  0.00    +0.000 A 
ATOM      7  C   UNL     1       4.975   4.125  17.008  0.00  0.00    +0.000 A 
ATOM      8  C   UNL     1       3.862   4.687  17.654  0.00  0.00    +0.000 A 
ATOM      9  C   UNL     1       3.800   6.065  17.898  0.00  0.00    +0.000 A 
ATOM     10  C   UNL     1       4.895   6.876  17.519  0.00  0.00    +0.000 A 
ATOM     11  C   UNL     1       2.561   6.324  18.542  0.00  0.00    +0.000 A 
ATOM     12  C   UNL     1       1.939   5.101  18.717  0.00  0.00    +0.000 A 
ATOM     13  N   UNL     1       2.699   4.088  18.163  0.00  0.00    +0.000 N 
ATOM     14  C   UNL     1       2.398   2.703  18.108  0.00  0.00    +0.000 C 
ATOM     15  C   UNL     1       1.103   2.230  18.699  0.00  0.00    +0.000 C 
ATOM     16  O   UNL     1       3.185   1.924  17.578  0.00  0.00    +0.000 OA
BRANCH   5  17
ATOM     17  O   UNL     1       6.984   7.212  16.542  0.00  0.00    +0.000 OA
BRANCH  17  19
ATOM     18  C   UNL     1       8.110   6.826  18.619  0.00  0.00    +0.000 C 
ATOM     19  C   UNL     1       7.615   7.872  17.640  0.00  0.00    +0.000 C 
ENDBRANCH  17  19
ENDBRANCH   5  17
ENDBRANCH   1  11
BRANCH   3  20
ATOM     20  C   UNL     1       0.933   9.680  18.218  0.00  0.00    +0.000 A 
ATOM     21  C   UNL     1       1.738  10.722  18.666  0.00  0.00    +0.000 A 
ATOM     22  C   UNL     1       1.200  11.980  18.917  0.00  0.00    +0.000 A 
ATOM     23  C   UNL     1      -0.152  12.226  18.655  0.00  0.00    +0.000 A 
ATOM     24  C   UNL     1      -0.984  11.199  18.181  0.00  0.00    +0.000 A 
ATOM     25  C   UNL     1      -0.418   9.928  17.950  0.00  0.00    +0.000 A 
BRANCH  24  26
ATOM     26  C   UNL     1      -2.413  11.443  17.981  0.00  0.00    +0.000 A 
ATOM     27  C   UNL     1      -3.456  11.824  18.807  0.00  0.00    +0.000 A 
ATOM     28  C   UNL     1      -4.629  11.835  18.012  0.00  0.00    +0.000 A 
ATOM     29  C   UNL     1      -4.235  11.468  16.749  0.00  0.00    +0.000 A 
ATOM     30  O   UNL     1      -2.898  11.233  16.718  0.00  0.00    +0.000 OA
ENDBRANCH  24  26
BRANCH  22  31
ATOM     31  C   UNL     1       2.060  13.072  19.429  0.00  0.00    +0.000 C 
ATOM     32  O   UNL     1       2.452  13.979  18.713  0.00  0.00    +0.000 OA
BRANCH  31  33
ATOM     33  O   UNL     1       2.335  13.002  20.749  0.00  0.00    +0.000 OA
ATOM     34  H   UNL     1       2.664  13.821  21.172  0.00  0.00    +0.000 HD
ENDBRANCH  31  33
ENDBRANCH  22  31
ENDBRANCH   3  20
TORSDOF 7
ENDMDL
