MODEL 1
REMARK VINA RESULT:      -7.9      0.000      0.000
REMARK  Name = 
REMARK  5 active torsions:
REMARK  status: ('A' for Active; 'I' for Inactive)
REMARK    1  A    between atoms: N_1  and  S_2
REMARK    2  A    between atoms: S_2  and  C_5
REMARK    3  A    between atoms: C_5  and  C_6
REMARK    4  A    between atoms: N_8  and  N_9
REMARK    5  A    between atoms: C_10  and  C_11
REMARK                            x       y       z     vdW  Elec       q    Type
REMARK                         _______ _______ _______ _____ _____    ______ ____
ROOT
ATOM      1  N   UNL     1       5.160   3.545  18.958  0.00  0.00    +0.000 NA
ATOM      2  C   UNL     1       5.169   4.648  18.278  0.00  0.00    +0.000 C 
ENDROOT
BRANCH   2   3
ATOM      3  C   UNL     1       5.866   4.716  16.962  0.00  0.00    +0.000 A 
ATOM      4  C   UNL     1       5.379   4.004  15.929  0.00  0.00    +0.000 A 
ATOM      5  C   UNL     1       5.979   4.096  14.598  0.00  0.00    +0.000 A 
ATOM      6  C   UNL     1       5.476   3.374  13.510  0.00  0.00    +0.000 A 
ATOM      7  C   UNL     1       6.060   3.516  12.249  0.00  0.00    +0.000 A 
ATOM      8  C   UNL     1       7.144   4.377  12.071  0.00  0.00    +0.000 A 
ATOM      9  C   UNL     1       7.653   5.096  13.153  0.00  0.00    +0.000 A 
ATOM     10  C   UNL     1       7.070   4.951  14.412  0.00  0.00    +0.000 A 
ATOM     11  N   UNL     1       7.579   5.661  15.507  0.00  0.00    +0.000 N 
ATOM     12  C   UNL     1       7.068   5.567  16.776  0.00  0.00    +0.000 A 
ATOM     13  O   UNL     1       7.573   6.175  17.716  0.00  0.00    +0.000 OA
ATOM     14  H   UNL     1       8.381   6.265  15.392  0.00  0.00    +0.000 HD
ENDBRANCH   2   3
BRANCH   1  17
ATOM     15  C   UNL     1       3.391   2.704  20.260  0.00  0.00    +0.000 C 
ATOM     16  O   UNL     1       2.765   2.637  21.312  0.00  0.00    +0.000 OA
ATOM     17  N   UNL     1       4.521   3.501  20.143  0.00  0.00    +0.000 N 
ATOM     18  H   UNL     1       4.845   4.012  20.960  0.00  0.00    +0.000 HD
BRANCH  15  19
ATOM     19  C   UNL     1       2.975   1.984  19.003  0.00  0.00    +0.000 C 
BRANCH  19  20
ATOM     20  S   UNL     1       1.614   2.862  18.267  0.00  0.00    +0.000 S 
ATOM     21  O   UNL     1       0.367   2.180  18.502  0.00  0.00    +0.000 OA
ATOM     22  O   UNL     1       1.961   3.406  16.975  0.00  0.00    +0.000 OA
BRANCH  20  23
ATOM     23  N   UNL     1       1.537   4.237  19.253  0.00  0.00    +0.000 NA
ATOM     24  H   UNL     1       2.477   4.639  19.306  0.00  0.00    +0.000 HD
ATOM     25  H   UNL     1       1.184   3.984  20.177  0.00  0.00    +0.000 HD
ENDBRANCH  20  23
ENDBRANCH  19  20
ENDBRANCH  15  19
ENDBRANCH   1  17
TORSDOF 5
ENDMDL
MODEL 2
REMARK VINA RESULT:      -7.9      1.360      1.540
REMARK  Name = 
REMARK  5 active torsions:
REMARK  status: ('A' for Active; 'I' for Inactive)
REMARK    1  A    between atoms: N_1  and  S_2
REMARK    2  A    between atoms: S_2  and  C_5
REMARK    3  A    between atoms: C_5  and  C_6
REMARK    4  A    between atoms: N_8  and  N_9
REMARK    5  A    between atoms: C_10  and  C_11
REMARK                            x       y       z     vdW  Elec       q    Type
REMARK                         _______ _______ _______ _____ _____    ______ ____
ROOT
ATOM      1  N   UNL     1       4.270   5.612  18.589  0.00  0.00    +0.000 NA
ATOM      2  C   UNL     1       5.141   4.706  18.273  0.00  0.00    +0.000 C 
ENDROOT
BRANCH   2   3
ATOM      3  C   UNL     1       5.848   4.766  16.963  0.00  0.00    +0.000 A 
ATOM      4  C   UNL     1       5.371   4.046  15.931  0.00  0.00    +0.000 A 
ATOM      5  C   UNL     1       5.983   4.128  14.604  0.00  0.00    +0.000 A 
ATOM      6  C   UNL     1       5.489   3.398  13.518  0.00  0.00    +0.000 A 
ATOM      7  C   UNL     1       6.084   3.531  12.260  0.00  0.00    +0.000 A 
ATOM      8  C   UNL     1       7.169   4.392  12.085  0.00  0.00    +0.000 A 
ATOM      9  C   UNL     1       7.668   5.120  13.167  0.00  0.00    +0.000 A 
ATOM     10  C   UNL     1       7.074   4.983  14.421  0.00  0.00    +0.000 A 
ATOM     11  N   UNL     1       7.573   5.702  15.516  0.00  0.00    +0.000 N 
ATOM     12  C   UNL     1       7.051   5.616  16.781  0.00  0.00    +0.000 A 
ATOM     13  O   UNL     1       7.548   6.231  17.721  0.00  0.00    +0.000 OA
ATOM     14  H   UNL     1       8.376   6.305  15.403  0.00  0.00    +0.000 HD
ENDBRANCH   2   3
BRANCH   1  17
ATOM     15  C   UNL     1       2.352   5.047  19.828  0.00  0.00    +0.000 C 
ATOM     16  O   UNL     1       1.735   4.975  20.885  0.00  0.00    +0.000 OA
ATOM     17  N   UNL     1       3.645   5.546  19.781  0.00  0.00    +0.000 N 
ATOM     18  H   UNL     1       4.093   5.826  20.650  0.00  0.00    +0.000 HD
BRANCH  15  19
ATOM     19  C   UNL     1       1.762   4.657  18.497  0.00  0.00    +0.000 C 
BRANCH  19  20
ATOM     20  S   UNL     1       1.645   2.883  18.424  0.00  0.00    +0.000 S 
ATOM     21  O   UNL     1       2.299   2.366  17.249  0.00  0.00    +0.000 OA
ATOM     22  O   UNL     1       0.349   2.411  18.852  0.00  0.00    +0.000 OA
BRANCH  20  23
ATOM     23  N   UNL     1       2.658   2.433  19.704  0.00  0.00    +0.000 NA
ATOM     24  H   UNL     1       2.066   2.140  20.486  0.00  0.00    +0.000 HD
ATOM     25  H   UNL     1       3.262   3.215  19.963  0.00  0.00    +0.000 HD
ENDBRANCH  20  23
ENDBRANCH  19  20
ENDBRANCH  15  19
ENDBRANCH   1  17
TORSDOF 5
ENDMDL
MODEL 3
REMARK VINA RESULT:      -7.6      1.193      1.425
REMARK  Name = 
REMARK  5 active torsions:
REMARK  status: ('A' for Active; 'I' for Inactive)
REMARK    1  A    between atoms: N_1  and  S_2
REMARK    2  A    between atoms: S_2  and  C_5
REMARK    3  A    between atoms: C_5  and  C_6
REMARK    4  A    between atoms: N_8  and  N_9
REMARK    5  A    between atoms: C_10  and  C_11
REMARK                            x       y       z     vdW  Elec       q    Type
REMARK                         _______ _______ _______ _____ _____    ______ ____
ROOT
ATOM      1  N   UNL     1       4.463   4.948  18.899  0.00  0.00    +0.000 NA
ATOM      2  C   UNL     1       4.639   5.834  17.970  0.00  0.00    +0.000 C 
ENDROOT
BRANCH   2   3
ATOM      3  C   UNL     1       5.469   5.516  16.773  0.00  0.00    +0.000 A 
ATOM      4  C   UNL     1       4.944   4.747  15.802  0.00  0.00    +0.000 A 
ATOM      5  C   UNL     1       5.688   4.468  14.573  0.00  0.00    +0.000 A 
ATOM      6  C   UNL     1       5.151   3.683  13.547  0.00  0.00    +0.000 A 
ATOM      7  C   UNL     1       5.883   3.469  12.376  0.00  0.00    +0.000 A 
ATOM      8  C   UNL     1       7.149   4.038  12.227  0.00  0.00    +0.000 A 
ATOM      9  C   UNL     1       7.691   4.819  13.249  0.00  0.00    +0.000 A 
ATOM     10  C   UNL     1       6.959   5.029  14.417  0.00  0.00    +0.000 A 
ATOM     11  N   UNL     1       7.498   5.804  15.453  0.00  0.00    +0.000 N 
ATOM     12  C   UNL     1       6.847   6.050  16.635  0.00  0.00    +0.000 A 
ATOM     13  O   UNL     1       7.376   6.698  17.534  0.00  0.00    +0.000 OA
ATOM     14  H   UNL     1       8.425   6.196  15.364  0.00  0.00    +0.000 HD
ENDBRANCH   2   3
BRANCH   1  17
ATOM     15  C   UNL     1       2.846   4.286  20.473  0.00  0.00    +0.000 C 
ATOM     16  O   UNL     1       2.126   4.514  21.439  0.00  0.00    +0.000 OA
ATOM     17  N   UNL     1       3.705   5.252  19.970  0.00  0.00    +0.000 N 
ATOM     18  H   UNL     1       3.754   6.153  20.438  0.00  0.00    +0.000 HD
BRANCH  15  19
ATOM     19  C   UNL     1       2.832   2.980  19.721  0.00  0.00    +0.000 C 
BRANCH  19  20
ATOM     20  S   UNL     1       1.497   3.013  18.546  0.00  0.00    +0.000 S 
ATOM     21  O   UNL     1       1.430   4.283  17.870  0.00  0.00    +0.000 OA
ATOM     22  O   UNL     1       0.318   2.350  19.051  0.00  0.00    +0.000 OA
BRANCH  20  23
ATOM     23  N   UNL     1       2.066   1.937  17.368  0.00  0.00    +0.000 NA
ATOM     24  H   UNL     1       2.806   1.370  17.793  0.00  0.00    +0.000 HD
ATOM     25  H   UNL     1       2.408   2.456  16.558  0.00  0.00    +0.000 HD
ENDBRANCH  20  23
ENDBRANCH  19  20
ENDBRANCH  15  19
ENDBRANCH   1  17
TORSDOF 5
ENDMDL
MODEL 4
REMARK VINA RESULT:      -7.5      4.685      7.732
REMARK  Name = 
REMARK  5 active torsions:
REMARK  status: ('A' for Active; 'I' for Inactive)
REMARK    1  A    between atoms: N_1  and  S_2
REMARK    2  A    between atoms: S_2  and  C_5
REMARK    3  A    between atoms: C_5  and  C_6
REMARK    4  A    between atoms: N_8  and  N_9
REMARK    5  A    between atoms: C_10  and  C_11
REMARK                            x       y       z     vdW  Elec       q    Type
REMARK                         _______ _______ _______ _____ _____    ______ ____
ROOT
ATOM      1  N   UNL     1       4.675   6.768  17.183  0.00  0.00    +0.000 NA
ATOM      2  C   UNL     1       3.414   6.539  17.374  0.00  0.00    +0.000 C 
ENDROOT
BRANCH   2   3
ATOM      3  C   UNL     1       2.702   7.159  18.528  0.00  0.00    +0.000 A 
ATOM      4  C   UNL     1       2.121   8.361  18.366  0.00  0.00    +0.000 A 
ATOM      5  C   UNL     1       1.345   8.977  19.443  0.00  0.00    +0.000 A 
ATOM      6  C   UNL     1       0.723  10.220  19.286  0.00  0.00    +0.000 A 
ATOM      7  C   UNL     1      -0.036  10.758  20.329  0.00  0.00    +0.000 A 
ATOM      8  C   UNL     1      -0.174  10.057  21.529  0.00  0.00    +0.000 A 
ATOM      9  C   UNL     1       0.449   8.818  21.693  0.00  0.00    +0.000 A 
ATOM     10  C   UNL     1       1.206   8.285  20.650  0.00  0.00    +0.000 A 
ATOM     11  N   UNL     1       1.844   7.047  20.807  0.00  0.00    +0.000 N 
ATOM     12  C   UNL     1       2.612   6.460  19.835  0.00  0.00    +0.000 A 
ATOM     13  O   UNL     1       3.189   5.394  20.032  0.00  0.00    +0.000 OA
ATOM     14  H   UNL     1       1.771   6.547  21.682  0.00  0.00    +0.000 HD
ENDBRANCH   2   3
BRANCH   1  17
ATOM     15  C   UNL     1       6.662   5.962  16.218  0.00  0.00    +0.000 C 
ATOM     16  O   UNL     1       7.282   5.461  15.285  0.00  0.00    +0.000 OA
ATOM     17  N   UNL     1       5.300   6.205  16.131  0.00  0.00    +0.000 N 
ATOM     18  H   UNL     1       4.808   5.931  15.284  0.00  0.00    +0.000 HD
BRANCH  15  19
ATOM     19  C   UNL     1       7.316   6.399  17.504  0.00  0.00    +0.000 C 
BRANCH  19  20
ATOM     20  S   UNL     1       7.567   4.969  18.531  0.00  0.00    +0.000 S 
ATOM     21  O   UNL     1       7.507   5.313  19.928  0.00  0.00    +0.000 OA
ATOM     22  O   UNL     1       8.588   4.096  17.998  0.00  0.00    +0.000 OA
BRANCH  20  23
ATOM     23  N   UNL     1       6.138   4.104  18.247  0.00  0.00    +0.000 NA
ATOM     24  H   UNL     1       5.424   4.769  17.939  0.00  0.00    +0.000 HD
ATOM     25  H   UNL     1       5.854   3.613  19.096  0.00  0.00    +0.000 HD
ENDBRANCH  20  23
ENDBRANCH  19  20
ENDBRANCH  15  19
ENDBRANCH   1  17
TORSDOF 5
ENDMDL
MODEL 5
REMARK VINA RESULT:      -7.1      4.838      7.843
REMARK  Name = 
REMARK  5 active torsions:
REMARK  status: ('A' for Active; 'I' for Inactive)
REMARK    1  A    between atoms: N_1  and  S_2
REMARK    2  A    between atoms: S_2  and  C_5
REMARK    3  A    between atoms: C_5  and  C_6
REMARK    4  A    between atoms: N_8  and  N_9
REMARK    5  A    between atoms: C_10  and  C_11
REMARK                            x       y       z     vdW  Elec       q    Type
REMARK                         _______ _______ _______ _____ _____    ______ ____
ROOT
ATOM      1  N   UNL     1       4.626   6.863  17.229  0.00  0.00    +0.000 NA
ATOM      2  C   UNL     1       3.336   6.782  17.325  0.00  0.00    +0.000 C 
ENDROOT
BRANCH   2   3
ATOM      3  C   UNL     1       2.632   7.349  18.511  0.00  0.00    +0.000 A 
ATOM      4  C   UNL     1       2.052   8.558  18.408  0.00  0.00    +0.000 A 
ATOM      5  C   UNL     1       1.284   9.125  19.517  0.00  0.00    +0.000 A 
ATOM      6  C   UNL     1       0.661  10.374  19.421  0.00  0.00    +0.000 A 
ATOM      7  C   UNL     1      -0.090  10.864  20.493  0.00  0.00    +0.000 A 
ATOM      8  C   UNL     1      -0.222  10.109  21.659  0.00  0.00    +0.000 A 
ATOM      9  C   UNL     1       0.400   8.864  21.762  0.00  0.00    +0.000 A 
ATOM     10  C   UNL     1       1.151   8.379  20.692  0.00  0.00    +0.000 A 
ATOM     11  N   UNL     1       1.788   7.134  20.788  0.00  0.00    +0.000 N 
ATOM     12  C   UNL     1       2.550   6.592  19.786  0.00  0.00    +0.000 A 
ATOM     13  O   UNL     1       3.126   5.517  19.929  0.00  0.00    +0.000 OA
ATOM     14  H   UNL     1       1.720   6.594  21.640  0.00  0.00    +0.000 HD
ENDBRANCH   2   3
BRANCH   1  17
ATOM     15  C   UNL     1       6.601   6.074  16.225  0.00  0.00    +0.000 C 
ATOM     16  O   UNL     1       7.214   5.617  15.266  0.00  0.00    +0.000 OA
ATOM     17  N   UNL     1       5.244   6.351  16.148  0.00  0.00    +0.000 N 
ATOM     18  H   UNL     1       4.751   6.140  15.284  0.00  0.00    +0.000 HD
BRANCH  15  19
ATOM     19  C   UNL     1       7.256   6.418  17.538  0.00  0.00    +0.000 C 
BRANCH  19  20
ATOM     20  S   UNL     1       7.494   4.920  18.467  0.00  0.00    +0.000 S 
ATOM     21  O   UNL     1       8.502   4.087  17.863  0.00  0.00    +0.000 OA
ATOM     22  O   UNL     1       6.243   4.383  18.951  0.00  0.00    +0.000 OA
BRANCH  20  23
ATOM     23  N   UNL     1       8.225   5.516  19.874  0.00  0.00    +0.000 NA
ATOM     24  H   UNL     1       8.559   4.716  20.417  0.00  0.00    +0.000 HD
ATOM     25  H   UNL     1       7.555   6.076  20.403  0.00  0.00    +0.000 HD
ENDBRANCH  20  23
ENDBRANCH  19  20
ENDBRANCH  15  19
ENDBRANCH   1  17
TORSDOF 5
ENDMDL
MODEL 6
REMARK VINA RESULT:      -6.9      5.309      7.575
REMARK  Name = 
REMARK  5 active torsions:
REMARK  status: ('A' for Active; 'I' for Inactive)
REMARK    1  A    between atoms: N_1  and  S_2
REMARK    2  A    between atoms: S_2  and  C_5
REMARK    3  A    between atoms: C_5  and  C_6
REMARK    4  A    between atoms: N_8  and  N_9
REMARK    5  A    between atoms: C_10  and  C_11
REMARK                            x       y       z     vdW  Elec       q    Type
REMARK                         _______ _______ _______ _____ _____    ______ ____
ROOT
ATOM      1  N   UNL     1       3.402   5.941  19.808  0.00  0.00    +0.000 NA
ATOM      2  C   UNL     1       3.020   6.856  18.974  0.00  0.00    +0.000 C 
ENDROOT
BRANCH   2   3
ATOM      3  C   UNL     1       2.078   7.926  19.409  0.00  0.00    +0.000 A 
ATOM      4  C   UNL     1       1.594   7.898  20.664  0.00  0.00    +0.000 A 
ATOM      5  C   UNL     1       0.727   8.966  21.164  0.00  0.00    +0.000 A 
ATOM      6  C   UNL     1       0.228   8.959  22.471  0.00  0.00    +0.000 A 
ATOM      7  C   UNL     1      -0.570  10.016  22.918  0.00  0.00    +0.000 A 
ATOM      8  C   UNL     1      -0.870  11.078  22.064  0.00  0.00    +0.000 A 
ATOM      9  C   UNL     1      -0.378  11.088  20.757  0.00  0.00    +0.000 A 
ATOM     10  C   UNL     1       0.417  10.031  20.314  0.00  0.00    +0.000 A 
ATOM     11  N   UNL     1       0.908  10.026  19.001  0.00  0.00    +0.000 N 
ATOM     12  C   UNL     1       1.687   9.022  18.486  0.00  0.00    +0.000 A 
ATOM     13  O   UNL     1       2.060   9.036  17.316  0.00  0.00    +0.000 OA
ATOM     14  H   UNL     1       0.672  10.777  18.369  0.00  0.00    +0.000 HD
ENDBRANCH   2   3
BRANCH   1  17
ATOM     15  C   UNL     1       3.832   3.665  19.394  0.00  0.00    +0.000 C 
ATOM     16  O   UNL     1       4.575   2.756  19.041  0.00  0.00    +0.000 OA
ATOM     17  N   UNL     1       4.259   4.985  19.398  0.00  0.00    +0.000 N 
ATOM     18  H   UNL     1       5.199   5.196  19.072  0.00  0.00    +0.000 HD
BRANCH  15  19
ATOM     19  C   UNL     1       2.428   3.439  19.895  0.00  0.00    +0.000 C 
BRANCH  19  20
ATOM     20  S   UNL     1       1.400   2.979  18.518  0.00  0.00    +0.000 S 
ATOM     21  O   UNL     1       1.402   3.999  17.502  0.00  0.00    +0.000 OA
ATOM     22  O   UNL     1       0.184   2.327  18.949  0.00  0.00    +0.000 OA
BRANCH  20  23
ATOM     23  N   UNL     1       2.297   1.709  17.846  0.00  0.00    +0.000 NA
ATOM     24  H   UNL     1       3.089   2.117  17.342  0.00  0.00    +0.000 HD
ATOM     25  H   UNL     1       1.704   1.154  17.227  0.00  0.00    +0.000 HD
ENDBRANCH  20  23
ENDBRANCH  19  20
ENDBRANCH  15  19
ENDBRANCH   1  17
TORSDOF 5
ENDMDL
MODEL 7
REMARK VINA RESULT:      -6.9      2.181      2.345
REMARK  Name = 
REMARK  5 active torsions:
REMARK  status: ('A' for Active; 'I' for Inactive)
REMARK    1  A    between atoms: N_1  and  S_2
REMARK    2  A    between atoms: S_2  and  C_5
REMARK    3  A    between atoms: C_5  and  C_6
REMARK    4  A    between atoms: N_8  and  N_9
REMARK    5  A    between atoms: C_10  and  C_11
REMARK                            x       y       z     vdW  Elec       q    Type
REMARK                         _______ _______ _______ _____ _____    ______ ____
ROOT
ATOM      1  N   UNL     1       3.709   3.702  17.578  0.00  0.00    +0.000 NA
ATOM      2  C   UNL     1       4.991   3.857  17.686  0.00  0.00    +0.000 C 
ENDROOT
BRANCH   2   3
ATOM      3  C   UNL     1       5.810   4.218  16.494  0.00  0.00    +0.000 A 
ATOM      4  C   UNL     1       5.545   3.623  15.316  0.00  0.00    +0.000 A 
ATOM      5  C   UNL     1       6.268   3.997  14.101  0.00  0.00    +0.000 A 
ATOM      6  C   UNL     1       5.994   3.399  12.866  0.00  0.00    +0.000 A 
ATOM      7  C   UNL     1       6.685   3.808  11.723  0.00  0.00    +0.000 A 
ATOM      8  C   UNL     1       7.650   4.814  11.810  0.00  0.00    +0.000 A 
ATOM      9  C   UNL     1       7.930   5.412  13.041  0.00  0.00    +0.000 A 
ATOM     10  C   UNL     1       7.239   4.999  14.179  0.00  0.00    +0.000 A 
ATOM     11  N   UNL     1       7.520   5.585  15.421  0.00  0.00    +0.000 N 
ATOM     12  C   UNL     1       6.892   5.230  16.587  0.00  0.00    +0.000 A 
ATOM     13  O   UNL     1       7.201   5.739  17.661  0.00  0.00    +0.000 OA
ATOM     14  H   UNL     1       8.236   6.294  15.497  0.00  0.00    +0.000 HD
ENDBRANCH   2   3
BRANCH   1  17
ATOM     15  C   UNL     1       1.924   4.201  19.026  0.00  0.00    +0.000 C 
ATOM     16  O   UNL     1       1.240   3.963  20.015  0.00  0.00    +0.000 OA
ATOM     17  N   UNL     1       2.985   3.382  18.667  0.00  0.00    +0.000 N 
ATOM     18  H   UNL     1       3.172   2.553  19.226  0.00  0.00    +0.000 HD
BRANCH  15  19
ATOM     19  C   UNL     1       1.717   5.410  18.149  0.00  0.00    +0.000 C 
BRANCH  19  20
ATOM     20  S   UNL     1       2.715   6.744  18.773  0.00  0.00    +0.000 S 
ATOM     21  O   UNL     1       1.908   7.728  19.446  0.00  0.00    +0.000 OA
ATOM     22  O   UNL     1       3.762   7.112  17.848  0.00  0.00    +0.000 OA
BRANCH  20  23
ATOM     23  N   UNL     1       3.561   5.968  20.019  0.00  0.00    +0.000 NA
ATOM     24  H   UNL     1       4.054   5.168  19.613  0.00  0.00    +0.000 HD
ATOM     25  H   UNL     1       2.912   5.677  20.752  0.00  0.00    +0.000 HD
ENDBRANCH  20  23
ENDBRANCH  19  20
ENDBRANCH  15  19
ENDBRANCH   1  17
TORSDOF 5
ENDMDL
MODEL 8
REMARK VINA RESULT:      -6.9      4.511      7.347
REMARK  Name = 
REMARK  5 active torsions:
REMARK  status: ('A' for Active; 'I' for Inactive)
REMARK    1  A    between atoms: N_1  and  S_2
REMARK    2  A    between atoms: S_2  and  C_5
REMARK    3  A    between atoms: C_5  and  C_6
REMARK    4  A    between atoms: N_8  and  N_9
REMARK    5  A    between atoms: C_10  and  C_11
REMARK                            x       y       z     vdW  Elec       q    Type
REMARK                         _______ _______ _______ _____ _____    ______ ____
ROOT
ATOM      1  N   UNL     1       3.667   5.355  17.225  0.00  0.00    +0.000 NA
ATOM      2  C   UNL     1       3.172   5.211  18.413  0.00  0.00    +0.000 C 
ENDROOT
BRANCH   2   3
ATOM      3  C   UNL     1       2.543   6.367  19.113  0.00  0.00    +0.000 A 
ATOM      4  C   UNL     1       2.410   7.533  18.455  0.00  0.00    +0.000 A 
ATOM      5  C   UNL     1       1.731   8.674  19.069  0.00  0.00    +0.000 A 
ATOM      6  C   UNL     1       1.571   9.889  18.394  0.00  0.00    +0.000 A 
ATOM      7  C   UNL     1       0.887  10.943  19.005  0.00  0.00    +0.000 A 
ATOM      8  C   UNL     1       0.362  10.787  20.289  0.00  0.00    +0.000 A 
ATOM      9  C   UNL     1       0.522   9.578  20.970  0.00  0.00    +0.000 A 
ATOM     10  C   UNL     1       1.207   8.529  20.357  0.00  0.00    +0.000 A 
ATOM     11  N   UNL     1       1.381   7.315  21.035  0.00  0.00    +0.000 N 
ATOM     12  C   UNL     1       2.049   6.240  20.507  0.00  0.00    +0.000 A 
ATOM     13  O   UNL     1       2.217   5.210  21.154  0.00  0.00    +0.000 OA
ATOM     14  H   UNL     1       1.029   7.204  21.976  0.00  0.00    +0.000 HD
ENDBRANCH   2   3
BRANCH   1  17
ATOM     15  C   UNL     1       5.581   4.338  16.310  0.00  0.00    +0.000 C 
ATOM     16  O   UNL     1       6.137   3.407  15.738  0.00  0.00    +0.000 OA
ATOM     17  N   UNL     1       4.227   4.297  16.606  0.00  0.00    +0.000 N 
ATOM     18  H   UNL     1       3.700   3.461  16.367  0.00  0.00    +0.000 HD
BRANCH  15  19
ATOM     19  C   UNL     1       6.287   5.613  16.694  0.00  0.00    +0.000 C 
BRANCH  19  20
ATOM     20  S   UNL     1       7.180   5.336  18.207  0.00  0.00    +0.000 S 
ATOM     21  O   UNL     1       6.342   4.717  19.201  0.00  0.00    +0.000 OA
ATOM     22  O   UNL     1       8.060   6.438  18.523  0.00  0.00    +0.000 OA
BRANCH  20  23
ATOM     23  N   UNL     1       8.254   4.113  17.738  0.00  0.00    +0.000 NA
ATOM     24  H   UNL     1       8.271   4.086  16.715  0.00  0.00    +0.000 HD
ATOM     25  H   UNL     1       7.956   3.219  18.132  0.00  0.00    +0.000 HD
ENDBRANCH  20  23
ENDBRANCH  19  20
ENDBRANCH  15  19
ENDBRANCH   1  17
TORSDOF 5
ENDMDL
MODEL 9
REMARK VINA RESULT:      -6.8      5.059      6.541
REMARK  Name = 
REMARK  5 active torsions:
REMARK  status: ('A' for Active; 'I' for Inactive)
REMARK    1  A    between atoms: N_1  and  S_2
REMARK    2  A    between atoms: S_2  and  C_5
REMARK    3  A    between atoms: C_5  and  C_6
REMARK    4  A    between atoms: N_8  and  N_9
REMARK    5  A    between atoms: C_10  and  C_11
REMARK                            x       y       z     vdW  Elec       q    Type
REMARK                         _______ _______ _______ _____ _____    ______ ____
ROOT
ATOM      1  N   UNL     1       1.686   8.860  18.082  0.00  0.00    +0.000 NA
ATOM      2  C   UNL     1       2.879   8.410  17.849  0.00  0.00    +0.000 C 
ENDROOT
BRANCH   2   3
ATOM      3  C   UNL     1       3.146   6.943  17.858  0.00  0.00    +0.000 A 
ATOM      4  C   UNL     1       2.170   6.105  18.252  0.00  0.00    +0.000 A 
ATOM      5  C   UNL     1       2.356   4.655  18.206  0.00  0.00    +0.000 A 
ATOM      6  C   UNL     1       1.346   3.769  18.598  0.00  0.00    +0.000 A 
ATOM      7  C   UNL     1       1.553   2.390  18.508  0.00  0.00    +0.000 A 
ATOM      8  C   UNL     1       2.766   1.894  18.027  0.00  0.00    +0.000 A 
ATOM      9  C   UNL     1       3.779   2.773  17.639  0.00  0.00    +0.000 A 
ATOM     10  C   UNL     1       3.570   4.148  17.732  0.00  0.00    +0.000 A 
ATOM     11  N   UNL     1       4.583   5.039  17.354  0.00  0.00    +0.000 N 
ATOM     12  C   UNL     1       4.459   6.403  17.424  0.00  0.00    +0.000 A 
ATOM     13  O   UNL     1       5.389   7.147  17.123  0.00  0.00    +0.000 OA
ATOM     14  H   UNL     1       5.473   4.687  17.032  0.00  0.00    +0.000 HD
ENDBRANCH   2   3
BRANCH   1  17
ATOM     15  C   UNL     1       0.484  10.711  18.897  0.00  0.00    +0.000 C 
ATOM     16  O   UNL     1       0.233  11.911  18.911  0.00  0.00    +0.000 OA
ATOM     17  N   UNL     1       1.463  10.188  18.064  0.00  0.00    +0.000 N 
ATOM     18  H   UNL     1       1.998  10.825  17.479  0.00  0.00    +0.000 HD
BRANCH  15  19
ATOM     19  C   UNL     1      -0.263   9.699  19.728  0.00  0.00    +0.000 C 
BRANCH  19  20
ATOM     20  S   UNL     1       0.436   9.679  21.364  0.00  0.00    +0.000 S 
ATOM     21  O   UNL     1      -0.519   9.204  22.332  0.00  0.00    +0.000 OA
ATOM     22  O   UNL     1       1.268  10.834  21.608  0.00  0.00    +0.000 OA
BRANCH  20  23
ATOM     23  N   UNL     1       1.560   8.420  21.226  0.00  0.00    +0.000 NA
ATOM     24  H   UNL     1       2.210   8.660  20.473  0.00  0.00    +0.000 HD
ATOM     25  H   UNL     1       1.077   7.540  21.040  0.00  0.00    +0.000 HD
ENDBRANCH  20  23
ENDBRANCH  19  20
ENDBRANCH  15  19
ENDBRANCH   1  17
TORSDOF 5
ENDMDL
