MODEL 1
REMARK VINA RESULT:      -8.5      0.000      0.000
REMARK  Name = 
REMARK  7 active torsions:
REMARK  status: ('A' for Active; 'I' for Inactive)
REMARK    1  A    between atoms: C_1  and  C_2
REMARK    2  A    between atoms: C_2  and  O_3
REMARK    3  A    between atoms: O_3  and  C_4
REMARK    4  A    between atoms: C_7  and  C_8
REMARK    5  A    between atoms: C_10  and  C_11
REMARK    6  A    between atoms: C_19  and  O_20
REMARK    7  A    between atoms: C_24  and  C_25
REMARK                            x       y       z     vdW  Elec       q    Type
REMARK                         _______ _______ _______ _____ _____    ______ ____
ROOT
ATOM      1  C   UNL     1       2.704   6.284  19.360  0.00  0.00    +0.000 A 
ATOM      2  N   UNL     1       2.387   7.560  19.346  0.00  0.00    +0.000 NA
ATOM      3  C   UNL     1       1.543   7.692  20.444  0.00  0.00    +0.000 A 
ATOM      4  N   UNL     1       1.302   6.523  21.070  0.00  0.00    +0.000 NA
ATOM      5  O   UNL     1       2.068   5.596  20.352  0.00  0.00    +0.000 OA
ENDROOT
BRANCH   3   6
ATOM      6  C   UNL     1       1.220   9.017  20.990  0.00  0.00    +0.000 A 
ATOM      7  C   UNL     1       1.049   9.114  22.374  0.00  0.00    +0.000 A 
ATOM      8  C   UNL     1       0.009   9.890  22.899  0.00  0.00    +0.000 A 
ATOM      9  C   UNL     1      -0.923  10.500  22.051  0.00  0.00    +0.000 A 
ATOM     10  C   UNL     1      -0.678  10.493  20.686  0.00  0.00    +0.000 A 
ATOM     11  C   UNL     1       0.518   9.937  20.214  0.00  0.00    +0.000 A 
ATOM     12  C   UNL     1       1.154  11.114  19.476  0.00  0.00    +0.000 C 
ATOM     13  C   UNL     1      -0.060  11.827  18.850  0.00  0.00    +0.000 C 
ATOM     14  C   UNL     1      -1.302  11.297  19.585  0.00  0.00    +0.000 C 
BRANCH  14  15
ATOM     15  O   UNL     1      -2.145  12.341  20.020  0.00  0.00    +0.000 OA
ATOM     16  H   UNL     1      -2.244  12.952  19.272  0.00  0.00    +0.000 HD
ENDBRANCH  14  15
ENDBRANCH   3   6
BRANCH   1  20
ATOM     17  C   UNL     1       5.456   4.266  16.734  0.00  0.00    +0.000 A 
ATOM     18  C   UNL     1       4.082   4.023  16.642  0.00  0.00    +0.000 A 
ATOM     19  C   UNL     1       3.173   4.652  17.508  0.00  0.00    +0.000 A 
ATOM     20  C   UNL     1       3.621   5.540  18.494  0.00  0.00    +0.000 A 
ATOM     21  C   UNL     1       5.008   5.701  18.636  0.00  0.00    +0.000 A 
ATOM     22  C   UNL     1       5.941   5.064  17.776  0.00  0.00    +0.000 A 
BRANCH  22  23
ATOM     23  C   UNL     1       7.408   5.306  18.016  0.00  0.00    +0.000 C 
ATOM     24  F   UNL     1       8.248   4.258  17.786  0.00  0.00    +0.000 F 
ATOM     25  F   UNL     1       7.885   6.326  17.241  0.00  0.00    +0.000 F 
ATOM     26  F   UNL     1       7.659   5.690  19.305  0.00  0.00    +0.000 F 
ENDBRANCH  22  23
BRANCH  17  27
ATOM     27  O   UNL     1       6.354   3.730  15.854  0.00  0.00    +0.000 OA
BRANCH  27  29
ATOM     28  C   UNL     1       6.113   3.792  13.468  0.00  0.00    +0.000 C 
ATOM     29  C   UNL     1       6.649   4.503  14.696  0.00  0.00    +0.000 C 
ENDBRANCH  27  29
ENDBRANCH  17  27
ENDBRANCH   1  20
TORSDOF 6
ENDMDL
MODEL 2
REMARK VINA RESULT:      -8.4      4.272      9.312
REMARK  Name = 
REMARK  7 active torsions:
REMARK  status: ('A' for Active; 'I' for Inactive)
REMARK    1  A    between atoms: C_1  and  C_2
REMARK    2  A    between atoms: C_2  and  O_3
REMARK    3  A    between atoms: O_3  and  C_4
REMARK    4  A    between atoms: C_7  and  C_8
REMARK    5  A    between atoms: C_10  and  C_11
REMARK    6  A    between atoms: C_19  and  O_20
REMARK    7  A    between atoms: C_24  and  C_25
REMARK                            x       y       z     vdW  Elec       q    Type
REMARK                         _______ _______ _______ _____ _____    ______ ____
ROOT
ATOM      1  C   UNL     1       1.064   9.575  18.709  0.00  0.00    +0.000 A 
ATOM      2  N   UNL     1       1.215   8.314  19.045  0.00  0.00    +0.000 NA
ATOM      3  C   UNL     1       2.232   7.877  18.202  0.00  0.00    +0.000 A 
ATOM      4  N   UNL     1       2.644   8.824  17.336  0.00  0.00    +0.000 NA
ATOM      5  O   UNL     1       1.872   9.942  17.673  0.00  0.00    +0.000 OA
ENDROOT
BRANCH   3   6
ATOM      6  C   UNL     1       2.940   6.617  18.467  0.00  0.00    +0.000 A 
ATOM      7  C   UNL     1       4.148   6.410  17.795  0.00  0.00    +0.000 A 
ATOM      8  C   UNL     1       4.443   5.151  17.257  0.00  0.00    +0.000 A 
ATOM      9  C   UNL     1       3.500   4.118  17.302  0.00  0.00    +0.000 A 
ATOM     10  C   UNL     1       2.358   4.299  18.068  0.00  0.00    +0.000 A 
ATOM     11  C   UNL     1       2.222   5.475  18.816  0.00  0.00    +0.000 A 
ATOM     12  C   UNL     1       2.081   4.941  20.240  0.00  0.00    +0.000 C 
ATOM     13  C   UNL     1       1.263   3.650  20.046  0.00  0.00    +0.000 C 
ATOM     14  C   UNL     1       1.346   3.303  18.551  0.00  0.00    +0.000 C 
BRANCH  14  15
ATOM     15  O   UNL     1       1.698   1.953  18.339  0.00  0.00    +0.000 OA
ATOM     16  H   UNL     1       2.668   1.919  18.299  0.00  0.00    +0.000 HD
ENDBRANCH  14  15
ENDBRANCH   3   6
BRANCH   1  20
ATOM     17  C   UNL     1      -1.637  12.438  20.454  0.00  0.00    +0.000 A 
ATOM     18  C   UNL     1      -1.346  12.482  19.086  0.00  0.00    +0.000 A 
ATOM     19  C   UNL     1      -0.447  11.573  18.507  0.00  0.00    +0.000 A 
ATOM     20  C   UNL     1       0.188  10.598  19.286  0.00  0.00    +0.000 A 
ATOM     21  C   UNL     1      -0.042  10.626  20.669  0.00  0.00    +0.000 A 
ATOM     22  C   UNL     1      -0.940  11.546  21.274  0.00  0.00    +0.000 A 
BRANCH  22  23
ATOM     23  C   UNL     1      -1.113  11.491  22.769  0.00  0.00    +0.000 C 
ATOM     24  F   UNL     1      -2.362  11.201  23.231  0.00  0.00    +0.000 F 
ATOM     25  F   UNL     1      -0.294  10.556  23.338  0.00  0.00    +0.000 F 
ATOM     26  F   UNL     1      -0.775  12.673  23.367  0.00  0.00    +0.000 F 
ENDBRANCH  22  23
BRANCH  17  27
ATOM     27  O   UNL     1      -2.568  13.258  21.029  0.00  0.00    +0.000 OA
BRANCH  27  29
ATOM     28  C   UNL     1      -4.812  12.842  21.767  0.00  0.00    +0.000 C 
ATOM     29  C   UNL     1      -3.910  13.114  20.579  0.00  0.00    +0.000 C 
ENDBRANCH  27  29
ENDBRANCH  17  27
ENDBRANCH   1  20
TORSDOF 6
ENDMDL
MODEL 3
REMARK VINA RESULT:      -8.4      3.859      9.199
REMARK  Name = 
REMARK  7 active torsions:
REMARK  status: ('A' for Active; 'I' for Inactive)
REMARK    1  A    between atoms: C_1  and  C_2
REMARK    2  A    between atoms: C_2  and  O_3
REMARK    3  A    between atoms: O_3  and  C_4
REMARK    4  A    between atoms: C_7  and  C_8
REMARK    5  A    between atoms: C_10  and  C_11
REMARK    6  A    between atoms: C_19  and  O_20
REMARK    7  A    between atoms: C_24  and  C_25
REMARK                            x       y       z     vdW  Elec       q    Type
REMARK                         _______ _______ _______ _____ _____    ______ ____
ROOT
ATOM      1  C   UNL     1       1.440   7.711  20.527  0.00  0.00    +0.000 A 
ATOM      2  N   UNL     1       2.229   7.677  19.476  0.00  0.00    +0.000 NA
ATOM      3  C   UNL     1       2.643   6.350  19.429  0.00  0.00    +0.000 A 
ATOM      4  N   UNL     1       2.173   5.612  20.454  0.00  0.00    +0.000 NA
ATOM      5  O   UNL     1       1.380   6.512  21.176  0.00  0.00    +0.000 OA
ENDROOT
BRANCH   3   6
ATOM      6  C   UNL     1       3.274   5.801  18.221  0.00  0.00    +0.000 A 
ATOM      7  C   UNL     1       2.653   4.701  17.620  0.00  0.00    +0.000 A 
ATOM      8  C   UNL     1       3.426   3.637  17.140  0.00  0.00    +0.000 A 
ATOM      9  C   UNL     1       4.811   3.616  17.338  0.00  0.00    +0.000 A 
ATOM     10  C   UNL     1       5.426   4.758  17.830  0.00  0.00    +0.000 A 
ATOM     11  C   UNL     1       4.652   5.906  18.047  0.00  0.00    +0.000 A 
ATOM     12  C   UNL     1       5.338   6.934  17.149  0.00  0.00    +0.000 C 
ATOM     13  C   UNL     1       6.827   6.563  17.272  0.00  0.00    +0.000 C 
ATOM     14  C   UNL     1       6.875   5.143  17.859  0.00  0.00    +0.000 C 
BRANCH  14  15
ATOM     15  O   UNL     1       7.727   4.294  17.124  0.00  0.00    +0.000 OA
ATOM     16  H   UNL     1       8.518   4.812  16.903  0.00  0.00    +0.000 HD
ENDBRANCH  14  15
ENDBRANCH   3   6
BRANCH   1  20
ATOM     17  C   UNL     1      -0.764  11.083  22.045  0.00  0.00    +0.000 A 
ATOM     18  C   UNL     1      -0.357  10.058  22.906  0.00  0.00    +0.000 A 
ATOM     19  C   UNL     1       0.338   8.939  22.422  0.00  0.00    +0.000 A 
ATOM     20  C   UNL     1       0.641   8.816  21.061  0.00  0.00    +0.000 A 
ATOM     21  C   UNL     1       0.145   9.805  20.198  0.00  0.00    +0.000 A 
ATOM     22  C   UNL     1      -0.570  10.938  20.668  0.00  0.00    +0.000 A 
BRANCH  22  23
ATOM     23  C   UNL     1      -1.058  11.941  19.656  0.00  0.00    +0.000 C 
ATOM     24  F   UNL     1      -0.677  13.236  19.842  0.00  0.00    +0.000 F 
ATOM     25  F   UNL     1      -0.646  11.623  18.391  0.00  0.00    +0.000 F 
ATOM     26  F   UNL     1      -2.424  11.975  19.587  0.00  0.00    +0.000 F 
ENDBRANCH  22  23
BRANCH  17  27
ATOM     27  O   UNL     1      -1.371  12.221  22.500  0.00  0.00    +0.000 OA
BRANCH  27  29
ATOM     28  C   UNL     1      -3.700  12.795  22.530  0.00  0.00    +0.000 C 
ATOM     29  C   UNL     1      -2.581  12.049  23.229  0.00  0.00    +0.000 C 
ENDBRANCH  27  29
ENDBRANCH  17  27
ENDBRANCH   1  20
TORSDOF 6
ENDMDL
MODEL 4
REMARK VINA RESULT:      -8.3      4.074      9.302
REMARK  Name = 
REMARK  7 active torsions:
REMARK  status: ('A' for Active; 'I' for Inactive)
REMARK    1  A    between atoms: C_1  and  C_2
REMARK    2  A    between atoms: C_2  and  O_3
REMARK    3  A    between atoms: O_3  and  C_4
REMARK    4  A    between atoms: C_7  and  C_8
REMARK    5  A    between atoms: C_10  and  C_11
REMARK    6  A    between atoms: C_19  and  O_20
REMARK    7  A    between atoms: C_24  and  C_25
REMARK                            x       y       z     vdW  Elec       q    Type
REMARK                         _______ _______ _______ _____ _____    ______ ____
ROOT
ATOM      1  C   UNL     1       1.401   8.533  19.674  0.00  0.00    +0.000 A 
ATOM      2  N   UNL     1       2.188   8.197  18.676  0.00  0.00    +0.000 NA
ATOM      3  C   UNL     1       2.665   6.945  19.052  0.00  0.00    +0.000 A 
ATOM      4  N   UNL     1       2.233   6.558  20.268  0.00  0.00    +0.000 NA
ATOM      5  O   UNL     1       1.400   7.607  20.676  0.00  0.00    +0.000 OA
ENDROOT
BRANCH   3   6
ATOM      6  C   UNL     1       3.317   6.063  18.074  0.00  0.00    +0.000 A 
ATOM      7  C   UNL     1       2.645   4.887  17.726  0.00  0.00    +0.000 A 
ATOM      8  C   UNL     1       3.356   3.689  17.592  0.00  0.00    +0.000 A 
ATOM      9  C   UNL     1       4.721   3.631  17.894  0.00  0.00    +0.000 A 
ATOM     10  C   UNL     1       5.397   4.821  18.125  0.00  0.00    +0.000 A 
ATOM     11  C   UNL     1       4.707   6.032  17.984  0.00  0.00    +0.000 A 
ATOM     12  C   UNL     1       5.524   6.748  16.910  0.00  0.00    +0.000 C 
ATOM     13  C   UNL     1       6.969   6.328  17.236  0.00  0.00    +0.000 C 
ATOM     14  C   UNL     1       6.868   5.108  18.166  0.00  0.00    +0.000 C 
BRANCH  14  15
ATOM     15  O   UNL     1       7.690   4.045  17.737  0.00  0.00    +0.000 OA
ATOM     16  H   UNL     1       7.819   4.158  16.781  0.00  0.00    +0.000 HD
ENDBRANCH  14  15
ENDBRANCH   3   6
BRANCH   1  20
ATOM     17  C   UNL     1      -1.242  11.889  20.211  0.00  0.00    +0.000 A 
ATOM     18  C   UNL     1      -0.730  11.587  18.945  0.00  0.00    +0.000 A 
ATOM     19  C   UNL     1       0.155  10.513  18.758  0.00  0.00    +0.000 A 
ATOM     20  C   UNL     1       0.552   9.715  19.837  0.00  0.00    +0.000 A 
ATOM     21  C   UNL     1       0.105  10.087  21.114  0.00  0.00    +0.000 A 
ATOM     22  C   UNL     1      -0.781  11.177  21.324  0.00  0.00    +0.000 A 
BRANCH  22  23
ATOM     23  C   UNL     1      -1.200  11.491  22.736  0.00  0.00    +0.000 C 
ATOM     24  F   UNL     1      -2.539  11.531  22.984  0.00  0.00    +0.000 F 
ATOM     25  F   UNL     1      -0.696  10.583  23.625  0.00  0.00    +0.000 F 
ATOM     26  F   UNL     1      -0.722  12.703  23.154  0.00  0.00    +0.000 F 
ENDBRANCH  22  23
BRANCH  17  27
ATOM     27  O   UNL     1      -2.165  12.877  20.409  0.00  0.00    +0.000 OA
BRANCH  27  29
ATOM     28  C   UNL     1      -4.460  13.453  20.809  0.00  0.00    +0.000 C 
ATOM     29  C   UNL     1      -3.501  12.591  20.011  0.00  0.00    +0.000 C 
ENDBRANCH  27  29
ENDBRANCH  17  27
ENDBRANCH   1  20
TORSDOF 6
ENDMDL
MODEL 5
REMARK VINA RESULT:      -8.2      2.646      3.501
REMARK  Name = 
REMARK  7 active torsions:
REMARK  status: ('A' for Active; 'I' for Inactive)
REMARK    1  A    between atoms: C_1  and  C_2
REMARK    2  A    between atoms: C_2  and  O_3
REMARK    3  A    between atoms: O_3  and  C_4
REMARK    4  A    between atoms: C_7  and  C_8
REMARK    5  A    between atoms: C_10  and  C_11
REMARK    6  A    between atoms: C_19  and  O_20
REMARK    7  A    between atoms: C_24  and  C_25
REMARK                            x       y       z     vdW  Elec       q    Type
REMARK                         _______ _______ _______ _____ _____    ______ ____
ROOT
ATOM      1  C   UNL     1       1.898   8.210  18.556  0.00  0.00    +0.000 A 
ATOM      2  N   UNL     1       1.177   9.094  17.905  0.00  0.00    +0.000 NA
ATOM      3  C   UNL     1       0.628   9.871  18.920  0.00  0.00    +0.000 A 
ATOM      4  N   UNL     1       0.953   9.436  20.153  0.00  0.00    +0.000 NA
ATOM      5  O   UNL     1       1.790   8.340  19.910  0.00  0.00    +0.000 OA
ENDROOT
BRANCH   3   6
ATOM      6  C   UNL     1       0.020  11.175  18.625  0.00  0.00    +0.000 A 
ATOM      7  C   UNL     1       0.738  12.315  19.000  0.00  0.00    +0.000 A 
ATOM      8  C   UNL     1       0.073  13.402  19.579  0.00  0.00    +0.000 A 
ATOM      9  C   UNL     1      -1.293  13.327  19.876  0.00  0.00    +0.000 A 
ATOM     10  C   UNL     1      -2.014  12.244  19.397  0.00  0.00    +0.000 A 
ATOM     11  C   UNL     1      -1.367  11.303  18.585  0.00  0.00    +0.000 A 
ATOM     12  C   UNL     1      -2.197  11.355  17.303  0.00  0.00    +0.000 C 
ATOM     13  C   UNL     1      -3.630  11.568  17.827  0.00  0.00    +0.000 C 
ATOM     14  C   UNL     1      -3.495  12.038  19.284  0.00  0.00    +0.000 C 
BRANCH  14  15
ATOM     15  O   UNL     1      -4.272  13.185  19.546  0.00  0.00    +0.000 OA
ATOM     16  H   UNL     1      -3.655  13.893  19.791  0.00  0.00    +0.000 HD
ENDBRANCH  14  15
ENDBRANCH   3   6
BRANCH   1  20
ATOM     17  C   UNL     1       4.510   5.055  17.227  0.00  0.00    +0.000 A 
ATOM     18  C   UNL     1       4.832   6.393  16.977  0.00  0.00    +0.000 A 
ATOM     19  C   UNL     1       3.978   7.433  17.379  0.00  0.00    +0.000 A 
ATOM     20  C   UNL     1       2.775   7.156  18.041  0.00  0.00    +0.000 A 
ATOM     21  C   UNL     1       2.422   5.808  18.201  0.00  0.00    +0.000 A 
ATOM     22  C   UNL     1       3.268   4.744  17.790  0.00  0.00    +0.000 A 
BRANCH  22  23
ATOM     23  C   UNL     1       2.792   3.332  18.009  0.00  0.00    +0.000 C 
ATOM     24  F   UNL     1       3.632   2.499  18.685  0.00  0.00    +0.000 F 
ATOM     25  F   UNL     1       1.615   3.298  18.704  0.00  0.00    +0.000 F 
ATOM     26  F   UNL     1       2.527   2.693  16.829  0.00  0.00    +0.000 F 
ENDBRANCH  22  23
BRANCH  17  27
ATOM     27  O   UNL     1       5.359   4.030  16.918  0.00  0.00    +0.000 OA
BRANCH  27  29
ATOM     28  C   UNL     1       6.122   3.908  14.647  0.00  0.00    +0.000 C 
ATOM     29  C   UNL     1       6.451   4.342  16.062  0.00  0.00    +0.000 C 
ENDBRANCH  27  29
ENDBRANCH  17  27
ENDBRANCH   1  20
TORSDOF 6
ENDMDL
MODEL 6
REMARK VINA RESULT:      -8.2      4.435      9.249
REMARK  Name = 
REMARK  7 active torsions:
REMARK  status: ('A' for Active; 'I' for Inactive)
REMARK    1  A    between atoms: C_1  and  C_2
REMARK    2  A    between atoms: C_2  and  O_3
REMARK    3  A    between atoms: O_3  and  C_4
REMARK    4  A    between atoms: C_7  and  C_8
REMARK    5  A    between atoms: C_10  and  C_11
REMARK    6  A    between atoms: C_19  and  O_20
REMARK    7  A    between atoms: C_24  and  C_25
REMARK                            x       y       z     vdW  Elec       q    Type
REMARK                         _______ _______ _______ _____ _____    ______ ____
ROOT
ATOM      1  C   UNL     1       1.467   9.671  18.818  0.00  0.00    +0.000 A 
ATOM      2  N   UNL     1       1.587   8.465  19.327  0.00  0.00    +0.000 NA
ATOM      3  C   UNL     1       2.289   7.772  18.346  0.00  0.00    +0.000 A 
ATOM      4  N   UNL     1       2.533   8.512  17.247  0.00  0.00    +0.000 NA
ATOM      5  O   UNL     1       1.989   9.764  17.561  0.00  0.00    +0.000 OA
ENDROOT
BRANCH   3   6
ATOM      6  C   UNL     1       2.923   6.481  18.646  0.00  0.00    +0.000 A 
ATOM      7  C   UNL     1       4.133   6.199  18.004  0.00  0.00    +0.000 A 
ATOM      8  C   UNL     1       4.373   4.919  17.492  0.00  0.00    +0.000 A 
ATOM      9  C   UNL     1       3.376   3.937  17.530  0.00  0.00    +0.000 A 
ATOM     10  C   UNL     1       2.228   4.190  18.267  0.00  0.00    +0.000 A 
ATOM     11  C   UNL     1       2.138   5.384  18.995  0.00  0.00    +0.000 A 
ATOM     12  C   UNL     1       1.937   4.879  20.423  0.00  0.00    +0.000 C 
ATOM     13  C   UNL     1       1.056   3.631  20.228  0.00  0.00    +0.000 C 
ATOM     14  C   UNL     1       1.155   3.256  18.741  0.00  0.00    +0.000 C 
BRANCH  14  15
ATOM     15  O   UNL     1       1.439   1.887  18.556  0.00  0.00    +0.000 OA
ATOM     16  H   UNL     1       1.757   1.787  17.645  0.00  0.00    +0.000 HD
ENDBRANCH  14  15
ENDBRANCH   3   6
BRANCH   1  20
ATOM     17  C   UNL     1      -0.433  13.148  20.502  0.00  0.00    +0.000 A 
ATOM     18  C   UNL     1       0.374  13.263  19.366  0.00  0.00    +0.000 A 
ATOM     19  C   UNL     1       1.023  12.144  18.820  0.00  0.00    +0.000 A 
ATOM     20  C   UNL     1       0.881  10.879  19.403  0.00  0.00    +0.000 A 
ATOM     21  C   UNL     1       0.145  10.796  20.595  0.00  0.00    +0.000 A 
ATOM     22  C   UNL     1      -0.508  11.920  21.167  0.00  0.00    +0.000 A 
BRANCH  22  23
ATOM     23  C   UNL     1      -1.272  11.721  22.449  0.00  0.00    +0.000 C 
ATOM     24  F   UNL     1      -0.964  12.553  23.483  0.00  0.00    +0.000 F 
ATOM     25  F   UNL     1      -2.619  11.863  22.261  0.00  0.00    +0.000 F 
ATOM     26  F   UNL     1      -1.114  10.457  22.948  0.00  0.00    +0.000 F 
ENDBRANCH  22  23
BRANCH  17  27
ATOM     27  O   UNL     1      -1.139  14.204  21.007  0.00  0.00    +0.000 OA
BRANCH  27  29
ATOM     28  C   UNL     1       0.438  15.373  22.385  0.00  0.00    +0.000 C 
ATOM     29  C   UNL     1      -0.435  15.432  21.147  0.00  0.00    +0.000 C 
ENDBRANCH  27  29
ENDBRANCH  17  27
ENDBRANCH   1  20
TORSDOF 6
ENDMDL
MODEL 7
REMARK VINA RESULT:      -8.2      4.734      9.488
REMARK  Name = 
REMARK  7 active torsions:
REMARK  status: ('A' for Active; 'I' for Inactive)
REMARK    1  A    between atoms: C_1  and  C_2
REMARK    2  A    between atoms: C_2  and  O_3
REMARK    3  A    between atoms: O_3  and  C_4
REMARK    4  A    between atoms: C_7  and  C_8
REMARK    5  A    between atoms: C_10  and  C_11
REMARK    6  A    between atoms: C_19  and  O_20
REMARK    7  A    between atoms: C_24  and  C_25
REMARK                            x       y       z     vdW  Elec       q    Type
REMARK                         _______ _______ _______ _____ _____    ______ ____
ROOT
ATOM      1  C   UNL     1       1.097   9.271  18.216  0.00  0.00    +0.000 A 
ATOM      2  N   UNL     1       1.263   7.975  18.362  0.00  0.00    +0.000 NA
ATOM      3  C   UNL     1       2.538   7.756  17.850  0.00  0.00    +0.000 A 
ATOM      4  N   UNL     1       3.106   8.871  17.351  0.00  0.00    +0.000 NA
ATOM      5  O   UNL     1       2.153   9.868  17.593  0.00  0.00    +0.000 OA
ENDROOT
BRANCH   3   6
ATOM      6  C   UNL     1       3.251   6.500  18.119  0.00  0.00    +0.000 A 
ATOM      7  C   UNL     1       4.435   6.273  17.411  0.00  0.00    +0.000 A 
ATOM      8  C   UNL     1       4.707   5.002  16.891  0.00  0.00    +0.000 A 
ATOM      9  C   UNL     1       3.763   3.973  16.991  0.00  0.00    +0.000 A 
ATOM     10  C   UNL     1       2.649   4.176  17.791  0.00  0.00    +0.000 A 
ATOM     11  C   UNL     1       2.541   5.369  18.517  0.00  0.00    +0.000 A 
ATOM     12  C   UNL     1       2.447   4.866  19.957  0.00  0.00    +0.000 C 
ATOM     13  C   UNL     1       1.618   3.575  19.818  0.00  0.00    +0.000 C 
ATOM     14  C   UNL     1       1.650   3.194  18.329  0.00  0.00    +0.000 C 
BRANCH  14  15
ATOM     15  O   UNL     1       1.990   1.839  18.135  0.00  0.00    +0.000 OA
ATOM     16  H   UNL     1       2.947   1.766  18.284  0.00  0.00    +0.000 HD
ENDBRANCH  14  15
ENDBRANCH   3   6
BRANCH   1  20
ATOM     17  C   UNL     1      -2.172  11.871  19.260  0.00  0.00    +0.000 A 
ATOM     18  C   UNL     1      -1.001  11.866  20.023  0.00  0.00    +0.000 A 
ATOM     19  C   UNL     1       0.064  11.005  19.712  0.00  0.00    +0.000 A 
ATOM     20  C   UNL     1      -0.021  10.122  18.629  0.00  0.00    +0.000 A 
ATOM     21  C   UNL     1      -1.237  10.072  17.932  0.00  0.00    +0.000 A 
ATOM     22  C   UNL     1      -2.328  10.927  18.239  0.00  0.00    +0.000 A 
BRANCH  22  23
ATOM     23  C   UNL     1      -3.589  10.791  17.427  0.00  0.00    +0.000 C 
ATOM     24  F   UNL     1      -4.014  11.902  16.762  0.00  0.00    +0.000 F 
ATOM     25  F   UNL     1      -3.471   9.822  16.470  0.00  0.00    +0.000 F 
ATOM     26  F   UNL     1      -4.653  10.404  18.195  0.00  0.00    +0.000 F 
ENDBRANCH  22  23
BRANCH  17  27
ATOM     27  O   UNL     1      -3.191  12.753  19.490  0.00  0.00    +0.000 OA
BRANCH  27  29
ATOM     28  C   UNL     1      -5.181  12.543  20.814  0.00  0.00    +0.000 C 
ATOM     29  C   UNL     1      -3.689  12.818  20.821  0.00  0.00    +0.000 C 
ENDBRANCH  27  29
ENDBRANCH  17  27
ENDBRANCH   1  20
TORSDOF 6
ENDMDL
MODEL 8
REMARK VINA RESULT:      -8.2      3.919      9.137
REMARK  Name = 
REMARK  7 active torsions:
REMARK  status: ('A' for Active; 'I' for Inactive)
REMARK    1  A    between atoms: C_1  and  C_2
REMARK    2  A    between atoms: C_2  and  O_3
REMARK    3  A    between atoms: O_3  and  C_4
REMARK    4  A    between atoms: C_7  and  C_8
REMARK    5  A    between atoms: C_10  and  C_11
REMARK    6  A    between atoms: C_19  and  O_20
REMARK    7  A    between atoms: C_24  and  C_25
REMARK                            x       y       z     vdW  Elec       q    Type
REMARK                         _______ _______ _______ _____ _____    ______ ____
ROOT
ATOM      1  C   UNL     1       1.406   7.872  20.369  0.00  0.00    +0.000 A 
ATOM      2  N   UNL     1       2.192   7.796  19.318  0.00  0.00    +0.000 NA
ATOM      3  C   UNL     1       2.655   6.484  19.359  0.00  0.00    +0.000 A 
ATOM      4  N   UNL     1       2.216   5.801  20.434  0.00  0.00    +0.000 NA
ATOM      5  O   UNL     1       1.393   6.720  21.099  0.00  0.00    +0.000 OA
ENDROOT
BRANCH   3   6
ATOM      6  C   UNL     1       3.300   5.877  18.186  0.00  0.00    +0.000 A 
ATOM      7  C   UNL     1       2.684   4.753  17.628  0.00  0.00    +0.000 A 
ATOM      8  C   UNL     1       3.459   3.665  17.210  0.00  0.00    +0.000 A 
ATOM      9  C   UNL     1       4.842   3.649  17.428  0.00  0.00    +0.000 A 
ATOM     10  C   UNL     1       5.453   4.811  17.874  0.00  0.00    +0.000 A 
ATOM     11  C   UNL     1       4.681   5.970  18.027  0.00  0.00    +0.000 A 
ATOM     12  C   UNL     1       5.383   6.953  17.092  0.00  0.00    +0.000 C 
ATOM     13  C   UNL     1       6.869   6.584  17.253  0.00  0.00    +0.000 C 
ATOM     14  C   UNL     1       6.904   5.192  17.906  0.00  0.00    +0.000 C 
BRANCH  14  15
ATOM     15  O   UNL     1       7.763   4.307  17.224  0.00  0.00    +0.000 OA
ATOM     16  H   UNL     1       7.837   3.509  17.772  0.00  0.00    +0.000 HD
ENDBRANCH  14  15
ENDBRANCH   3   6
BRANCH   1  20
ATOM     17  C   UNL     1      -0.918  11.258  21.660  0.00  0.00    +0.000 A 
ATOM     18  C   UNL     1      -0.421  10.344  22.594  0.00  0.00    +0.000 A 
ATOM     19  C   UNL     1       0.316   9.220  22.188  0.00  0.00    +0.000 A 
ATOM     20  C   UNL     1       0.569   8.981  20.831  0.00  0.00    +0.000 A 
ATOM     21  C   UNL     1      -0.015   9.855  19.902  0.00  0.00    +0.000 A 
ATOM     22  C   UNL     1      -0.772  10.991  20.295  0.00  0.00    +0.000 A 
BRANCH  22  23
ATOM     23  C   UNL     1      -1.356  11.864  19.216  0.00  0.00    +0.000 C 
ATOM     24  F   UNL     1      -2.683  12.158  19.315  0.00  0.00    +0.000 F 
ATOM     25  F   UNL     1      -0.723  13.074  19.149  0.00  0.00    +0.000 F 
ATOM     26  F   UNL     1      -1.202  11.312  17.973  0.00  0.00    +0.000 F 
ENDBRANCH  22  23
BRANCH  17  27
ATOM     27  O   UNL     1      -1.569  12.402  22.032  0.00  0.00    +0.000 OA
BRANCH  27  29
ATOM     28  C   UNL     1      -0.067  14.262  22.235  0.00  0.00    +0.000 C 
ATOM     29  C   UNL     1      -0.904  13.235  22.974  0.00  0.00    +0.000 C 
ENDBRANCH  27  29
ENDBRANCH  17  27
ENDBRANCH   1  20
TORSDOF 6
ENDMDL
MODEL 9
REMARK VINA RESULT:      -8.1      3.988      9.246
REMARK  Name = 
REMARK  7 active torsions:
REMARK  status: ('A' for Active; 'I' for Inactive)
REMARK    1  A    between atoms: C_1  and  C_2
REMARK    2  A    between atoms: C_2  and  O_3
REMARK    3  A    between atoms: O_3  and  C_4
REMARK    4  A    between atoms: C_7  and  C_8
REMARK    5  A    between atoms: C_10  and  C_11
REMARK    6  A    between atoms: C_19  and  O_20
REMARK    7  A    between atoms: C_24  and  C_25
REMARK                            x       y       z     vdW  Elec       q    Type
REMARK                         _______ _______ _______ _____ _____    ______ ____
ROOT
ATOM      1  C   UNL     1       1.407   8.218  20.088  0.00  0.00    +0.000 A 
ATOM      2  N   UNL     1       2.217   8.013  19.073  0.00  0.00    +0.000 NA
ATOM      3  C   UNL     1       2.670   6.714  19.281  0.00  0.00    +0.000 A 
ATOM      4  N   UNL     1       2.201   6.167  20.420  0.00  0.00    +0.000 NA
ATOM      5  O   UNL     1       1.369   7.161  20.950  0.00  0.00    +0.000 OA
ENDROOT
BRANCH   3   6
ATOM      6  C   UNL     1       3.339   5.969  18.206  0.00  0.00    +0.000 A 
ATOM      7  C   UNL     1       2.681   4.842  17.705  0.00  0.00    +0.000 A 
ATOM      8  C   UNL     1       3.404   3.676  17.427  0.00  0.00    +0.000 A 
ATOM      9  C   UNL     1       4.767   3.592  17.733  0.00  0.00    +0.000 A 
ATOM     10  C   UNL     1       5.430   4.747  18.120  0.00  0.00    +0.000 A 
ATOM     11  C   UNL     1       4.730   5.961  18.127  0.00  0.00    +0.000 A 
ATOM     12  C   UNL     1       5.549   6.814  17.160  0.00  0.00    +0.000 C 
ATOM     13  C   UNL     1       6.996   6.368  17.445  0.00  0.00    +0.000 C 
ATOM     14  C   UNL     1       6.898   5.039  18.211  0.00  0.00    +0.000 C 
BRANCH  14  15
ATOM     15  O   UNL     1       7.733   4.046  17.659  0.00  0.00    +0.000 OA
ATOM     16  H   UNL     1       7.846   3.363  18.341  0.00  0.00    +0.000 HD
ENDBRANCH  14  15
ENDBRANCH   3   6
BRANCH   1  20
ATOM     17  C   UNL     1      -0.942  11.738  20.880  0.00  0.00    +0.000 A 
ATOM     18  C   UNL     1      -0.309  11.060  21.926  0.00  0.00    +0.000 A 
ATOM     19  C   UNL     1       0.439   9.895  21.689  0.00  0.00    +0.000 A 
ATOM     20  C   UNL     1       0.566   9.377  20.394  0.00  0.00    +0.000 A 
ATOM     21  C   UNL     1      -0.151  10.014  19.370  0.00  0.00    +0.000 A 
ATOM     22  C   UNL     1      -0.921  11.187  19.595  0.00  0.00    +0.000 A 
BRANCH  22  23
ATOM     23  C   UNL     1      -1.652  11.791  18.426  0.00  0.00    +0.000 C 
ATOM     24  F   UNL     1      -1.710  11.046  17.286  0.00  0.00    +0.000 F 
ATOM     25  F   UNL     1      -2.953  12.074  18.736  0.00  0.00    +0.000 F 
ATOM     26  F   UNL     1      -1.108  12.987  18.045  0.00  0.00    +0.000 F 
ENDBRANCH  22  23
BRANCH  17  27
ATOM     27  O   UNL     1      -1.608  12.916  21.071  0.00  0.00    +0.000 OA
BRANCH  27  29
ATOM     28  C   UNL     1      -3.886  12.824  21.818  0.00  0.00    +0.000 C 
ATOM     29  C   UNL     1      -2.436  13.001  22.225  0.00  0.00    +0.000 C 
ENDBRANCH  27  29
ENDBRANCH  17  27
ENDBRANCH   1  20
TORSDOF 6
ENDMDL
