MODEL 1
REMARK VINA RESULT:      -8.5      0.000      0.000
REMARK  Name = 
REMARK  3 active torsions:
REMARK  status: ('A' for Active; 'I' for Inactive)
REMARK    1  A    between atoms: N_1  and  C_2
REMARK    2  A    between atoms: C_9  and  C_10
REMARK    3  A    between atoms: N_17  and  C_18
REMARK                            x       y       z     vdW  Elec       q    Type
REMARK                         _______ _______ _______ _____ _____    ______ ____
ROOT
ATOM      1  C   UNL     1       1.437  10.183  19.315  0.00  0.00    +0.000 A 
ATOM      2  C   UNL     1       0.665  10.278  20.489  0.00  0.00    +0.000 A 
ATOM      3  C   UNL     1       0.488   9.135  21.274  0.00  0.00    +0.000 A 
ATOM      4  N   UNL     1       0.998   7.913  20.984  0.00  0.00    +0.000 NA
ATOM      5  C   UNL     1       1.723   7.848  19.847  0.00  0.00    +0.000 A 
ATOM      6  C   UNL     1       1.979   8.916  18.998  0.00  0.00    +0.000 A 
ATOM      7  C   UNL     1       2.784   8.418  17.950  0.00  0.00    +0.000 A 
ATOM      8  C   UNL     1       3.031   7.068  18.153  0.00  0.00    +0.000 A 
ATOM      9  N   UNL     1       2.417   6.726  19.375  0.00  0.00    +0.000 N 
ATOM     10  C   UNL     1      -0.274   9.191  22.577  0.00  0.00    +0.000 C 
ATOM     11  C   UNL     1      -1.083  10.459  22.859  0.00  0.00    +0.000 C 
ATOM     12  C   UNL     1      -1.257  11.367  21.653  0.00  0.00    +0.000 C 
ATOM     13  C   UNL     1       0.075  11.590  20.948  0.00  0.00    +0.000 C 
ENDROOT
BRANCH   8  14
ATOM     14  C   UNL     1       3.756   6.173  17.223  0.00  0.00    +0.000 A 
ATOM     15  C   UNL     1       4.702   6.716  16.336  0.00  0.00    +0.000 A 
ATOM     16  C   UNL     1       5.438   5.898  15.471  0.00  0.00    +0.000 A 
ATOM     17  C   UNL     1       5.250   4.520  15.498  0.00  0.00    +0.000 A 
ATOM     18 CL   UNL     1       6.195   3.506  14.481  0.00  0.00    +0.000 Cl
ATOM     19  C   UNL     1       4.297   3.962  16.343  0.00  0.00    +0.000 A 
ATOM     20  C   UNL     1       3.528   4.789  17.170  0.00  0.00    +0.000 A 
ENDBRANCH   8  14
BRANCH   9  21
ATOM     21  C   UNL     1       2.484   5.464  20.051  0.00  0.00    +0.000 A 
ATOM     22  C   UNL     1       3.712   4.804  20.200  0.00  0.00    +0.000 A 
ATOM     23  C   UNL     1       3.758   3.507  20.718  0.00  0.00    +0.000 A 
ATOM     24  C   UNL     1       2.585   2.879  21.128  0.00  0.00    +0.000 A 
ATOM     25  C   UNL     1       1.369   3.555  21.048  0.00  0.00    +0.000 A 
ATOM     26  C   UNL     1       1.316   4.849  20.516  0.00  0.00    +0.000 A 
ENDBRANCH   9  21
BRANCH   1  27
ATOM     27  N   UNL     1       1.721  11.317  18.533  0.00  0.00    +0.000 N 
ATOM     28  H   UNL     1       2.087  11.090  17.614  0.00  0.00    +0.000 HD
ATOM     29  H   UNL     1       2.309  11.996  19.005  0.00  0.00    +0.000 HD
ENDBRANCH   1  27
TORSDOF 3
ENDMDL
MODEL 2
REMARK VINA RESULT:      -7.9      5.728      8.133
REMARK  Name = 
REMARK  3 active torsions:
REMARK  status: ('A' for Active; 'I' for Inactive)
REMARK    1  A    between atoms: N_1  and  C_2
REMARK    2  A    between atoms: C_9  and  C_10
REMARK    3  A    between atoms: N_17  and  C_18
REMARK                            x       y       z     vdW  Elec       q    Type
REMARK                         _______ _______ _______ _____ _____    ______ ____
ROOT
ATOM      1  C   UNL     1       1.878  15.405  19.253  0.00  0.00    +0.000 A 
ATOM      2  C   UNL     1       3.022  15.346  20.072  0.00  0.00    +0.000 A 
ATOM      3  C   UNL     1       3.126  14.315  21.011  0.00  0.00    +0.000 A 
ATOM      4  N   UNL     1       2.189  13.357  21.212  0.00  0.00    +0.000 NA
ATOM      5  C   UNL     1       1.098  13.444  20.421  0.00  0.00    +0.000 A 
ATOM      6  C   UNL     1       0.892  14.411  19.446  0.00  0.00    +0.000 A 
ATOM      7  C   UNL     1      -0.356  14.125  18.849  0.00  0.00    +0.000 A 
ATOM      8  C   UNL     1      -0.906  12.994  19.437  0.00  0.00    +0.000 A 
ATOM      9  N   UNL     1       0.035  12.534  20.380  0.00  0.00    +0.000 N 
ATOM     10  C   UNL     1       4.359  14.163  21.871  0.00  0.00    +0.000 C 
ATOM     11  C   UNL     1       5.350  15.329  21.885  0.00  0.00    +0.000 C 
ATOM     12  C   UNL     1       4.811  16.610  21.269  0.00  0.00    +0.000 C 
ATOM     13  C   UNL     1       4.159  16.329  19.922  0.00  0.00    +0.000 C 
ENDROOT
BRANCH   8  14
ATOM     14  C   UNL     1      -2.246  12.436  19.147  0.00  0.00    +0.000 A 
ATOM     15  C   UNL     1      -3.335  12.789  19.964  0.00  0.00    +0.000 A 
ATOM     16  C   UNL     1      -4.624  12.315  19.697  0.00  0.00    +0.000 A 
ATOM     17  C   UNL     1      -4.844  11.497  18.594  0.00  0.00    +0.000 A 
ATOM     18 CL   UNL     1      -6.437  10.964  18.227  0.00  0.00    +0.000 Cl
ATOM     19  C   UNL     1      -3.778  11.109  17.789  0.00  0.00    +0.000 A 
ATOM     20  C   UNL     1      -2.483  11.544  18.090  0.00  0.00    +0.000 A 
ENDBRANCH   8  14
BRANCH   9  21
ATOM     21  C   UNL     1      -0.046  11.337  21.164  0.00  0.00    +0.000 A 
ATOM     22  C   UNL     1       0.392  10.113  20.638  0.00  0.00    +0.000 A 
ATOM     23  C   UNL     1       0.172   8.924  21.338  0.00  0.00    +0.000 A 
ATOM     24  C   UNL     1      -0.447   8.955  22.585  0.00  0.00    +0.000 A 
ATOM     25  C   UNL     1      -0.823  10.174  23.146  0.00  0.00    +0.000 A 
ATOM     26  C   UNL     1      -0.618  11.366  22.442  0.00  0.00    +0.000 A 
ENDBRANCH   9  21
BRANCH   1  27
ATOM     27  N   UNL     1       1.758  16.366  18.233  0.00  0.00    +0.000 N 
ATOM     28  H   UNL     1       0.863  16.336  17.755  0.00  0.00    +0.000 HD
ATOM     29  H   UNL     1       2.528  16.352  17.572  0.00  0.00    +0.000 HD
ENDBRANCH   1  27
TORSDOF 3
ENDMDL
MODEL 3
REMARK VINA RESULT:      -7.6      0.230      1.330
REMARK  Name = 
REMARK  3 active torsions:
REMARK  status: ('A' for Active; 'I' for Inactive)
REMARK    1  A    between atoms: N_1  and  C_2
REMARK    2  A    between atoms: C_9  and  C_10
REMARK    3  A    between atoms: N_17  and  C_18
REMARK                            x       y       z     vdW  Elec       q    Type
REMARK                         _______ _______ _______ _____ _____    ______ ____
ROOT
ATOM      1  C   UNL     1       1.605  10.146  19.203  0.00  0.00    +0.000 A 
ATOM      2  C   UNL     1       0.774  10.219  20.337  0.00  0.00    +0.000 A 
ATOM      3  C   UNL     1       0.530   9.053  21.070  0.00  0.00    +0.000 A 
ATOM      4  N   UNL     1       1.026   7.831  20.763  0.00  0.00    +0.000 NA
ATOM      5  C   UNL     1       1.810   7.787  19.665  0.00  0.00    +0.000 A 
ATOM      6  C   UNL     1       2.135   8.879  18.870  0.00  0.00    +0.000 A 
ATOM      7  C   UNL     1       2.983   8.398  17.848  0.00  0.00    +0.000 A 
ATOM      8  C   UNL     1       3.190   7.035  18.015  0.00  0.00    +0.000 A 
ATOM      9  N   UNL     1       2.503   6.667  19.189  0.00  0.00    +0.000 N 
ATOM     10  C   UNL     1      -0.300   9.083  22.332  0.00  0.00    +0.000 C 
ATOM     11  C   UNL     1      -1.094  10.359  22.617  0.00  0.00    +0.000 C 
ATOM     12  C   UNL     1      -1.183  11.313  21.436  0.00  0.00    +0.000 C 
ATOM     13  C   UNL     1       0.190  11.528  20.812  0.00  0.00    +0.000 C 
ENDROOT
BRANCH   8  14
ATOM     14  C   UNL     1       3.943   6.157  17.092  0.00  0.00    +0.000 A 
ATOM     15  C   UNL     1       3.704   4.772  17.105  0.00  0.00    +0.000 A 
ATOM     16  C   UNL     1       4.366   3.914  16.219  0.00  0.00    +0.000 A 
ATOM     17  C   UNL     1       5.263   4.437  15.293  0.00  0.00    +0.000 A 
ATOM     18 CL   UNL     1       6.032   3.396  14.162  0.00  0.00    +0.000 Cl
ATOM     19  C   UNL     1       5.541   5.800  15.283  0.00  0.00    +0.000 A 
ATOM     20  C   UNL     1       4.914   6.646  16.204  0.00  0.00    +0.000 A 
ENDBRANCH   8  14
BRANCH   9  21
ATOM     21  C   UNL     1       2.506   5.380  19.822  0.00  0.00    +0.000 A 
ATOM     22  C   UNL     1       1.299   4.760  20.174  0.00  0.00    +0.000 A 
ATOM     23  C   UNL     1       1.302   3.583  20.926  0.00  0.00    +0.000 A 
ATOM     24  C   UNL     1       2.510   2.998  21.297  0.00  0.00    +0.000 A 
ATOM     25  C   UNL     1       3.715   3.571  20.893  0.00  0.00    +0.000 A 
ATOM     26  C   UNL     1       3.716   4.757  20.151  0.00  0.00    +0.000 A 
ENDBRANCH   9  21
BRANCH   1  27
ATOM     27  N   UNL     1       1.956  11.299  18.478  0.00  0.00    +0.000 N 
ATOM     28  H   UNL     1       2.048  11.135  17.481  0.00  0.00    +0.000 HD
ATOM     29  H   UNL     1       2.771  11.776  18.849  0.00  0.00    +0.000 HD
ENDBRANCH   1  27
TORSDOF 3
ENDMDL
MODEL 4
REMARK VINA RESULT:      -7.5      3.349      7.238
REMARK  Name = 
REMARK  3 active torsions:
REMARK  status: ('A' for Active; 'I' for Inactive)
REMARK    1  A    between atoms: N_1  and  C_2
REMARK    2  A    between atoms: C_9  and  C_10
REMARK    3  A    between atoms: N_17  and  C_18
REMARK                            x       y       z     vdW  Elec       q    Type
REMARK                         _______ _______ _______ _____ _____    ______ ____
ROOT
ATOM      1  C   UNL     1       2.984   7.209  17.943  0.00  0.00    +0.000 A 
ATOM      2  C   UNL     1       2.884   6.044  18.726  0.00  0.00    +0.000 A 
ATOM      3  C   UNL     1       2.191   6.103  19.939  0.00  0.00    +0.000 A 
ATOM      4  N   UNL     1       1.608   7.218  20.440  0.00  0.00    +0.000 NA
ATOM      5  C   UNL     1       1.728   8.324  19.675  0.00  0.00    +0.000 A 
ATOM      6  C   UNL     1       2.378   8.382  18.449  0.00  0.00    +0.000 A 
ATOM      7  C   UNL     1       2.252   9.710  17.986  0.00  0.00    +0.000 A 
ATOM      8  C   UNL     1       1.528  10.458  18.904  0.00  0.00    +0.000 A 
ATOM      9  N   UNL     1       1.148   9.573  19.933  0.00  0.00    +0.000 N 
ATOM     10  C   UNL     1       1.995   4.869  20.789  0.00  0.00    +0.000 C 
ATOM     11  C   UNL     1       2.820   3.632  20.425  0.00  0.00    +0.000 C 
ATOM     12  C   UNL     1       3.951   3.904  19.447  0.00  0.00    +0.000 C 
ATOM     13  C   UNL     1       3.454   4.724  18.262  0.00  0.00    +0.000 C 
ENDROOT
BRANCH   8  14
ATOM     14  C   UNL     1       1.269  11.913  18.820  0.00  0.00    +0.000 A 
ATOM     15  C   UNL     1       0.031  12.369  18.333  0.00  0.00    +0.000 A 
ATOM     16  C   UNL     1      -0.267  13.735  18.278  0.00  0.00    +0.000 A 
ATOM     17  C   UNL     1       0.665  14.664  18.729  0.00  0.00    +0.000 A 
ATOM     18 CL   UNL     1       0.279  16.339  18.721  0.00  0.00    +0.000 Cl
ATOM     19  C   UNL     1       1.909  14.239  19.185  0.00  0.00    +0.000 A 
ATOM     20  C   UNL     1       2.221  12.876  19.191  0.00  0.00    +0.000 A 
ENDBRANCH   8  14
BRANCH   9  21
ATOM     21  C   UNL     1       0.303   9.864  21.053  0.00  0.00    +0.000 A 
ATOM     22  C   UNL     1      -0.721  10.815  20.941  0.00  0.00    +0.000 A 
ATOM     23  C   UNL     1      -1.443  11.212  22.068  0.00  0.00    +0.000 A 
ATOM     24  C   UNL     1      -1.175  10.633  23.306  0.00  0.00    +0.000 A 
ATOM     25  C   UNL     1      -0.206   9.637  23.414  0.00  0.00    +0.000 A 
ATOM     26  C   UNL     1       0.530   9.246  22.289  0.00  0.00    +0.000 A 
ENDBRANCH   9  21
BRANCH   1  27
ATOM     27  N   UNL     1       3.592   7.189  16.675  0.00  0.00    +0.000 N 
ATOM     28  H   UNL     1       3.735   6.252  16.313  0.00  0.00    +0.000 HD
ATOM     29  H   UNL     1       4.446   7.736  16.629  0.00  0.00    +0.000 HD
ENDBRANCH   1  27
TORSDOF 3
ENDMDL
MODEL 5
REMARK VINA RESULT:      -7.5      3.805      7.381
REMARK  Name = 
REMARK  3 active torsions:
REMARK  status: ('A' for Active; 'I' for Inactive)
REMARK    1  A    between atoms: N_1  and  C_2
REMARK    2  A    between atoms: C_9  and  C_10
REMARK    3  A    between atoms: N_17  and  C_18
REMARK                            x       y       z     vdW  Elec       q    Type
REMARK                         _______ _______ _______ _____ _____    ______ ____
ROOT
ATOM      1  C   UNL     1      -2.357  12.807  23.348  0.00  0.00    +0.000 A 
ATOM      2  C   UNL     1      -2.341  14.153  23.759  0.00  0.00    +0.000 A 
ATOM      3  C   UNL     1      -1.349  15.000  23.256  0.00  0.00    +0.000 A 
ATOM      4  N   UNL     1      -0.372  14.619  22.398  0.00  0.00    +0.000 NA
ATOM      5  C   UNL     1      -0.404  13.320  22.029  0.00  0.00    +0.000 A 
ATOM      6  C   UNL     1      -1.347  12.392  22.450  0.00  0.00    +0.000 A 
ATOM      7  C   UNL     1      -1.025  11.172  21.817  0.00  0.00    +0.000 A 
ATOM      8  C   UNL     1       0.090  11.344  21.010  0.00  0.00    +0.000 A 
ATOM      9  N   UNL     1       0.442  12.706  21.097  0.00  0.00    +0.000 N 
ATOM     10  C   UNL     1      -1.321  16.469  23.609  0.00  0.00    +0.000 C 
ATOM     11  C   UNL     1      -2.229  16.930  24.751  0.00  0.00    +0.000 C 
ATOM     12  C   UNL     1      -2.811  15.796  25.579  0.00  0.00    +0.000 C 
ATOM     13  C   UNL     1      -3.398  14.717  24.679  0.00  0.00    +0.000 C 
ENDROOT
BRANCH   8  14
ATOM     14  C   UNL     1       0.787  10.275  20.259  0.00  0.00    +0.000 A 
ATOM     15  C   UNL     1       1.158   9.092  20.922  0.00  0.00    +0.000 A 
ATOM     16  C   UNL     1       1.779   8.043  20.237  0.00  0.00    +0.000 A 
ATOM     17  C   UNL     1       2.019   8.156  18.871  0.00  0.00    +0.000 A 
ATOM     18 CL   UNL     1       2.726   6.844  18.013  0.00  0.00    +0.000 Cl
ATOM     19  C   UNL     1       1.690   9.329  18.200  0.00  0.00    +0.000 A 
ATOM     20  C   UNL     1       1.115  10.395  18.900  0.00  0.00    +0.000 A 
ENDBRANCH   8  14
BRANCH   9  21
ATOM     21  C   UNL     1       1.470  13.380  20.360  0.00  0.00    +0.000 A 
ATOM     22  C   UNL     1       2.749  13.541  20.911  0.00  0.00    +0.000 A 
ATOM     23  C   UNL     1       3.704  14.329  20.264  0.00  0.00    +0.000 A 
ATOM     24  C   UNL     1       3.401  14.927  19.044  0.00  0.00    +0.000 A 
ATOM     25  C   UNL     1       2.155  14.716  18.455  0.00  0.00    +0.000 A 
ATOM     26  C   UNL     1       1.191  13.939  19.107  0.00  0.00    +0.000 A 
ENDBRANCH   9  21
BRANCH   1  27
ATOM     27  N   UNL     1      -3.381  11.932  23.752  0.00  0.00    +0.000 N 
ATOM     28  H   UNL     1      -3.289  11.622  24.714  0.00  0.00    +0.000 HD
ATOM     29  H   UNL     1      -3.512  11.145  23.123  0.00  0.00    +0.000 HD
ENDBRANCH   1  27
TORSDOF 3
ENDMDL
MODEL 6
REMARK VINA RESULT:      -7.4      6.369      9.609
REMARK  Name = 
REMARK  3 active torsions:
REMARK  status: ('A' for Active; 'I' for Inactive)
REMARK    1  A    between atoms: N_1  and  C_2
REMARK    2  A    between atoms: C_9  and  C_10
REMARK    3  A    between atoms: N_17  and  C_18
REMARK                            x       y       z     vdW  Elec       q    Type
REMARK                         _______ _______ _______ _____ _____    ______ ____
ROOT
ATOM      1  C   UNL     1       0.181  16.028  19.103  0.00  0.00    +0.000 A 
ATOM      2  C   UNL     1       1.486  15.634  18.749  0.00  0.00    +0.000 A 
ATOM      3  C   UNL     1       1.937  14.369  19.137  0.00  0.00    +0.000 A 
ATOM      4  N   UNL     1       1.211  13.477  19.854  0.00  0.00    +0.000 NA
ATOM      5  C   UNL     1      -0.032  13.885  20.190  0.00  0.00    +0.000 A 
ATOM      6  C   UNL     1      -0.592  15.109  19.849  0.00  0.00    +0.000 A 
ATOM      7  C   UNL     1      -1.901  15.118  20.379  0.00  0.00    +0.000 A 
ATOM      8  C   UNL     1      -2.150  13.916  21.028  0.00  0.00    +0.000 A 
ATOM      9  N   UNL     1      -0.999  13.121  20.855  0.00  0.00    +0.000 N 
ATOM     10  C   UNL     1       3.302  13.866  18.729  0.00  0.00    +0.000 C 
ATOM     11  C   UNL     1       4.273  14.887  18.134  0.00  0.00    +0.000 C 
ATOM     12  C   UNL     1       3.843  16.334  18.314  0.00  0.00    +0.000 C 
ATOM     13  C   UNL     1       2.384  16.516  17.915  0.00  0.00    +0.000 C 
ENDROOT
BRANCH   8  14
ATOM     14  C   UNL     1      -3.375  13.584  21.790  0.00  0.00    +0.000 A 
ATOM     15  C   UNL     1      -3.448  13.903  23.157  0.00  0.00    +0.000 A 
ATOM     16  C   UNL     1      -4.604  13.643  23.901  0.00  0.00    +0.000 A 
ATOM     17  C   UNL     1      -5.712  13.078  23.279  0.00  0.00    +0.000 A 
ATOM     18 CL   UNL     1      -7.156  12.815  24.174  0.00  0.00    +0.000 Cl
ATOM     19  C   UNL     1      -5.653  12.724  21.935  0.00  0.00    +0.000 A 
ATOM     20  C   UNL     1      -4.478  12.939  21.208  0.00  0.00    +0.000 A 
ENDBRANCH   8  14
BRANCH   9  21
ATOM     21  C   UNL     1      -0.823  11.758  21.263  0.00  0.00    +0.000 A 
ATOM     22  C   UNL     1      -0.800  11.423  22.624  0.00  0.00    +0.000 A 
ATOM     23  C   UNL     1      -0.476  10.125  23.027  0.00  0.00    +0.000 A 
ATOM     24  C   UNL     1      -0.213   9.146  22.073  0.00  0.00    +0.000 A 
ATOM     25  C   UNL     1      -0.301   9.454  20.716  0.00  0.00    +0.000 A 
ATOM     26  C   UNL     1      -0.612  10.756  20.309  0.00  0.00    +0.000 A 
ENDBRANCH   9  21
BRANCH   1  27
ATOM     27  N   UNL     1      -0.357  17.252  18.667  0.00  0.00    +0.000 N 
ATOM     28  H   UNL     1      -0.629  17.246  17.689  0.00  0.00    +0.000 HD
ATOM     29  H   UNL     1       0.232  18.050  18.879  0.00  0.00    +0.000 HD
ENDBRANCH   1  27
TORSDOF 3
ENDMDL
MODEL 7
REMARK VINA RESULT:      -7.4      3.971      6.858
REMARK  Name = 
REMARK  3 active torsions:
REMARK  status: ('A' for Active; 'I' for Inactive)
REMARK    1  A    between atoms: N_1  and  C_2
REMARK    2  A    between atoms: C_9  and  C_10
REMARK    3  A    between atoms: N_17  and  C_18
REMARK                            x       y       z     vdW  Elec       q    Type
REMARK                         _______ _______ _______ _____ _____    ______ ____
ROOT
ATOM      1  C   UNL     1      -2.014  13.317  22.422  0.00  0.00    +0.000 A 
ATOM      2  C   UNL     1      -3.163  14.076  22.126  0.00  0.00    +0.000 A 
ATOM      3  C   UNL     1      -3.801  13.882  20.897  0.00  0.00    +0.000 A 
ATOM      4  N   UNL     1      -3.387  13.016  19.941  0.00  0.00    +0.000 NA
ATOM      5  C   UNL     1      -2.276  12.311  20.245  0.00  0.00    +0.000 A 
ATOM      6  C   UNL     1      -1.569  12.407  21.437  0.00  0.00    +0.000 A 
ATOM      7  C   UNL     1      -0.499  11.490  21.347  0.00  0.00    +0.000 A 
ATOM      8  C   UNL     1      -0.549  10.831  20.127  0.00  0.00    +0.000 A 
ATOM      9  N   UNL     1      -1.699  11.302  19.463  0.00  0.00    +0.000 N 
ATOM     10  C   UNL     1      -5.075  14.618  20.552  0.00  0.00    +0.000 C 
ATOM     11  C   UNL     1      -5.476  15.783  21.460  0.00  0.00    +0.000 C 
ATOM     12  C   UNL     1      -4.380  16.237  22.410  0.00  0.00    +0.000 C 
ATOM     13  C   UNL     1      -3.754  15.045  23.122  0.00  0.00    +0.000 C 
ENDROOT
BRANCH   8  14
ATOM     14  C   UNL     1       0.455   9.865  19.625  0.00  0.00    +0.000 A 
ATOM     15  C   UNL     1       0.921   8.846  20.474  0.00  0.00    +0.000 A 
ATOM     16  C   UNL     1       1.837   7.890  20.023  0.00  0.00    +0.000 A 
ATOM     17  C   UNL     1       2.285   7.930  18.706  0.00  0.00    +0.000 A 
ATOM     18 CL   UNL     1       3.363   6.721  18.130  0.00  0.00    +0.000 Cl
ATOM     19  C   UNL     1       1.863   8.948  17.856  0.00  0.00    +0.000 A 
ATOM     20  C   UNL     1       0.986   9.930  18.327  0.00  0.00    +0.000 A 
ENDBRANCH   8  14
BRANCH   9  21
ATOM     21  C   UNL     1      -2.223  10.840  18.212  0.00  0.00    +0.000 A 
ATOM     22  C   UNL     1      -2.034  11.590  17.042  0.00  0.00    +0.000 A 
ATOM     23  C   UNL     1      -2.673  11.223  15.856  0.00  0.00    +0.000 A 
ATOM     24  C   UNL     1      -3.471  10.082  15.820  0.00  0.00    +0.000 A 
ATOM     25  C   UNL     1      -3.609   9.292  16.960  0.00  0.00    +0.000 A 
ATOM     26  C   UNL     1      -2.982   9.665  18.155  0.00  0.00    +0.000 A 
ENDBRANCH   9  21
BRANCH   1  27
ATOM     27  N   UNL     1      -1.382  13.406  23.675  0.00  0.00    +0.000 N 
ATOM     28  H   UNL     1      -1.725  14.173  24.245  0.00  0.00    +0.000 HD
ATOM     29  H   UNL     1      -0.369  13.417  23.616  0.00  0.00    +0.000 HD
ENDBRANCH   1  27
TORSDOF 3
ENDMDL
MODEL 8
REMARK VINA RESULT:      -7.3      4.143      7.053
REMARK  Name = 
REMARK  3 active torsions:
REMARK  status: ('A' for Active; 'I' for Inactive)
REMARK    1  A    between atoms: N_1  and  C_2
REMARK    2  A    between atoms: C_9  and  C_10
REMARK    3  A    between atoms: N_17  and  C_18
REMARK                            x       y       z     vdW  Elec       q    Type
REMARK                         _______ _______ _______ _____ _____    ______ ____
ROOT
ATOM      1  C   UNL     1       2.145  15.259  19.353  0.00  0.00    +0.000 A 
ATOM      2  C   UNL     1       1.250  16.311  19.084  0.00  0.00    +0.000 A 
ATOM      3  C   UNL     1      -0.063  16.001  18.715  0.00  0.00    +0.000 A 
ATOM      4  N   UNL     1      -0.550  14.744  18.579  0.00  0.00    +0.000 NA
ATOM      5  C   UNL     1       0.333  13.755  18.832  0.00  0.00    +0.000 A 
ATOM      6  C   UNL     1       1.654  13.940  19.219  0.00  0.00    +0.000 A 
ATOM      7  C   UNL     1       2.209  12.654  19.395  0.00  0.00    +0.000 A 
ATOM      8  C   UNL     1       1.246  11.689  19.132  0.00  0.00    +0.000 A 
ATOM      9  N   UNL     1       0.054  12.382  18.839  0.00  0.00    +0.000 N 
ATOM     10  C   UNL     1      -1.086  17.088  18.479  0.00  0.00    +0.000 C 
ATOM     11  C   UNL     1      -0.568  18.523  18.372  0.00  0.00    +0.000 C 
ATOM     12  C   UNL     1       0.940  18.631  18.214  0.00  0.00    +0.000 C 
ATOM     13  C   UNL     1       1.653  17.758  19.239  0.00  0.00    +0.000 C 
ENDROOT
BRANCH   8  14
ATOM     14  C   UNL     1       1.472  10.226  19.117  0.00  0.00    +0.000 A 
ATOM     15  C   UNL     1       1.970   9.614  17.954  0.00  0.00    +0.000 A 
ATOM     16  C   UNL     1       2.235   8.241  17.915  0.00  0.00    +0.000 A 
ATOM     17  C   UNL     1       2.024   7.464  19.049  0.00  0.00    +0.000 A 
ATOM     18 CL   UNL     1       2.407   5.789  19.025  0.00  0.00    +0.000 Cl
ATOM     19  C   UNL     1       1.501   8.041  20.202  0.00  0.00    +0.000 A 
ATOM     20  C   UNL     1       1.190   9.405  20.220  0.00  0.00    +0.000 A 
ENDBRANCH   8  14
BRANCH   9  21
ATOM     21  C   UNL     1      -1.238  11.811  18.601  0.00  0.00    +0.000 A 
ATOM     22  C   UNL     1      -1.428  10.897  17.554  0.00  0.00    +0.000 A 
ATOM     23  C   UNL     1      -2.712  10.459  17.223  0.00  0.00    +0.000 A 
ATOM     24  C   UNL     1      -3.809  10.899  17.960  0.00  0.00    +0.000 A 
ATOM     25  C   UNL     1      -3.622  11.753  19.045  0.00  0.00    +0.000 A 
ATOM     26  C   UNL     1      -2.338  12.206  19.371  0.00  0.00    +0.000 A 
ENDBRANCH   9  21
BRANCH   1  27
ATOM     27  N   UNL     1       3.451  15.510  19.812  0.00  0.00    +0.000 N 
ATOM     28  H   UNL     1       3.567  15.341  20.806  0.00  0.00    +0.000 HD
ATOM     29  H   UNL     1       3.802  16.426  19.551  0.00  0.00    +0.000 HD
ENDBRANCH   1  27
TORSDOF 3
ENDMDL
MODEL 9
REMARK VINA RESULT:      -7.2      8.918     11.312
REMARK  Name = 
REMARK  3 active torsions:
REMARK  status: ('A' for Active; 'I' for Inactive)
REMARK    1  A    between atoms: N_1  and  C_2
REMARK    2  A    between atoms: C_9  and  C_10
REMARK    3  A    between atoms: N_17  and  C_18
REMARK                            x       y       z     vdW  Elec       q    Type
REMARK                         _______ _______ _______ _____ _____    ______ ____
ROOT
ATOM      1  C   UNL     1       8.569  14.347  18.530  0.00  0.00    +0.000 A 
ATOM      2  C   UNL     1       9.637  13.430  18.562  0.00  0.00    +0.000 A 
ATOM      3  C   UNL     1       9.891  12.733  19.747  0.00  0.00    +0.000 A 
ATOM      4  N   UNL     1       9.189  12.881  20.895  0.00  0.00    +0.000 NA
ATOM      5  C   UNL     1       8.178  13.775  20.840  0.00  0.00    +0.000 A 
ATOM      6  C   UNL     1       7.823  14.513  19.719  0.00  0.00    +0.000 A 
ATOM      7  C   UNL     1       6.712  15.303  20.089  0.00  0.00    +0.000 A 
ATOM      8  C   UNL     1       6.379  15.050  21.412  0.00  0.00    +0.000 A 
ATOM      9  N   UNL     1       7.261  14.047  21.863  0.00  0.00    +0.000 N 
ATOM     10  C   UNL     1      10.981  11.689  19.821  0.00  0.00    +0.000 C 
ATOM     11  C   UNL     1      11.973  11.630  18.658  0.00  0.00    +0.000 C 
ATOM     12  C   UNL     1      11.913  12.831  17.728  0.00  0.00    +0.000 C 
ATOM     13  C   UNL     1      10.473  13.140  17.338  0.00  0.00    +0.000 C 
ENDROOT
BRANCH   8  14
ATOM     14  C   UNL     1       5.332  15.753  22.188  0.00  0.00    +0.000 A 
ATOM     15  C   UNL     1       3.978  15.502  21.909  0.00  0.00    +0.000 A 
ATOM     16  C   UNL     1       2.960  16.115  22.648  0.00  0.00    +0.000 A 
ATOM     17  C   UNL     1       3.287  16.972  23.694  0.00  0.00    +0.000 A 
ATOM     18 CL   UNL     1       2.041  17.678  24.645  0.00  0.00    +0.000 Cl
ATOM     19  C   UNL     1       4.620  17.261  23.969  0.00  0.00    +0.000 A 
ATOM     20  C   UNL     1       5.632  16.685  23.194  0.00  0.00    +0.000 A 
ENDBRANCH   8  14
BRANCH   9  21
ATOM     21  C   UNL     1       7.239  13.389  23.136  0.00  0.00    +0.000 A 
ATOM     22  C   UNL     1       8.070  13.827  24.176  0.00  0.00    +0.000 A 
ATOM     23  C   UNL     1       8.164  13.094  25.362  0.00  0.00    +0.000 A 
ATOM     24  C   UNL     1       7.398  11.944  25.532  0.00  0.00    +0.000 A 
ATOM     25  C   UNL     1       6.517  11.540  24.530  0.00  0.00    +0.000 A 
ATOM     26  C   UNL     1       6.431  12.263  23.335  0.00  0.00    +0.000 A 
ENDBRANCH   9  21
BRANCH   1  27
ATOM     27  N   UNL     1       8.212  15.012  17.343  0.00  0.00    +0.000 N 
ATOM     28  H   UNL     1       7.582  14.476  16.755  0.00  0.00    +0.000 HD
ATOM     29  H   UNL     1       9.009  15.351  16.814  0.00  0.00    +0.000 HD
ENDBRANCH   1  27
TORSDOF 3
ENDMDL
