MODEL 1
REMARK VINA RESULT:      -8.5      0.000      0.000
REMARK  Name = 
REMARK  9 active torsions:
REMARK  status: ('A' for Active; 'I' for Inactive)
REMARK    1  A    between atoms: C_1  and  C_2
REMARK    2  A    between atoms: C_5  and  S_6
REMARK    3  A    between atoms: S_6  and  C_9
REMARK    4  A    between atoms: C_9  and  C_10
REMARK    5  A    between atoms: C_9  and  C_22
REMARK    6  A    between atoms: C_10  and  N_11
REMARK    7  A    between atoms: C_12  and  C_14
REMARK    8  A    between atoms: C_14  and  O_15
REMARK    9  A    between atoms: O_15  and  C_16
REMARK                            x       y       z     vdW  Elec       q    Type
REMARK                         _______ _______ _______ _____ _____    ______ ____
ROOT
ATOM      1  C   UNL     1       3.701   5.486  19.598  0.00  0.00    +0.000 C 
ENDROOT
BRANCH   1   2
ATOM      2  C   UNL     1       2.590   4.491  19.790  0.00  0.00    +0.000 A 
ATOM      3  C   UNL     1       1.725   3.816  18.948  0.00  0.00    +0.000 A 
ATOM      4  C   UNL     1       0.919   2.990  19.764  0.00  0.00    +0.000 A 
ATOM      5  C   UNL     1       1.325   3.221  21.056  0.00  0.00    +0.000 A 
ATOM      6  O   UNL     1       2.328   4.135  21.086  0.00  0.00    +0.000 OA
ENDBRANCH   1   2
BRANCH   1   7
ATOM      7  S   UNL     1       5.205   4.588  19.251  0.00  0.00    +0.000 S 
ATOM      8  O   UNL     1       5.001   3.182  19.556  0.00  0.00    +0.000 OA
ATOM      9  O   UNL     1       6.305   5.302  19.879  0.00  0.00    +0.000 OA
BRANCH   7  14
ATOM     10  C   UNL     1       6.769   4.232  13.415  0.00  0.00    +0.000 C 
ATOM     11  C   UNL     1       6.310   4.469  14.825  0.00  0.00    +0.000 A 
ATOM     12  C   UNL     1       7.088   5.214  15.722  0.00  0.00    +0.000 A 
ATOM     13  C   UNL     1       6.713   5.328  17.065  0.00  0.00    +0.000 A 
ATOM     14  C   UNL     1       5.544   4.703  17.507  0.00  0.00    +0.000 A 
ATOM     15  C   UNL     1       4.743   3.985  16.614  0.00  0.00    +0.000 A 
ATOM     16  C   UNL     1       5.132   3.864  15.281  0.00  0.00    +0.000 A 
ENDBRANCH   7  14
ENDBRANCH   1   7
BRANCH   1  17
ATOM     17  C   UNL     1       3.338   6.564  18.576  0.00  0.00    +0.000 C 
BRANCH  17  18
ATOM     18  N   UNL     1       2.274   7.476  18.970  0.00  0.00    +0.000 N 
ATOM     19  C   UNL     1       2.011   8.639  18.276  0.00  0.00    +0.000 C 
ATOM     20  O   UNL     1       2.698   9.010  17.326  0.00  0.00    +0.000 OA
ATOM     21  H   UNL     1       1.754   7.294  19.824  0.00  0.00    +0.000 HD
BRANCH  19  22
ATOM     22  C   UNL     1       0.767   9.397  18.735  0.00  0.00    +0.000 C 
BRANCH  22  23
ATOM     23  O   UNL     1       1.122  10.469  19.598  0.00  0.00    +0.000 OA
BRANCH  23  24
ATOM     24  C   UNL     1       0.409  10.545  20.767  0.00  0.00    +0.000 A 
ATOM     25  C   UNL     1       0.509   9.428  21.600  0.00  0.00    +0.000 A 
ATOM     26  C   UNL     1      -0.195   9.375  22.805  0.00  0.00    +0.000 A 
ATOM     27  C   UNL     1      -0.990  10.449  23.195  0.00  0.00    +0.000 A 
ATOM     28  C   UNL     1      -1.069  11.582  22.386  0.00  0.00    +0.000 A 
ATOM     29  C   UNL     1      -0.368  11.633  21.177  0.00  0.00    +0.000 A 
ENDBRANCH  23  24
ENDBRANCH  22  23
ENDBRANCH  19  22
ENDBRANCH  17  18
ENDBRANCH   1  17
TORSDOF 8
ENDMDL
MODEL 2
REMARK VINA RESULT:      -8.2      0.522      1.035
REMARK  Name = 
REMARK  9 active torsions:
REMARK  status: ('A' for Active; 'I' for Inactive)
REMARK    1  A    between atoms: C_1  and  C_2
REMARK    2  A    between atoms: C_5  and  S_6
REMARK    3  A    between atoms: S_6  and  C_9
REMARK    4  A    between atoms: C_9  and  C_10
REMARK    5  A    between atoms: C_9  and  C_22
REMARK    6  A    between atoms: C_10  and  N_11
REMARK    7  A    between atoms: C_12  and  C_14
REMARK    8  A    between atoms: C_14  and  O_15
REMARK    9  A    between atoms: O_15  and  C_16
REMARK                            x       y       z     vdW  Elec       q    Type
REMARK                         _______ _______ _______ _____ _____    ______ ____
ROOT
ATOM      1  C   UNL     1       3.625   5.352  19.499  0.00  0.00    +0.000 C 
ENDROOT
BRANCH   1   2
ATOM      2  C   UNL     1       2.572   4.278  19.512  0.00  0.00    +0.000 A 
ATOM      3  C   UNL     1       1.696   3.757  18.578  0.00  0.00    +0.000 A 
ATOM      4  C   UNL     1       0.974   2.727  19.224  0.00  0.00    +0.000 A 
ATOM      5  C   UNL     1       1.437   2.691  20.516  0.00  0.00    +0.000 A 
ATOM      6  O   UNL     1       2.398   3.632  20.706  0.00  0.00    +0.000 OA
ENDBRANCH   1   2
BRANCH   1   7
ATOM      7  S   UNL     1       5.202   4.589  19.156  0.00  0.00    +0.000 S 
ATOM      8  O   UNL     1       5.140   3.184  19.520  0.00  0.00    +0.000 OA
ATOM      9  O   UNL     1       6.238   5.430  19.734  0.00  0.00    +0.000 OA
BRANCH   7  14
ATOM     10  C   UNL     1       6.617   4.097  13.292  0.00  0.00    +0.000 C 
ATOM     11  C   UNL     1       6.196   4.368  14.708  0.00  0.00    +0.000 A 
ATOM     12  C   UNL     1       7.003   5.124  15.570  0.00  0.00    +0.000 A 
ATOM     13  C   UNL     1       6.662   5.269  16.919  0.00  0.00    +0.000 A 
ATOM     14  C   UNL     1       5.499   4.665  17.402  0.00  0.00    +0.000 A 
ATOM     15  C   UNL     1       4.669   3.937  16.545  0.00  0.00    +0.000 A 
ATOM     16  C   UNL     1       5.023   3.784  15.205  0.00  0.00    +0.000 A 
ENDBRANCH   7  14
ENDBRANCH   1   7
BRANCH   1  17
ATOM     17  C   UNL     1       3.250   6.514  18.577  0.00  0.00    +0.000 C 
BRANCH  17  18
ATOM     18  N   UNL     1       2.460   7.574  19.185  0.00  0.00    +0.000 N 
ATOM     19  C   UNL     1       1.990   8.647  18.455  0.00  0.00    +0.000 C 
ATOM     20  O   UNL     1       2.264   8.808  17.268  0.00  0.00    +0.000 OA
ATOM     21  H   UNL     1       2.309   7.568  20.189  0.00  0.00    +0.000 HD
BRANCH  19  22
ATOM     22  C   UNL     1       1.053   9.583  19.216  0.00  0.00    +0.000 C 
BRANCH  22  23
ATOM     23  O   UNL     1       1.209   9.418  20.620  0.00  0.00    +0.000 OA
BRANCH  23  24
ATOM     24  C   UNL     1       0.393  10.196  21.399  0.00  0.00    +0.000 A 
ATOM     25  C   UNL     1       0.339  11.546  21.043  0.00  0.00    +0.000 A 
ATOM     26  C   UNL     1      -0.436  12.445  21.779  0.00  0.00    +0.000 A 
ATOM     27  C   UNL     1      -1.179  11.995  22.867  0.00  0.00    +0.000 A 
ATOM     28  C   UNL     1      -1.159  10.643  23.208  0.00  0.00    +0.000 A 
ATOM     29  C   UNL     1      -0.379   9.745  22.473  0.00  0.00    +0.000 A 
ENDBRANCH  23  24
ENDBRANCH  22  23
ENDBRANCH  19  22
ENDBRANCH  17  18
ENDBRANCH   1  17
TORSDOF 8
ENDMDL
MODEL 3
REMARK VINA RESULT:      -8.1      1.680      2.523
REMARK  Name = 
REMARK  9 active torsions:
REMARK  status: ('A' for Active; 'I' for Inactive)
REMARK    1  A    between atoms: C_1  and  C_2
REMARK    2  A    between atoms: C_5  and  S_6
REMARK    3  A    between atoms: S_6  and  C_9
REMARK    4  A    between atoms: C_9  and  C_10
REMARK    5  A    between atoms: C_9  and  C_22
REMARK    6  A    between atoms: C_10  and  N_11
REMARK    7  A    between atoms: C_12  and  C_14
REMARK    8  A    between atoms: C_14  and  O_15
REMARK    9  A    between atoms: O_15  and  C_16
REMARK                            x       y       z     vdW  Elec       q    Type
REMARK                         _______ _______ _______ _____ _____    ______ ____
ROOT
ATOM      1  C   UNL     1       3.346   5.187  19.443  0.00  0.00    +0.000 C 
ENDROOT
BRANCH   1   2
ATOM      2  C   UNL     1       2.511   4.150  20.143  0.00  0.00    +0.000 A 
ATOM      3  C   UNL     1       2.320   3.775  21.460  0.00  0.00    +0.000 A 
ATOM      4  C   UNL     1       1.369   2.729  21.454  0.00  0.00    +0.000 A 
ATOM      5  C   UNL     1       1.048   2.514  20.136  0.00  0.00    +0.000 A 
ATOM      6  O   UNL     1       1.741   3.361  19.332  0.00  0.00    +0.000 OA
ENDBRANCH   1   2
BRANCH   1   7
ATOM      7  S   UNL     1       4.684   4.356  18.602  0.00  0.00    +0.000 S 
ATOM      8  O   UNL     1       4.197   3.825  17.340  0.00  0.00    +0.000 OA
ATOM      9  O   UNL     1       5.321   3.461  19.554  0.00  0.00    +0.000 OA
BRANCH   7  14
ATOM     10  C   UNL     1       8.628   8.898  17.928  0.00  0.00    +0.000 C 
ATOM     11  C   UNL     1       7.726   7.698  17.963  0.00  0.00    +0.000 A 
ATOM     12  C   UNL     1       6.572   7.638  17.168  0.00  0.00    +0.000 A 
ATOM     13  C   UNL     1       5.675   6.572  17.296  0.00  0.00    +0.000 A 
ATOM     14  C   UNL     1       5.942   5.556  18.215  0.00  0.00    +0.000 A 
ATOM     15  C   UNL     1       7.105   5.588  18.990  0.00  0.00    +0.000 A 
ATOM     16  C   UNL     1       7.988   6.661  18.868  0.00  0.00    +0.000 A 
ENDBRANCH   7  14
ENDBRANCH   1   7
BRANCH   1  17
ATOM     17  C   UNL     1       2.499   6.109  18.563  0.00  0.00    +0.000 C 
BRANCH  17  18
ATOM     18  N   UNL     1       2.193   7.415  19.128  0.00  0.00    +0.000 N 
ATOM     19  C   UNL     1       2.097   8.548  18.345  0.00  0.00    +0.000 C 
ATOM     20  O   UNL     1       2.329   8.536  17.138  0.00  0.00    +0.000 OA
ATOM     21  H   UNL     1       2.120   7.516  20.136  0.00  0.00    +0.000 HD
BRANCH  19  22
ATOM     22  C   UNL     1       1.621   9.800  19.078  0.00  0.00    +0.000 C 
BRANCH  22  23
ATOM     23  O   UNL     1       0.217   9.750  19.297  0.00  0.00    +0.000 OA
BRANCH  23  24
ATOM     24  C   UNL     1      -0.185   9.966  20.590  0.00  0.00    +0.000 A 
ATOM     25  C   UNL     1      -0.750  11.220  20.836  0.00  0.00    +0.000 A 
ATOM     26  C   UNL     1      -1.172  11.570  22.121  0.00  0.00    +0.000 A 
ATOM     27  C   UNL     1      -1.050  10.657  23.166  0.00  0.00    +0.000 A 
ATOM     28  C   UNL     1      -0.520   9.392  22.922  0.00  0.00    +0.000 A 
ATOM     29  C   UNL     1      -0.092   9.045  21.636  0.00  0.00    +0.000 A 
ENDBRANCH  23  24
ENDBRANCH  22  23
ENDBRANCH  19  22
ENDBRANCH  17  18
ENDBRANCH   1  17
TORSDOF 8
ENDMDL
MODEL 4
REMARK VINA RESULT:      -8.1      1.691      2.254
REMARK  Name = 
REMARK  9 active torsions:
REMARK  status: ('A' for Active; 'I' for Inactive)
REMARK    1  A    between atoms: C_1  and  C_2
REMARK    2  A    between atoms: C_5  and  S_6
REMARK    3  A    between atoms: S_6  and  C_9
REMARK    4  A    between atoms: C_9  and  C_10
REMARK    5  A    between atoms: C_9  and  C_22
REMARK    6  A    between atoms: C_10  and  N_11
REMARK    7  A    between atoms: C_12  and  C_14
REMARK    8  A    between atoms: C_14  and  O_15
REMARK    9  A    between atoms: O_15  and  C_16
REMARK                            x       y       z     vdW  Elec       q    Type
REMARK                         _______ _______ _______ _____ _____    ______ ____
ROOT
ATOM      1  C   UNL     1       3.799   5.558  19.630  0.00  0.00    +0.000 C 
ENDROOT
BRANCH   1   2
ATOM      2  C   UNL     1       2.712   4.599  20.031  0.00  0.00    +0.000 A 
ATOM      3  C   UNL     1       2.236   4.108  21.233  0.00  0.00    +0.000 A 
ATOM      4  C   UNL     1       1.161   3.243  20.925  0.00  0.00    +0.000 A 
ATOM      5  C   UNL     1       1.055   3.241  19.556  0.00  0.00    +0.000 A 
ATOM      6  O   UNL     1       1.995   4.050  19.003  0.00  0.00    +0.000 OA
ENDBRANCH   1   2
BRANCH   1   7
ATOM      7  S   UNL     1       5.262   4.614  19.232  0.00  0.00    +0.000 S 
ATOM      8  O   UNL     1       5.038   3.221  19.578  0.00  0.00    +0.000 OA
ATOM      9  O   UNL     1       6.408   5.312  19.791  0.00  0.00    +0.000 OA
BRANCH   7  14
ATOM     10  C   UNL     1       6.523   4.089  13.336  0.00  0.00    +0.000 C 
ATOM     11  C   UNL     1       6.143   4.370  14.761  0.00  0.00    +0.000 A 
ATOM     12  C   UNL     1       6.992   5.101  15.604  0.00  0.00    +0.000 A 
ATOM     13  C   UNL     1       6.688   5.254  16.961  0.00  0.00    +0.000 A 
ATOM     14  C   UNL     1       5.519   4.683  17.471  0.00  0.00    +0.000 A 
ATOM     15  C   UNL     1       4.649   3.981  16.633  0.00  0.00    +0.000 A 
ATOM     16  C   UNL     1       4.967   3.820  15.285  0.00  0.00    +0.000 A 
ENDBRANCH   7  14
ENDBRANCH   1   7
BRANCH   1  17
ATOM     17  C   UNL     1       3.336   6.529  18.542  0.00  0.00    +0.000 C 
BRANCH  17  18
ATOM     18  N   UNL     1       2.338   7.506  18.950  0.00  0.00    +0.000 N 
ATOM     19  C   UNL     1       2.011   8.592  18.164  0.00  0.00    +0.000 C 
ATOM     20  O   UNL     1       2.588   8.838  17.107  0.00  0.00    +0.000 OA
ATOM     21  H   UNL     1       1.918   7.432  19.873  0.00  0.00    +0.000 HD
BRANCH  19  22
ATOM     22  C   UNL     1       0.839   9.428  18.674  0.00  0.00    +0.000 C 
BRANCH  22  23
ATOM     23  O   UNL     1       0.011   9.844  17.595  0.00  0.00    +0.000 OA
BRANCH  23  24
ATOM     24  C   UNL     1      -1.189  10.401  17.954  0.00  0.00    +0.000 A 
ATOM     25  C   UNL     1      -1.109  11.433  18.892  0.00  0.00    +0.000 A 
ATOM     26  C   UNL     1      -2.266  12.061  19.359  0.00  0.00    +0.000 A 
ATOM     27  C   UNL     1      -3.513  11.673  18.874  0.00  0.00    +0.000 A 
ATOM     28  C   UNL     1      -3.598  10.667  17.911  0.00  0.00    +0.000 A 
ATOM     29  C   UNL     1      -2.439  10.036  17.449  0.00  0.00    +0.000 A 
ENDBRANCH  23  24
ENDBRANCH  22  23
ENDBRANCH  19  22
ENDBRANCH  17  18
ENDBRANCH   1  17
TORSDOF 8
ENDMDL
MODEL 5
REMARK VINA RESULT:      -7.9      5.218      7.818
REMARK  Name = 
REMARK  9 active torsions:
REMARK  status: ('A' for Active; 'I' for Inactive)
REMARK    1  A    between atoms: C_1  and  C_2
REMARK    2  A    between atoms: C_5  and  S_6
REMARK    3  A    between atoms: S_6  and  C_9
REMARK    4  A    between atoms: C_9  and  C_10
REMARK    5  A    between atoms: C_9  and  C_22
REMARK    6  A    between atoms: C_10  and  N_11
REMARK    7  A    between atoms: C_12  and  C_14
REMARK    8  A    between atoms: C_14  and  O_15
REMARK    9  A    between atoms: O_15  and  C_16
REMARK                            x       y       z     vdW  Elec       q    Type
REMARK                         _______ _______ _______ _____ _____    ______ ____
ROOT
ATOM      1  C   UNL     1       6.671   6.495  17.576  0.00  0.00    +0.000 C 
ENDROOT
BRANCH   1   2
ATOM      2  C   UNL     1       6.407   5.819  16.259  0.00  0.00    +0.000 A 
ATOM      3  C   UNL     1       5.297   5.264  15.649  0.00  0.00    +0.000 A 
ATOM      4  C   UNL     1       5.713   4.806  14.378  0.00  0.00    +0.000 A 
ATOM      5  C   UNL     1       7.054   5.091  14.292  0.00  0.00    +0.000 A 
ATOM      6  O   UNL     1       7.489   5.695  15.428  0.00  0.00    +0.000 OA
ENDBRANCH   1   2
BRANCH   1   7
ATOM      7  S   UNL     1       6.615   5.258  18.863  0.00  0.00    +0.000 S 
ATOM      8  O   UNL     1       7.103   5.838  20.102  0.00  0.00    +0.000 OA
ATOM      9  O   UNL     1       7.238   4.050  18.347  0.00  0.00    +0.000 OA
BRANCH   7  14
ATOM     10  C   UNL     1       1.005   3.810  20.613  0.00  0.00    +0.000 C 
ATOM     11  C   UNL     1       2.346   4.135  20.021  0.00  0.00    +0.000 A 
ATOM     12  C   UNL     1       3.297   3.131  19.791  0.00  0.00    +0.000 A 
ATOM     13  C   UNL     1       4.586   3.458  19.354  0.00  0.00    +0.000 A 
ATOM     14  C   UNL     1       4.916   4.797  19.133  0.00  0.00    +0.000 A 
ATOM     15  C   UNL     1       3.966   5.804  19.326  0.00  0.00    +0.000 A 
ATOM     16  C   UNL     1       2.689   5.471  19.776  0.00  0.00    +0.000 A 
ENDBRANCH   7  14
ENDBRANCH   1   7
BRANCH   1  17
ATOM     17  C   UNL     1       7.945   7.341  17.544  0.00  0.00    +0.000 C 
BRANCH  17  18
ATOM     18  N   UNL     1       7.747   8.776  17.402  0.00  0.00    +0.000 N 
ATOM     19  C   UNL     1       8.412   9.690  18.194  0.00  0.00    +0.000 C 
ATOM     20  O   UNL     1       9.158   9.348  19.109  0.00  0.00    +0.000 OA
ATOM     21  H   UNL     1       7.044   9.119  16.752  0.00  0.00    +0.000 HD
BRANCH  19  22
ATOM     22  C   UNL     1       8.200  11.152  17.808  0.00  0.00    +0.000 C 
BRANCH  22  23
ATOM     23  O   UNL     1       8.910  12.012  18.691  0.00  0.00    +0.000 OA
BRANCH  23  24
ATOM     24  C   UNL     1       9.778  12.887  18.089  0.00  0.00    +0.000 A 
ATOM     25  C   UNL     1       9.522  14.239  18.330  0.00  0.00    +0.000 A 
ATOM     26  C   UNL     1      10.319  15.228  17.748  0.00  0.00    +0.000 A 
ATOM     27  C   UNL     1      11.392  14.869  16.936  0.00  0.00    +0.000 A 
ATOM     28  C   UNL     1      11.675  13.521  16.719  0.00  0.00    +0.000 A 
ATOM     29  C   UNL     1      10.873  12.532  17.297  0.00  0.00    +0.000 A 
ENDBRANCH  23  24
ENDBRANCH  22  23
ENDBRANCH  19  22
ENDBRANCH  17  18
ENDBRANCH   1  17
TORSDOF 8
ENDMDL
MODEL 6
REMARK VINA RESULT:      -7.9      2.168      3.222
REMARK  Name = 
REMARK  9 active torsions:
REMARK  status: ('A' for Active; 'I' for Inactive)
REMARK    1  A    between atoms: C_1  and  C_2
REMARK    2  A    between atoms: C_5  and  S_6
REMARK    3  A    between atoms: S_6  and  C_9
REMARK    4  A    between atoms: C_9  and  C_10
REMARK    5  A    between atoms: C_9  and  C_22
REMARK    6  A    between atoms: C_10  and  N_11
REMARK    7  A    between atoms: C_12  and  C_14
REMARK    8  A    between atoms: C_14  and  O_15
REMARK    9  A    between atoms: O_15  and  C_16
REMARK                            x       y       z     vdW  Elec       q    Type
REMARK                         _______ _______ _______ _____ _____    ______ ____
ROOT
ATOM      1  C   UNL     1       3.530   5.277  19.065  0.00  0.00    +0.000 C 
ENDROOT
BRANCH   1   2
ATOM      2  C   UNL     1       2.493   4.214  19.300  0.00  0.00    +0.000 A 
ATOM      3  C   UNL     1       1.534   3.592  18.521  0.00  0.00    +0.000 A 
ATOM      4  C   UNL     1       0.887   2.644  19.346  0.00  0.00    +0.000 A 
ATOM      5  C   UNL     1       1.472   2.754  20.583  0.00  0.00    +0.000 A 
ATOM      6  O   UNL     1       2.439   3.708  20.571  0.00  0.00    +0.000 OA
ENDBRANCH   1   2
BRANCH   1   7
ATOM      7  S   UNL     1       4.980   4.502  18.368  0.00  0.00    +0.000 S 
ATOM      8  O   UNL     1       4.647   3.956  17.064  0.00  0.00    +0.000 OA
ATOM      9  O   UNL     1       5.549   3.630  19.382  0.00  0.00    +0.000 OA
BRANCH   7  14
ATOM     10  C   UNL     1       8.828   9.168  18.146  0.00  0.00    +0.000 C 
ATOM     11  C   UNL     1       7.958   7.947  18.069  0.00  0.00    +0.000 A 
ATOM     12  C   UNL     1       6.848   7.904  17.214  0.00  0.00    +0.000 A 
ATOM     13  C   UNL     1       5.974   6.811  17.237  0.00  0.00    +0.000 A 
ATOM     14  C   UNL     1       6.223   5.752  18.112  0.00  0.00    +0.000 A 
ATOM     15  C   UNL     1       7.344   5.769  18.946  0.00  0.00    +0.000 A 
ATOM     16  C   UNL     1       8.202   6.867  18.927  0.00  0.00    +0.000 A 
ENDBRANCH   7  14
ENDBRANCH   1   7
BRANCH   1  17
ATOM     17  C   UNL     1       2.974   6.456  18.263  0.00  0.00    +0.000 C 
BRANCH  17  18
ATOM     18  N   UNL     1       2.250   7.458  19.031  0.00  0.00    +0.000 N 
ATOM     19  C   UNL     1       1.850   8.657  18.478  0.00  0.00    +0.000 C 
ATOM     20  O   UNL     1       2.137   8.980  17.327  0.00  0.00    +0.000 OA
ATOM     21  H   UNL     1       2.097   7.307  20.024  0.00  0.00    +0.000 HD
BRANCH  19  22
ATOM     22  C   UNL     1       0.973   9.522  19.380  0.00  0.00    +0.000 C 
BRANCH  22  23
ATOM     23  O   UNL     1       0.535  10.685  18.689  0.00  0.00    +0.000 OA
BRANCH  23  24
ATOM     24  C   UNL     1      -0.799  10.714  18.372  0.00  0.00    +0.000 A 
ATOM     25  C   UNL     1      -1.550  11.679  19.048  0.00  0.00    +0.000 A 
ATOM     26  C   UNL     1      -2.927  11.787  18.831  0.00  0.00    +0.000 A 
ATOM     27  C   UNL     1      -3.557  10.943  17.921  0.00  0.00    +0.000 A 
ATOM     28  C   UNL     1      -2.808  10.001  17.217  0.00  0.00    +0.000 A 
ATOM     29  C   UNL     1      -1.432   9.889  17.438  0.00  0.00    +0.000 A 
ENDBRANCH  23  24
ENDBRANCH  22  23
ENDBRANCH  19  22
ENDBRANCH  17  18
ENDBRANCH   1  17
TORSDOF 8
ENDMDL
MODEL 7
REMARK VINA RESULT:      -7.8      1.413      2.042
REMARK  Name = 
REMARK  9 active torsions:
REMARK  status: ('A' for Active; 'I' for Inactive)
REMARK    1  A    between atoms: C_1  and  C_2
REMARK    2  A    between atoms: C_5  and  S_6
REMARK    3  A    between atoms: S_6  and  C_9
REMARK    4  A    between atoms: C_9  and  C_10
REMARK    5  A    between atoms: C_9  and  C_22
REMARK    6  A    between atoms: C_10  and  N_11
REMARK    7  A    between atoms: C_12  and  C_14
REMARK    8  A    between atoms: C_14  and  O_15
REMARK    9  A    between atoms: O_15  and  C_16
REMARK                            x       y       z     vdW  Elec       q    Type
REMARK                         _______ _______ _______ _____ _____    ______ ____
ROOT
ATOM      1  C   UNL     1       3.770   5.498  19.578  0.00  0.00    +0.000 C 
ENDROOT
BRANCH   1   2
ATOM      2  C   UNL     1       2.656   4.511  19.793  0.00  0.00    +0.000 A 
ATOM      3  C   UNL     1       1.756   3.858  18.971  0.00  0.00    +0.000 A 
ATOM      4  C   UNL     1       0.970   3.027  19.802  0.00  0.00    +0.000 A 
ATOM      5  C   UNL     1       1.422   3.235  21.082  0.00  0.00    +0.000 A 
ATOM      6  O   UNL     1       2.435   4.138  21.091  0.00  0.00    +0.000 OA
ENDBRANCH   1   2
BRANCH   1   7
ATOM      7  S   UNL     1       5.259   4.590  19.196  0.00  0.00    +0.000 S 
ATOM      8  O   UNL     1       5.061   3.190  19.530  0.00  0.00    +0.000 OA
ATOM      9  O   UNL     1       6.381   5.309  19.776  0.00  0.00    +0.000 OA
BRANCH   7  14
ATOM     10  C   UNL     1       6.587   4.114  13.310  0.00  0.00    +0.000 C 
ATOM     11  C   UNL     1       6.194   4.385  14.734  0.00  0.00    +0.000 A 
ATOM     12  C   UNL     1       7.045   5.089  15.597  0.00  0.00    +0.000 A 
ATOM     13  C   UNL     1       6.726   5.231  16.952  0.00  0.00    +0.000 A 
ATOM     14  C   UNL     1       5.540   4.676  17.439  0.00  0.00    +0.000 A 
ATOM     15  C   UNL     1       4.668   4.000  16.582  0.00  0.00    +0.000 A 
ATOM     16  C   UNL     1       5.000   3.850  15.236  0.00  0.00    +0.000 A 
ENDBRANCH   7  14
ENDBRANCH   1   7
BRANCH   1  17
ATOM     17  C   UNL     1       3.392   6.582  18.567  0.00  0.00    +0.000 C 
BRANCH  17  18
ATOM     18  N   UNL     1       2.363   7.517  18.996  0.00  0.00    +0.000 N 
ATOM     19  C   UNL     1       2.009   8.616  18.240  0.00  0.00    +0.000 C 
ATOM     20  O   UNL     1       2.585   8.909  17.195  0.00  0.00    +0.000 OA
ATOM     21  H   UNL     1       1.940   7.404  19.913  0.00  0.00    +0.000 HD
BRANCH  19  22
ATOM     22  C   UNL     1       0.810   9.401  18.767  0.00  0.00    +0.000 C 
BRANCH  22  23
ATOM     23  O   UNL     1       1.224  10.372  19.720  0.00  0.00    +0.000 OA
BRANCH  23  24
ATOM     24  C   UNL     1       0.885  11.667  19.427  0.00  0.00    +0.000 A 
ATOM     25  C   UNL     1       1.881  12.415  18.795  0.00  0.00    +0.000 A 
ATOM     26  C   UNL     1       1.664  13.757  18.472  0.00  0.00    +0.000 A 
ATOM     27  C   UNL     1       0.440  14.355  18.762  0.00  0.00    +0.000 A 
ATOM     28  C   UNL     1      -0.571  13.605  19.361  0.00  0.00    +0.000 A 
ATOM     29  C   UNL     1      -0.352  12.264  19.689  0.00  0.00    +0.000 A 
ENDBRANCH  23  24
ENDBRANCH  22  23
ENDBRANCH  19  22
ENDBRANCH  17  18
ENDBRANCH   1  17
TORSDOF 8
ENDMDL
MODEL 8
REMARK VINA RESULT:      -7.7      0.810      1.220
REMARK  Name = 
REMARK  9 active torsions:
REMARK  status: ('A' for Active; 'I' for Inactive)
REMARK    1  A    between atoms: C_1  and  C_2
REMARK    2  A    between atoms: C_5  and  S_6
REMARK    3  A    between atoms: S_6  and  C_9
REMARK    4  A    between atoms: C_9  and  C_10
REMARK    5  A    between atoms: C_9  and  C_22
REMARK    6  A    between atoms: C_10  and  N_11
REMARK    7  A    between atoms: C_12  and  C_14
REMARK    8  A    between atoms: C_14  and  O_15
REMARK    9  A    between atoms: O_15  and  C_16
REMARK                            x       y       z     vdW  Elec       q    Type
REMARK                         _______ _______ _______ _____ _____    ______ ____
ROOT
ATOM      1  C   UNL     1       4.017   5.752  19.112  0.00  0.00    +0.000 C 
ENDROOT
BRANCH   1   2
ATOM      2  C   UNL     1       2.793   4.918  19.375  0.00  0.00    +0.000 A 
ATOM      3  C   UNL     1       1.911   4.200  18.589  0.00  0.00    +0.000 A 
ATOM      4  C   UNL     1       0.972   3.607  19.464  0.00  0.00    +0.000 A 
ATOM      5  C   UNL     1       1.323   4.010  20.728  0.00  0.00    +0.000 A 
ATOM      6  O   UNL     1       2.418   4.813  20.688  0.00  0.00    +0.000 OA
ENDBRANCH   1   2
BRANCH   1   7
ATOM      7  S   UNL     1       5.440   4.674  19.106  0.00  0.00    +0.000 S 
ATOM      8  O   UNL     1       5.064   3.385  19.660  0.00  0.00    +0.000 OA
ATOM      9  O   UNL     1       6.554   5.404  19.691  0.00  0.00    +0.000 OA
BRANCH   7  14
ATOM     10  C   UNL     1       6.801   4.511  13.211  0.00  0.00    +0.000 C 
ATOM     11  C   UNL     1       6.526   4.394  14.682  0.00  0.00    +0.000 A 
ATOM     12  C   UNL     1       5.340   3.812  15.151  0.00  0.00    +0.000 A 
ATOM     13  C   UNL     1       5.036   3.817  16.517  0.00  0.00    +0.000 A 
ATOM     14  C   UNL     1       5.934   4.396  17.417  0.00  0.00    +0.000 A 
ATOM     15  C   UNL     1       7.134   4.950  16.965  0.00  0.00    +0.000 A 
ATOM     16  C   UNL     1       7.423   4.955  15.601  0.00  0.00    +0.000 A 
ENDBRANCH   7  14
ENDBRANCH   1   7
BRANCH   1  17
ATOM     17  C   UNL     1       3.859   6.628  17.867  0.00  0.00    +0.000 C 
BRANCH  17  18
ATOM     18  N   UNL     1       3.381   7.982  18.104  0.00  0.00    +0.000 N 
ATOM     19  C   UNL     1       2.051   8.324  17.964  0.00  0.00    +0.000 C 
ATOM     20  O   UNL     1       1.203   7.527  17.569  0.00  0.00    +0.000 OA
ATOM     21  H   UNL     1       4.051   8.718  18.306  0.00  0.00    +0.000 HD
BRANCH  19  22
ATOM     22  C   UNL     1       1.703   9.746  18.397  0.00  0.00    +0.000 C 
BRANCH  22  23
ATOM     23  O   UNL     1       0.328   9.842  18.748  0.00  0.00    +0.000 OA
BRANCH  23  24
ATOM     24  C   UNL     1       0.073  10.067  20.077  0.00  0.00    +0.000 A 
ATOM     25  C   UNL     1       0.161   8.941  20.899  0.00  0.00    +0.000 A 
ATOM     26  C   UNL     1      -0.106   9.038  22.267  0.00  0.00    +0.000 A 
ATOM     27  C   UNL     1      -0.442  10.268  22.826  0.00  0.00    +0.000 A 
ATOM     28  C   UNL     1      -0.497  11.403  22.018  0.00  0.00    +0.000 A 
ATOM     29  C   UNL     1      -0.236  11.304  20.648  0.00  0.00    +0.000 A 
ENDBRANCH  23  24
ENDBRANCH  22  23
ENDBRANCH  19  22
ENDBRANCH  17  18
ENDBRANCH   1  17
TORSDOF 8
ENDMDL
MODEL 9
REMARK VINA RESULT:      -7.7      1.467      1.617
REMARK  Name = 
REMARK  9 active torsions:
REMARK  status: ('A' for Active; 'I' for Inactive)
REMARK    1  A    between atoms: C_1  and  C_2
REMARK    2  A    between atoms: C_5  and  S_6
REMARK    3  A    between atoms: S_6  and  C_9
REMARK    4  A    between atoms: C_9  and  C_10
REMARK    5  A    between atoms: C_9  and  C_22
REMARK    6  A    between atoms: C_10  and  N_11
REMARK    7  A    between atoms: C_12  and  C_14
REMARK    8  A    between atoms: C_14  and  O_15
REMARK    9  A    between atoms: O_15  and  C_16
REMARK                            x       y       z     vdW  Elec       q    Type
REMARK                         _______ _______ _______ _____ _____    ______ ____
ROOT
ATOM      1  C   UNL     1       3.714   5.387  19.608  0.00  0.00    +0.000 C 
ENDROOT
BRANCH   1   2
ATOM      2  C   UNL     1       2.602   4.392  19.801  0.00  0.00    +0.000 A 
ATOM      3  C   UNL     1       1.702   3.758  18.965  0.00  0.00    +0.000 A 
ATOM      4  C   UNL     1       0.920   2.904  19.777  0.00  0.00    +0.000 A 
ATOM      5  C   UNL     1       1.375   3.080  21.060  0.00  0.00    +0.000 A 
ATOM      6  O   UNL     1       2.387   3.985  21.090  0.00  0.00    +0.000 OA
ENDBRANCH   1   2
BRANCH   1   7
ATOM      7  S   UNL     1       5.210   4.490  19.227  0.00  0.00    +0.000 S 
ATOM      8  O   UNL     1       5.018   3.086  19.546  0.00  0.00    +0.000 OA
ATOM      9  O   UNL     1       6.325   5.210  19.821  0.00  0.00    +0.000 OA
BRANCH   7  14
ATOM     10  C   UNL     1       6.534   4.057  13.337  0.00  0.00    +0.000 C 
ATOM     11  C   UNL     1       6.150   4.321  14.764  0.00  0.00    +0.000 A 
ATOM     12  C   UNL     1       7.033   4.964  15.643  0.00  0.00    +0.000 A 
ATOM     13  C   UNL     1       6.717   5.096  17.000  0.00  0.00    +0.000 A 
ATOM     14  C   UNL     1       5.502   4.594  17.473  0.00  0.00    +0.000 A 
ATOM     15  C   UNL     1       4.599   3.981  16.601  0.00  0.00    +0.000 A 
ATOM     16  C   UNL     1       4.929   3.839  15.253  0.00  0.00    +0.000 A 
ENDBRANCH   7  14
ENDBRANCH   1   7
BRANCH   1  17
ATOM     17  C   UNL     1       3.339   6.481  18.608  0.00  0.00    +0.000 C 
BRANCH  17  18
ATOM     18  N   UNL     1       2.424   7.500  19.099  0.00  0.00    +0.000 N 
ATOM     19  C   UNL     1       2.044   8.578  18.325  0.00  0.00    +0.000 C 
ATOM     20  O   UNL     1       2.505   8.780  17.204  0.00  0.00    +0.000 OA
ATOM     21  H   UNL     1       2.109   7.462  20.064  0.00  0.00    +0.000 HD
BRANCH  19  22
ATOM     22  C   UNL     1       0.963   9.464  18.941  0.00  0.00    +0.000 C 
BRANCH  22  23
ATOM     23  O   UNL     1       1.193  10.831  18.624  0.00  0.00    +0.000 OA
BRANCH  23  24
ATOM     24  C   UNL     1       0.305  11.720  19.172  0.00  0.00    +0.000 A 
ATOM     25  C   UNL     1      -1.044  11.401  18.993  0.00  0.00    +0.000 A 
ATOM     26  C   UNL     1      -2.044  12.246  19.481  0.00  0.00    +0.000 A 
ATOM     27  C   UNL     1      -1.701  13.407  20.169  0.00  0.00    +0.000 A 
ATOM     28  C   UNL     1      -0.358  13.714  20.382  0.00  0.00    +0.000 A 
ATOM     29  C   UNL     1       0.643  12.871  19.889  0.00  0.00    +0.000 A 
ENDBRANCH  23  24
ENDBRANCH  22  23
ENDBRANCH  19  22
ENDBRANCH  17  18
ENDBRANCH   1  17
TORSDOF 8
ENDMDL
