MODEL 1
REMARK VINA RESULT:      -7.7      0.000      0.000
REMARK  Name = 
REMARK  7 active torsions:
REMARK  status: ('A' for Active; 'I' for Inactive)
REMARK    1  A    between atoms: C_1  and  C_2
REMARK    2  A    between atoms: C_2  and  C_3
REMARK    3  A    between atoms: C_2  and  C_4
REMARK    4  A    between atoms: C_2  and  N_5
REMARK    5  A    between atoms: N_5  and  C_6
REMARK    6  A    between atoms: C_7  and  C_8
REMARK    7  A    between atoms: C_12  and  C_13
REMARK                            x       y       z     vdW  Elec       q    Type
REMARK                         _______ _______ _______ _____ _____    ______ ____
ROOT
ATOM      1  C   UNL     1       3.757   5.401  18.830  0.00  0.00    +0.000 A 
ATOM      2  C   UNL     1       2.557   6.094  19.020  0.00  0.00    +0.000 A 
ATOM      3  N   UNL     1       1.468   5.251  19.060  0.00  0.00    +0.000 NA
ATOM      4  C   UNL     1       1.960   4.040  18.933  0.00  0.00    +0.000 A 
ATOM      5  C   UNL     1       1.293   2.779  18.875  0.00  0.00    +0.000 A 
ATOM      6  C   UNL     1       2.012   1.649  18.724  0.00  0.00    +0.000 A 
ATOM      7  C   UNL     1       3.449   1.701  18.618  0.00  0.00    +0.000 A 
ATOM      8  F   UNL     1       4.128   0.547  18.457  0.00  0.00    +0.000 F 
ATOM      9  C   UNL     1       4.102   2.876  18.667  0.00  0.00    +0.000 A 
ATOM     10  N   UNL     1       3.351   4.059  18.821  0.00  0.00    +0.000 N 
ENDROOT
BRANCH   2  11
ATOM     11  C   UNL     1       2.353   7.532  19.053  0.00  0.00    +0.000 A 
ATOM     12  C   UNL     1       2.434   8.313  17.896  0.00  0.00    +0.000 A 
ATOM     13  C   UNL     1       1.785   9.550  17.843  0.00  0.00    +0.000 A 
ATOM     14  C   UNL     1       1.162  10.061  18.984  0.00  0.00    +0.000 A 
ATOM     15  C   UNL     1       1.249   9.365  20.197  0.00  0.00    +0.000 A 
ATOM     16  C   UNL     1       1.850   8.104  20.231  0.00  0.00    +0.000 A 
BRANCH  15  17
ATOM     17  C   UNL     1       0.641   9.899  21.378  0.00  0.00    +0.000 C 
ATOM     18  N   UNL     1       0.145  10.347  22.325  0.00  0.00    +0.000 NA
ENDBRANCH  15  17
ENDBRANCH   2  11
BRANCH   1  19
ATOM     19  N   UNL     1       5.094   5.708  18.666  0.00  0.00    +0.000 N 
ATOM     20  H   UNL     1       5.602   6.010  19.493  0.00  0.00    +0.000 HD
BRANCH  19  22
ATOM     21  C   UNL     1       6.931   4.692  17.226  0.00  0.00    +0.000 C 
ATOM     22  C   UNL     1       5.903   5.805  17.437  0.00  0.00    +0.000 C 
ATOM     23  C   UNL     1       6.774   7.079  17.528  0.00  0.00    +0.000 C 
ATOM     24  C   UNL     1       4.956   6.014  16.239  0.00  0.00    +0.000 C 
ENDBRANCH  19  22
ENDBRANCH   1  19
TORSDOF 4
ENDMDL
MODEL 2
REMARK VINA RESULT:      -7.5      1.809      3.998
REMARK  Name = 
REMARK  7 active torsions:
REMARK  status: ('A' for Active; 'I' for Inactive)
REMARK    1  A    between atoms: C_1  and  C_2
REMARK    2  A    between atoms: C_2  and  C_3
REMARK    3  A    between atoms: C_2  and  C_4
REMARK    4  A    between atoms: C_2  and  N_5
REMARK    5  A    between atoms: N_5  and  C_6
REMARK    6  A    between atoms: C_7  and  C_8
REMARK    7  A    between atoms: C_12  and  C_13
REMARK                            x       y       z     vdW  Elec       q    Type
REMARK                         _______ _______ _______ _____ _____    ______ ____
ROOT
ATOM      1  C   UNL     1       2.772   5.555  17.996  0.00  0.00    +0.000 A 
ATOM      2  C   UNL     1       2.841   6.924  18.276  0.00  0.00    +0.000 A 
ATOM      3  N   UNL     1       3.979   7.506  17.760  0.00  0.00    +0.000 NA
ATOM      4  C   UNL     1       4.611   6.540  17.134  0.00  0.00    +0.000 A 
ATOM      5  C   UNL     1       5.860   6.557  16.442  0.00  0.00    +0.000 A 
ATOM      6  C   UNL     1       6.328   5.425  15.879  0.00  0.00    +0.000 A 
ATOM      7  C   UNL     1       5.581   4.196  15.971  0.00  0.00    +0.000 A 
ATOM      8  F   UNL     1       6.091   3.085  15.403  0.00  0.00    +0.000 F 
ATOM      9  C   UNL     1       4.402   4.151  16.620  0.00  0.00    +0.000 A 
ATOM     10  N   UNL     1       3.914   5.333  17.212  0.00  0.00    +0.000 N 
ENDROOT
BRANCH   2  11
ATOM     11  C   UNL     1       1.947   7.710  19.108  0.00  0.00    +0.000 A 
ATOM     12  C   UNL     1       1.707   7.381  20.445  0.00  0.00    +0.000 A 
ATOM     13  C   UNL     1       1.265   8.362  21.337  0.00  0.00    +0.000 A 
ATOM     14  C   UNL     1       0.943   9.637  20.867  0.00  0.00    +0.000 A 
ATOM     15  C   UNL     1       0.999   9.910  19.494  0.00  0.00    +0.000 A 
ATOM     16  C   UNL     1       1.495   8.943  18.615  0.00  0.00    +0.000 A 
BRANCH  15  17
ATOM     17  C   UNL     1       0.639  11.206  19.003  0.00  0.00    +0.000 C 
ATOM     18  N   UNL     1       0.365  12.260  18.607  0.00  0.00    +0.000 NA
ENDBRANCH  15  17
ENDBRANCH   2  11
BRANCH   1  19
ATOM     19  N   UNL     1       1.932   4.499  18.287  0.00  0.00    +0.000 N 
ATOM     20  H   UNL     1       1.097   4.402  17.716  0.00  0.00    +0.000 HD
BRANCH  19  22
ATOM     21  C   UNL     1       3.328   3.354  20.084  0.00  0.00    +0.000 C 
ATOM     22  C   UNL     1       1.969   3.535  19.404  0.00  0.00    +0.000 C 
ATOM     23  C   UNL     1       1.666   2.128  18.841  0.00  0.00    +0.000 C 
ATOM     24  C   UNL     1       0.823   3.866  20.379  0.00  0.00    +0.000 C 
ENDBRANCH  19  22
ENDBRANCH   1  19
TORSDOF 4
ENDMDL
MODEL 3
REMARK VINA RESULT:      -7.5      0.605      1.093
REMARK  Name = 
REMARK  7 active torsions:
REMARK  status: ('A' for Active; 'I' for Inactive)
REMARK    1  A    between atoms: C_1  and  C_2
REMARK    2  A    between atoms: C_2  and  C_3
REMARK    3  A    between atoms: C_2  and  C_4
REMARK    4  A    between atoms: C_2  and  N_5
REMARK    5  A    between atoms: N_5  and  C_6
REMARK    6  A    between atoms: C_7  and  C_8
REMARK    7  A    between atoms: C_12  and  C_13
REMARK                            x       y       z     vdW  Elec       q    Type
REMARK                         _______ _______ _______ _____ _____    ______ ____
ROOT
ATOM      1  C   UNL     1       3.511   5.467  18.313  0.00  0.00    +0.000 A 
ATOM      2  C   UNL     1       2.533   6.162  19.032  0.00  0.00    +0.000 A 
ATOM      3  N   UNL     1       1.658   5.313  19.675  0.00  0.00    +0.000 NA
ATOM      4  C   UNL     1       2.083   4.101  19.402  0.00  0.00    +0.000 A 
ATOM      5  C   UNL     1       1.544   2.833  19.777  0.00  0.00    +0.000 A 
ATOM      6  C   UNL     1       2.149   1.701  19.363  0.00  0.00    +0.000 A 
ATOM      7  C   UNL     1       3.334   1.760  18.544  0.00  0.00    +0.000 A 
ATOM      8  F   UNL     1       3.901   0.603  18.145  0.00  0.00    +0.000 F 
ATOM      9  C   UNL     1       3.861   2.941  18.175  0.00  0.00    +0.000 A 
ATOM     10  N   UNL     1       3.227   4.125  18.603  0.00  0.00    +0.000 N 
ENDROOT
BRANCH   2  11
ATOM     11  C   UNL     1       2.298   7.595  19.063  0.00  0.00    +0.000 A 
ATOM     12  C   UNL     1       2.321   8.368  17.898  0.00  0.00    +0.000 A 
ATOM     13  C   UNL     1       1.643   9.590  17.858  0.00  0.00    +0.000 A 
ATOM     14  C   UNL     1       1.047  10.095  19.016  0.00  0.00    +0.000 A 
ATOM     15  C   UNL     1       1.191   9.411  20.231  0.00  0.00    +0.000 A 
ATOM     16  C   UNL     1       1.822   8.163  20.253  0.00  0.00    +0.000 A 
BRANCH  15  17
ATOM     17  C   UNL     1       0.611   9.939  21.428  0.00  0.00    +0.000 C 
ATOM     18  N   UNL     1       0.153  10.359  22.407  0.00  0.00    +0.000 NA
ENDBRANCH  15  17
ENDBRANCH   2  11
BRANCH   1  19
ATOM     19  N   UNL     1       4.567   5.773  17.476  0.00  0.00    +0.000 N 
ATOM     20  H   UNL     1       4.362   5.853  16.484  0.00  0.00    +0.000 HD
BRANCH  19  22
ATOM     21  C   UNL     1       6.684   7.183  17.348  0.00  0.00    +0.000 C 
ATOM     22  C   UNL     1       6.010   5.875  17.766  0.00  0.00    +0.000 C 
ATOM     23  C   UNL     1       6.751   4.811  16.924  0.00  0.00    +0.000 C 
ATOM     24  C   UNL     1       6.245   5.496  19.242  0.00  0.00    +0.000 C 
ENDBRANCH  19  22
ENDBRANCH   1  19
TORSDOF 4
ENDMDL
MODEL 4
REMARK VINA RESULT:      -7.5      3.926      6.476
REMARK  Name = 
REMARK  7 active torsions:
REMARK  status: ('A' for Active; 'I' for Inactive)
REMARK    1  A    between atoms: C_1  and  C_2
REMARK    2  A    between atoms: C_2  and  C_3
REMARK    3  A    between atoms: C_2  and  C_4
REMARK    4  A    between atoms: C_2  and  N_5
REMARK    5  A    between atoms: N_5  and  C_6
REMARK    6  A    between atoms: C_7  and  C_8
REMARK    7  A    between atoms: C_12  and  C_13
REMARK                            x       y       z     vdW  Elec       q    Type
REMARK                         _______ _______ _______ _____ _____    ______ ____
ROOT
ATOM      1  C   UNL     1       5.689   4.528  15.603  0.00  0.00    +0.000 A 
ATOM      2  C   UNL     1       6.749   5.399  15.879  0.00  0.00    +0.000 A 
ATOM      3  N   UNL     1       7.587   5.561  14.798  0.00  0.00    +0.000 NA
ATOM      4  C   UNL     1       7.061   4.837  13.837  0.00  0.00    +0.000 A 
ATOM      5  C   UNL     1       7.520   4.604  12.505  0.00  0.00    +0.000 A 
ATOM      6  C   UNL     1       6.814   3.800  11.685  0.00  0.00    +0.000 A 
ATOM      7  C   UNL     1       5.601   3.170  12.141  0.00  0.00    +0.000 A 
ATOM      8  F   UNL     1       4.931   2.365  11.291  0.00  0.00    +0.000 F 
ATOM      9  C   UNL     1       5.147   3.370  13.392  0.00  0.00    +0.000 A 
ATOM     10  N   UNL     1       5.886   4.207  14.251  0.00  0.00    +0.000 N 
ENDROOT
BRANCH   2  11
ATOM     11  C   UNL     1       7.091   6.010  17.151  0.00  0.00    +0.000 A 
ATOM     12  C   UNL     1       7.369   5.241  18.285  0.00  0.00    +0.000 A 
ATOM     13  C   UNL     1       8.141   5.778  19.320  0.00  0.00    +0.000 A 
ATOM     14  C   UNL     1       8.528   7.119  19.278  0.00  0.00    +0.000 A 
ATOM     15  C   UNL     1       8.084   7.941  18.234  0.00  0.00    +0.000 A 
ATOM     16  C   UNL     1       7.361   7.387  17.175  0.00  0.00    +0.000 A 
BRANCH  15  17
ATOM     17  C   UNL     1       8.451   9.325  18.202  0.00  0.00    +0.000 C 
ATOM     18  N   UNL     1       8.759  10.442  18.163  0.00  0.00    +0.000 NA
ENDBRANCH  15  17
ENDBRANCH   2  11
BRANCH   1  19
ATOM     19  N   UNL     1       4.622   3.977  16.283  0.00  0.00    +0.000 N 
ATOM     20  H   UNL     1       4.281   3.077  15.956  0.00  0.00    +0.000 HD
BRANCH  19  22
ATOM     21  C   UNL     1       3.774   6.074  17.454  0.00  0.00    +0.000 C 
ATOM     22  C   UNL     1       3.779   4.547  17.352  0.00  0.00    +0.000 C 
ATOM     23  C   UNL     1       4.359   4.104  18.715  0.00  0.00    +0.000 C 
ATOM     24  C   UNL     1       2.373   3.924  17.258  0.00  0.00    +0.000 C 
ENDBRANCH  19  22
ENDBRANCH   1  19
TORSDOF 4
ENDMDL
MODEL 5
REMARK VINA RESULT:      -7.3      2.802      6.570
REMARK  Name = 
REMARK  7 active torsions:
REMARK  status: ('A' for Active; 'I' for Inactive)
REMARK    1  A    between atoms: C_1  and  C_2
REMARK    2  A    between atoms: C_2  and  C_3
REMARK    3  A    between atoms: C_2  and  C_4
REMARK    4  A    between atoms: C_2  and  N_5
REMARK    5  A    between atoms: N_5  and  C_6
REMARK    6  A    between atoms: C_7  and  C_8
REMARK    7  A    between atoms: C_12  and  C_13
REMARK                            x       y       z     vdW  Elec       q    Type
REMARK                         _______ _______ _______ _____ _____    ______ ____
ROOT
ATOM      1  C   UNL     1       3.553   6.545  18.952  0.00  0.00    +0.000 A 
ATOM      2  C   UNL     1       4.238   6.918  17.791  0.00  0.00    +0.000 A 
ATOM      3  N   UNL     1       3.699   8.043  17.206  0.00  0.00    +0.000 NA
ATOM      4  C   UNL     1       2.711   8.405  17.991  0.00  0.00    +0.000 A 
ATOM      5  C   UNL     1       1.783   9.483  17.862  0.00  0.00    +0.000 A 
ATOM      6  C   UNL     1       0.827   9.657  18.797  0.00  0.00    +0.000 A 
ATOM      7  C   UNL     1       0.731   8.764  19.924  0.00  0.00    +0.000 A 
ATOM      8  F   UNL     1      -0.247   8.969  20.830  0.00  0.00    +0.000 F 
ATOM      9  C   UNL     1       1.591   7.739  20.068  0.00  0.00    +0.000 A 
ATOM     10  N   UNL     1       2.588   7.554  19.090  0.00  0.00    +0.000 N 
ENDROOT
BRANCH   2  11
ATOM     11  C   UNL     1       5.315   6.207  17.123  0.00  0.00    +0.000 A 
ATOM     12  C   UNL     1       6.464   5.803  17.809  0.00  0.00    +0.000 A 
ATOM     13  C   UNL     1       7.234   4.744  17.317  0.00  0.00    +0.000 A 
ATOM     14  C   UNL     1       6.925   4.174  16.080  0.00  0.00    +0.000 A 
ATOM     15  C   UNL     1       5.889   4.709  15.303  0.00  0.00    +0.000 A 
ATOM     16  C   UNL     1       5.089   5.730  15.824  0.00  0.00    +0.000 A 
BRANCH  15  17
ATOM     17  C   UNL     1       5.589   4.150  14.020  0.00  0.00    +0.000 C 
ATOM     18  N   UNL     1       5.332   3.688  12.988  0.00  0.00    +0.000 NA
ENDBRANCH  15  17
ENDBRANCH   2  11
BRANCH   1  19
ATOM     19  N   UNL     1       3.607   5.525  19.881  0.00  0.00    +0.000 N 
ATOM     20  H   UNL     1       4.089   5.720  20.754  0.00  0.00    +0.000 HD
BRANCH  19  22
ATOM     21  C   UNL     1       4.300   3.112  19.451  0.00  0.00    +0.000 C 
ATOM     22  C   UNL     1       3.189   4.114  19.768  0.00  0.00    +0.000 C 
ATOM     23  C   UNL     1       2.240   3.985  18.554  0.00  0.00    +0.000 C 
ATOM     24  C   UNL     1       2.353   3.747  21.010  0.00  0.00    +0.000 C 
ENDBRANCH  19  22
ENDBRANCH   1  19
TORSDOF 4
ENDMDL
MODEL 6
REMARK VINA RESULT:      -7.2      1.841      3.971
REMARK  Name = 
REMARK  7 active torsions:
REMARK  status: ('A' for Active; 'I' for Inactive)
REMARK    1  A    between atoms: C_1  and  C_2
REMARK    2  A    between atoms: C_2  and  C_3
REMARK    3  A    between atoms: C_2  and  C_4
REMARK    4  A    between atoms: C_2  and  N_5
REMARK    5  A    between atoms: N_5  and  C_6
REMARK    6  A    between atoms: C_7  and  C_8
REMARK    7  A    between atoms: C_12  and  C_13
REMARK                            x       y       z     vdW  Elec       q    Type
REMARK                         _______ _______ _______ _____ _____    ______ ____
ROOT
ATOM      1  C   UNL     1       3.407   5.916  19.067  0.00  0.00    +0.000 A 
ATOM      2  C   UNL     1       2.807   7.135  18.732  0.00  0.00    +0.000 A 
ATOM      3  N   UNL     1       3.307   7.658  17.560  0.00  0.00    +0.000 NA
ATOM      4  C   UNL     1       4.184   6.779  17.132  0.00  0.00    +0.000 A 
ATOM      5  C   UNL     1       5.030   6.812  15.982  0.00  0.00    +0.000 A 
ATOM      6  C   UNL     1       5.877   5.789  15.747  0.00  0.00    +0.000 A 
ATOM      7  C   UNL     1       5.937   4.664  16.645  0.00  0.00    +0.000 A 
ATOM      8  F   UNL     1       6.806   3.668  16.377  0.00  0.00    +0.000 F 
ATOM      9  C   UNL     1       5.153   4.609  17.737  0.00  0.00    +0.000 A 
ATOM     10  N   UNL     1       4.271   5.680  17.987  0.00  0.00    +0.000 N 
ENDROOT
BRANCH   2  11
ATOM     11  C   UNL     1       1.859   7.906  19.517  0.00  0.00    +0.000 A 
ATOM     12  C   UNL     1       1.598   7.606  20.857  0.00  0.00    +0.000 A 
ATOM     13  C   UNL     1       1.091   8.594  21.708  0.00  0.00    +0.000 A 
ATOM     14  C   UNL     1       0.731   9.840  21.191  0.00  0.00    +0.000 A 
ATOM     15  C   UNL     1       0.812  10.075  19.812  0.00  0.00    +0.000 A 
ATOM     16  C   UNL     1       1.371   9.105  18.976  0.00  0.00    +0.000 A 
BRANCH  15  17
ATOM     17  C   UNL     1       0.413  11.340  19.273  0.00  0.00    +0.000 C 
ATOM     18  N   UNL     1       0.087  12.370  18.853  0.00  0.00    +0.000 NA
ENDBRANCH  15  17
ENDBRANCH   2  11
BRANCH   1  19
ATOM     19  N   UNL     1       3.348   5.003  20.102  0.00  0.00    +0.000 N 
ATOM     20  H   UNL     1       4.021   5.116  20.855  0.00  0.00    +0.000 HD
BRANCH  19  22
ATOM     21  C   UNL     1       1.224   3.752  19.464  0.00  0.00    +0.000 C 
ATOM     22  C   UNL     1       2.541   3.777  20.243  0.00  0.00    +0.000 C 
ATOM     23  C   UNL     1       2.082   3.664  21.715  0.00  0.00    +0.000 C 
ATOM     24  C   UNL     1       3.445   2.557  19.978  0.00  0.00    +0.000 C 
ENDBRANCH  19  22
ENDBRANCH   1  19
TORSDOF 4
ENDMDL
MODEL 7
REMARK VINA RESULT:      -7.1      1.392      1.521
REMARK  Name = 
REMARK  7 active torsions:
REMARK  status: ('A' for Active; 'I' for Inactive)
REMARK    1  A    between atoms: C_1  and  C_2
REMARK    2  A    between atoms: C_2  and  C_3
REMARK    3  A    between atoms: C_2  and  C_4
REMARK    4  A    between atoms: C_2  and  N_5
REMARK    5  A    between atoms: N_5  and  C_6
REMARK    6  A    between atoms: C_7  and  C_8
REMARK    7  A    between atoms: C_12  and  C_13
REMARK                            x       y       z     vdW  Elec       q    Type
REMARK                         _______ _______ _______ _____ _____    ______ ____
ROOT
ATOM      1  C   UNL     1       3.755   5.705  19.201  0.00  0.00    +0.000 A 
ATOM      2  C   UNL     1       2.646   6.386  19.716  0.00  0.00    +0.000 A 
ATOM      3  N   UNL     1       1.901   5.599  20.567  0.00  0.00    +0.000 NA
ATOM      4  C   UNL     1       2.533   4.450  20.625  0.00  0.00    +0.000 A 
ATOM      5  C   UNL     1       2.201   3.253  21.328  0.00  0.00    +0.000 A 
ATOM      6  C   UNL     1       3.003   2.174  21.226  0.00  0.00    +0.000 A 
ATOM      7  C   UNL     1       4.192   2.217  20.414  0.00  0.00    +0.000 A 
ATOM      8  F   UNL     1       4.961   1.111  20.334  0.00  0.00    +0.000 F 
ATOM      9  C   UNL     1       4.528   3.332  19.740  0.00  0.00    +0.000 A 
ATOM     10  N   UNL     1       3.688   4.459  19.841  0.00  0.00    +0.000 N 
ENDROOT
BRANCH   2  11
ATOM     11  C   UNL     1       2.173   7.713  19.365  0.00  0.00    +0.000 A 
ATOM     12  C   UNL     1       2.163   8.164  18.042  0.00  0.00    +0.000 A 
ATOM     13  C   UNL     1       1.296   9.192  17.661  0.00  0.00    +0.000 A 
ATOM     14  C   UNL     1       0.530   9.851  18.625  0.00  0.00    +0.000 A 
ATOM     15  C   UNL     1       0.685   9.529  19.980  0.00  0.00    +0.000 A 
ATOM     16  C   UNL     1       1.512   8.463  20.349  0.00  0.00    +0.000 A 
BRANCH  15  17
ATOM     17  C   UNL     1      -0.072  10.223  20.977  0.00  0.00    +0.000 C 
ATOM     18  N   UNL     1      -0.686  10.800  21.773  0.00  0.00    +0.000 NA
ENDBRANCH  15  17
ENDBRANCH   2  11
BRANCH   1  19
ATOM     19  N   UNL     1       4.777   5.956  18.307  0.00  0.00    +0.000 N 
ATOM     20  H   UNL     1       5.441   6.684  18.558  0.00  0.00    +0.000 HD
BRANCH  19  22
ATOM     21  C   UNL     1       4.075   4.292  16.512  0.00  0.00    +0.000 C 
ATOM     22  C   UNL     1       5.003   5.427  16.949  0.00  0.00    +0.000 C 
ATOM     23  C   UNL     1       6.403   4.773  16.910  0.00  0.00    +0.000 C 
ATOM     24  C   UNL     1       5.051   6.608  15.961  0.00  0.00    +0.000 C 
ENDBRANCH  19  22
ENDBRANCH   1  19
TORSDOF 4
ENDMDL
MODEL 8
REMARK VINA RESULT:      -7.1      2.930      6.704
REMARK  Name = 
REMARK  7 active torsions:
REMARK  status: ('A' for Active; 'I' for Inactive)
REMARK    1  A    between atoms: C_1  and  C_2
REMARK    2  A    between atoms: C_2  and  C_3
REMARK    3  A    between atoms: C_2  and  C_4
REMARK    4  A    between atoms: C_2  and  N_5
REMARK    5  A    between atoms: N_5  and  C_6
REMARK    6  A    between atoms: C_7  and  C_8
REMARK    7  A    between atoms: C_12  and  C_13
REMARK                            x       y       z     vdW  Elec       q    Type
REMARK                         _______ _______ _______ _____ _____    ______ ____
ROOT
ATOM      1  C   UNL     1       3.384   6.050  19.055  0.00  0.00    +0.000 A 
ATOM      2  C   UNL     1       3.968   6.153  17.787  0.00  0.00    +0.000 A 
ATOM      3  N   UNL     1       3.572   7.292  17.121  0.00  0.00    +0.000 NA
ATOM      4  C   UNL     1       2.778   7.925  17.954  0.00  0.00    +0.000 A 
ATOM      5  C   UNL     1       2.054   9.144  17.786  0.00  0.00    +0.000 A 
ATOM      6  C   UNL     1       1.277   9.604  18.787  0.00  0.00    +0.000 A 
ATOM      7  C   UNL     1       1.168   8.875  20.025  0.00  0.00    +0.000 A 
ATOM      8  F   UNL     1       0.372   9.366  20.997  0.00  0.00    +0.000 F 
ATOM      9  C   UNL     1       1.837   7.722  20.210  0.00  0.00    +0.000 A 
ATOM     10  N   UNL     1       2.647   7.239  19.162  0.00  0.00    +0.000 N 
ENDROOT
BRANCH   2  11
ATOM     11  C   UNL     1       4.799   5.175  17.107  0.00  0.00    +0.000 A 
ATOM     12  C   UNL     1       4.476   3.815  17.100  0.00  0.00    +0.000 A 
ATOM     13  C   UNL     1       4.971   2.986  16.088  0.00  0.00    +0.000 A 
ATOM     14  C   UNL     1       5.884   3.489  15.158  0.00  0.00    +0.000 A 
ATOM     15  C   UNL     1       6.355   4.803  15.284  0.00  0.00    +0.000 A 
ATOM     16  C   UNL     1       5.816   5.642  16.263  0.00  0.00    +0.000 A 
BRANCH  15  17
ATOM     17  C   UNL     1       7.316   5.314  14.354  0.00  0.00    +0.000 C 
ATOM     18  N   UNL     1       8.081   5.736  13.591  0.00  0.00    +0.000 NA
ENDBRANCH  15  17
ENDBRANCH   2  11
BRANCH   1  19
ATOM     19  N   UNL     1       3.371   5.146  20.099  0.00  0.00    +0.000 N 
ATOM     20  H   UNL     1       4.079   5.263  20.820  0.00  0.00    +0.000 HD
BRANCH  19  22
ATOM     21  C   UNL     1       2.028   3.689  21.698  0.00  0.00    +0.000 C 
ATOM     22  C   UNL     1       2.569   3.923  20.286  0.00  0.00    +0.000 C 
ATOM     23  C   UNL     1       3.486   2.700  20.053  0.00  0.00    +0.000 C 
ATOM     24  C   UNL     1       1.489   3.867  19.188  0.00  0.00    +0.000 C 
ENDBRANCH  19  22
ENDBRANCH   1  19
TORSDOF 4
ENDMDL
MODEL 9
REMARK VINA RESULT:      -7.0      2.675      6.311
REMARK  Name = 
REMARK  7 active torsions:
REMARK  status: ('A' for Active; 'I' for Inactive)
REMARK    1  A    between atoms: C_1  and  C_2
REMARK    2  A    between atoms: C_2  and  C_3
REMARK    3  A    between atoms: C_2  and  C_4
REMARK    4  A    between atoms: C_2  and  N_5
REMARK    5  A    between atoms: N_5  and  C_6
REMARK    6  A    between atoms: C_7  and  C_8
REMARK    7  A    between atoms: C_12  and  C_13
REMARK                            x       y       z     vdW  Elec       q    Type
REMARK                         _______ _______ _______ _____ _____    ______ ____
ROOT
ATOM      1  C   UNL     1       2.998   6.415  19.450  0.00  0.00    +0.000 A 
ATOM      2  C   UNL     1       3.515   6.840  18.222  0.00  0.00    +0.000 A 
ATOM      3  N   UNL     1       2.977   8.043  17.817  0.00  0.00    +0.000 NA
ATOM      4  C   UNL     1       2.158   8.400  18.780  0.00  0.00    +0.000 A 
ATOM      5  C   UNL     1       1.308   9.542  18.885  0.00  0.00    +0.000 A 
ATOM      6  C   UNL     1       0.530   9.697  19.975  0.00  0.00    +0.000 A 
ATOM      7  C   UNL     1       0.547   8.721  21.035  0.00  0.00    +0.000 A 
ATOM      8  F   UNL     1      -0.254   8.911  22.103  0.00  0.00    +0.000 F 
ATOM      9  C   UNL     1       1.338   7.634  20.960  0.00  0.00    +0.000 A 
ATOM     10  N   UNL     1       2.148   7.469  19.819  0.00  0.00    +0.000 N 
ENDROOT
BRANCH   2  11
ATOM     11  C   UNL     1       4.412   6.120  17.335  0.00  0.00    +0.000 A 
ATOM     12  C   UNL     1       4.336   6.252  15.946  0.00  0.00    +0.000 A 
ATOM     13  C   UNL     1       5.453   5.966  15.155  0.00  0.00    +0.000 A 
ATOM     14  C   UNL     1       6.603   5.432  15.740  0.00  0.00    +0.000 A 
ATOM     15  C   UNL     1       6.611   5.119  17.105  0.00  0.00    +0.000 A 
ATOM     16  C   UNL     1       5.512   5.458  17.901  0.00  0.00    +0.000 A 
BRANCH  15  17
ATOM     17  C   UNL     1       7.775   4.541  17.705  0.00  0.00    +0.000 C 
ATOM     18  N   UNL     1       8.727   4.088  18.187  0.00  0.00    +0.000 NA
ENDBRANCH  15  17
ENDBRANCH   2  11
BRANCH   1  19
ATOM     19  N   UNL     1       3.121   5.319  20.281  0.00  0.00    +0.000 N 
ATOM     20  H   UNL     1       3.812   5.379  21.025  0.00  0.00    +0.000 HD
BRANCH  19  22
ATOM     21  C   UNL     1       1.901   3.439  21.490  0.00  0.00    +0.000 C 
ATOM     22  C   UNL     1       2.499   3.985  20.192  0.00  0.00    +0.000 C 
ATOM     23  C   UNL     1       3.602   2.956  19.851  0.00  0.00    +0.000 C 
ATOM     24  C   UNL     1       1.519   3.975  19.002  0.00  0.00    +0.000 C 
ENDBRANCH  19  22
ENDBRANCH   1  19
TORSDOF 4
ENDMDL
