MODEL 1
REMARK VINA RESULT:      -8.8      0.000      0.000
REMARK  Name = 
REMARK  6 active torsions:
REMARK  status: ('A' for Active; 'I' for Inactive)
REMARK    1  A    between atoms: C_2  and  C_17
REMARK    2  A    between atoms: N_3  and  C_4
REMARK    3  A    between atoms: C_9  and  S_10
REMARK    4  A    between atoms: S_10  and  C_11
REMARK    5  A    between atoms: C_21  and  C_22
REMARK    6  A    between atoms: C_27  and  C_28
REMARK                            x       y       z     vdW  Elec       q    Type
REMARK                         _______ _______ _______ _____ _____    ______ ____
ROOT
ATOM      1  O   UNL     1       2.906   7.850  17.219  0.00  0.00    +0.000 OA
ATOM      2  C   UNL     1       3.023   7.304  18.309  0.00  0.00    +0.000 C 
ATOM      3  N   UNL     1       3.857   6.237  18.595  0.00  0.00    +0.000 N 
ATOM      4  H   UNL     1       3.569   5.687  19.402  0.00  0.00    +0.000 HD
ENDROOT
BRANCH   2   5
ATOM      5  C   UNL     1       2.155   7.670  19.418  0.00  0.00    +0.000 A 
ATOM      6  C   UNL     1       1.766   6.872  20.506  0.00  0.00    +0.000 A 
ATOM      7  N   UNL     1       1.010   7.525  21.390  0.00  0.00    +0.000 NA
ATOM      8  N   UNL     1       0.895   8.781  20.899  0.00  0.00    +0.000 N 
ATOM      9  C   UNL     1       0.276   9.897  21.459  0.00  0.00    +0.000 A 
ATOM     10  C   UNL     1       0.232  11.053  20.763  0.00  0.00    +0.000 A 
ATOM     11  C   UNL     1       0.850  11.021  19.413  0.00  0.00    +0.000 A 
ATOM     12  N   UNL     1       1.494  10.023  18.895  0.00  0.00    +0.000 NA
ATOM     13  C   UNL     1       1.533   8.881  19.651  0.00  0.00    +0.000 A 
BRANCH   9  14
ATOM     14  C   UNL     1      -0.292   9.800  22.827  0.00  0.00    +0.000 C 
ATOM     15  F   UNL     1      -1.227   8.847  23.037  0.00  0.00    +0.000 F 
ATOM     16  F   UNL     1       0.700   9.565  23.732  0.00  0.00    +0.000 F 
ATOM     17  F   UNL     1      -0.855  10.983  23.197  0.00  0.00    +0.000 F 
ENDBRANCH   9  14
BRANCH  11  18
ATOM     18  C   UNL     1       0.659  12.221  18.568  0.00  0.00    +0.000 C 
ATOM     19  C   UNL     1       0.305  13.562  19.158  0.00  0.00    +0.000 C 
ATOM     20  C   UNL     1       1.678  13.338  18.598  0.00  0.00    +0.000 C 
ENDBRANCH  11  18
ENDBRANCH   2   5
BRANCH   3  21
ATOM     21  C   UNL     1       4.705   5.608  17.663  0.00  0.00    +0.000 A 
ATOM     22  C   UNL     1       5.922   6.259  17.409  0.00  0.00    +0.000 A 
ATOM     23  C   UNL     1       6.847   5.712  16.522  0.00  0.00    +0.000 A 
ATOM     24  C   UNL     1       6.541   4.536  15.846  0.00  0.00    +0.000 A 
ATOM     25  C   UNL     1       5.309   3.908  16.055  0.00  0.00    +0.000 A 
ATOM     26  C   UNL     1       4.372   4.433  16.960  0.00  0.00    +0.000 A 
BRANCH  26  27
ATOM     27  S   UNL     1       2.805   3.579  17.101  0.00  0.00    +0.000 S 
BRANCH  27  28
ATOM     28  C   UNL     1       2.591   3.294  18.851  0.00  0.00    +0.000 A 
ATOM     29  C   UNL     1       1.318   3.516  19.398  0.00  0.00    +0.000 A 
ATOM     30  C   UNL     1       1.055   3.239  20.743  0.00  0.00    +0.000 A 
ATOM     31  C   UNL     1       2.068   2.735  21.557  0.00  0.00    +0.000 A 
ATOM     32  C   UNL     1       3.336   2.506  21.025  0.00  0.00    +0.000 A 
ATOM     33  C   UNL     1       3.595   2.778  19.676  0.00  0.00    +0.000 A 
ENDBRANCH  27  28
ENDBRANCH  26  27
ENDBRANCH   3  21
TORSDOF 6
ENDMDL
MODEL 2
REMARK VINA RESULT:      -8.6      0.185      1.092
REMARK  Name = 
REMARK  6 active torsions:
REMARK  status: ('A' for Active; 'I' for Inactive)
REMARK    1  A    between atoms: C_2  and  C_17
REMARK    2  A    between atoms: N_3  and  C_4
REMARK    3  A    between atoms: C_9  and  S_10
REMARK    4  A    between atoms: S_10  and  C_11
REMARK    5  A    between atoms: C_21  and  C_22
REMARK    6  A    between atoms: C_27  and  C_28
REMARK                            x       y       z     vdW  Elec       q    Type
REMARK                         _______ _______ _______ _____ _____    ______ ____
ROOT
ATOM      1  O   UNL     1       2.832   7.887  17.227  0.00  0.00    +0.000 OA
ATOM      2  C   UNL     1       2.966   7.355  18.322  0.00  0.00    +0.000 C 
ATOM      3  N   UNL     1       3.814   6.300  18.612  0.00  0.00    +0.000 N 
ATOM      4  H   UNL     1       3.541   5.757  19.428  0.00  0.00    +0.000 HD
ENDROOT
BRANCH   2   5
ATOM      5  C   UNL     1       2.106   7.725  19.436  0.00  0.00    +0.000 A 
ATOM      6  C   UNL     1       1.726   6.931  20.530  0.00  0.00    +0.000 A 
ATOM      7  N   UNL     1       0.976   7.587  21.417  0.00  0.00    +0.000 NA
ATOM      8  N   UNL     1       0.857   8.841  20.921  0.00  0.00    +0.000 N 
ATOM      9  C   UNL     1       0.241   9.959  21.482  0.00  0.00    +0.000 A 
ATOM     10  C   UNL     1       0.192  11.113  20.781  0.00  0.00    +0.000 A 
ATOM     11  C   UNL     1       0.799  11.076  19.427  0.00  0.00    +0.000 A 
ATOM     12  N   UNL     1       1.440  10.075  18.909  0.00  0.00    +0.000 NA
ATOM     13  C   UNL     1       1.486   8.937  19.669  0.00  0.00    +0.000 A 
BRANCH   9  14
ATOM     14  C   UNL     1      -0.316   9.868  22.854  0.00  0.00    +0.000 C 
ATOM     15  F   UNL     1      -0.947  10.963  23.334  0.00  0.00    +0.000 F 
ATOM     16  F   UNL     1      -1.218   8.848  22.928  0.00  0.00    +0.000 F 
ATOM     17  F   UNL     1       0.661   9.560  23.750  0.00  0.00    +0.000 F 
ENDBRANCH   9  14
BRANCH  11  18
ATOM     18  C   UNL     1       0.601  12.272  18.578  0.00  0.00    +0.000 C 
ATOM     19  C   UNL     1      -0.173  13.471  19.063  0.00  0.00    +0.000 C 
ATOM     20  C   UNL     1       1.316  13.562  18.911  0.00  0.00    +0.000 C 
ENDBRANCH  11  18
ENDBRANCH   2   5
BRANCH   3  21
ATOM     21  C   UNL     1       4.658   5.670  17.678  0.00  0.00    +0.000 A 
ATOM     22  C   UNL     1       5.894   6.296  17.451  0.00  0.00    +0.000 A 
ATOM     23  C   UNL     1       6.817   5.744  16.565  0.00  0.00    +0.000 A 
ATOM     24  C   UNL     1       6.491   4.589  15.862  0.00  0.00    +0.000 A 
ATOM     25  C   UNL     1       5.243   3.986  16.045  0.00  0.00    +0.000 A 
ATOM     26  C   UNL     1       4.307   4.516  16.948  0.00  0.00    +0.000 A 
BRANCH  26  27
ATOM     27  S   UNL     1       2.719   3.697  17.054  0.00  0.00    +0.000 S 
BRANCH  27  28
ATOM     28  C   UNL     1       2.524   3.289  18.781  0.00  0.00    +0.000 A 
ATOM     29  C   UNL     1       3.629   2.746  19.453  0.00  0.00    +0.000 A 
ATOM     30  C   UNL     1       3.577   2.475  20.823  0.00  0.00    +0.000 A 
ATOM     31  C   UNL     1       2.412   2.747  21.539  0.00  0.00    +0.000 A 
ATOM     32  C   UNL     1       1.308   3.292  20.884  0.00  0.00    +0.000 A 
ATOM     33  C   UNL     1       1.365   3.568  19.512  0.00  0.00    +0.000 A 
ENDBRANCH  27  28
ENDBRANCH  26  27
ENDBRANCH   3  21
TORSDOF 6
ENDMDL
MODEL 3
REMARK VINA RESULT:      -8.6      1.687      2.017
REMARK  Name = 
REMARK  6 active torsions:
REMARK  status: ('A' for Active; 'I' for Inactive)
REMARK    1  A    between atoms: C_2  and  C_17
REMARK    2  A    between atoms: N_3  and  C_4
REMARK    3  A    between atoms: C_9  and  S_10
REMARK    4  A    between atoms: S_10  and  C_11
REMARK    5  A    between atoms: C_21  and  C_22
REMARK    6  A    between atoms: C_27  and  C_28
REMARK                            x       y       z     vdW  Elec       q    Type
REMARK                         _______ _______ _______ _____ _____    ______ ____
ROOT
ATOM      1  O   UNL     1       2.062   8.721  17.246  0.00  0.00    +0.000 OA
ATOM      2  C   UNL     1       2.201   8.280  18.380  0.00  0.00    +0.000 C 
ATOM      3  N   UNL     1       2.982   7.193  18.735  0.00  0.00    +0.000 N 
ATOM      4  H   UNL     1       2.703   6.747  19.607  0.00  0.00    +0.000 HD
ENDROOT
BRANCH   2   5
ATOM      5  C   UNL     1       1.416   8.811  19.484  0.00  0.00    +0.000 A 
ATOM      6  C   UNL     1       1.563   8.538  20.853  0.00  0.00    +0.000 A 
ATOM      7  N   UNL     1       0.722   9.236  21.619  0.00  0.00    +0.000 NA
ATOM      8  N   UNL     1       0.008   9.998  20.758  0.00  0.00    +0.000 N 
ATOM      9  C   UNL     1      -0.954  10.969  21.025  0.00  0.00    +0.000 A 
ATOM     10  C   UNL     1      -1.589  11.577  20.000  0.00  0.00    +0.000 A 
ATOM     11  C   UNL     1      -1.205  11.124  18.639  0.00  0.00    +0.000 A 
ATOM     12  N   UNL     1      -0.266  10.276  18.357  0.00  0.00    +0.000 NA
ATOM     13  C   UNL     1       0.367   9.707  19.430  0.00  0.00    +0.000 A 
BRANCH   9  14
ATOM     14  C   UNL     1      -1.236  11.342  22.434  0.00  0.00    +0.000 C 
ATOM     15  F   UNL     1      -1.159  10.357  23.356  0.00  0.00    +0.000 F 
ATOM     16  F   UNL     1      -0.374  12.315  22.844  0.00  0.00    +0.000 F 
ATOM     17  F   UNL     1      -2.480  11.883  22.547  0.00  0.00    +0.000 F 
ENDBRANCH   9  14
BRANCH  11  18
ATOM     18  C   UNL     1      -2.010  11.648  17.513  0.00  0.00    +0.000 C 
ATOM     19  C   UNL     1      -2.463  10.763  16.380  0.00  0.00    +0.000 C 
ATOM     20  C   UNL     1      -3.466  11.261  17.379  0.00  0.00    +0.000 C 
ENDBRANCH  11  18
ENDBRANCH   2   5
BRANCH   3  21
ATOM     21  C   UNL     1       3.739   6.420  17.835  0.00  0.00    +0.000 A 
ATOM     22  C   UNL     1       4.922   7.013  17.366  0.00  0.00    +0.000 A 
ATOM     23  C   UNL     1       5.760   6.326  16.490  0.00  0.00    +0.000 A 
ATOM     24  C   UNL     1       5.398   5.062  16.038  0.00  0.00    +0.000 A 
ATOM     25  C   UNL     1       4.197   4.485  16.461  0.00  0.00    +0.000 A 
ATOM     26  C   UNL     1       3.347   5.153  17.358  0.00  0.00    +0.000 A 
BRANCH  26  27
ATOM     27  S   UNL     1       1.807   4.344  17.782  0.00  0.00    +0.000 S 
BRANCH  27  28
ATOM     28  C   UNL     1       2.097   3.608  19.383  0.00  0.00    +0.000 A 
ATOM     29  C   UNL     1       1.008   3.505  20.261  0.00  0.00    +0.000 A 
ATOM     30  C   UNL     1       1.140   2.871  21.499  0.00  0.00    +0.000 A 
ATOM     31  C   UNL     1       2.370   2.330  21.873  0.00  0.00    +0.000 A 
ATOM     32  C   UNL     1       3.459   2.422  21.007  0.00  0.00    +0.000 A 
ATOM     33  C   UNL     1       3.322   3.053  19.765  0.00  0.00    +0.000 A 
ENDBRANCH  27  28
ENDBRANCH  26  27
ENDBRANCH   3  21
TORSDOF 6
ENDMDL
MODEL 4
REMARK VINA RESULT:      -8.5      3.544      7.808
REMARK  Name = 
REMARK  6 active torsions:
REMARK  status: ('A' for Active; 'I' for Inactive)
REMARK    1  A    between atoms: C_2  and  C_17
REMARK    2  A    between atoms: N_3  and  C_4
REMARK    3  A    between atoms: C_9  and  S_10
REMARK    4  A    between atoms: S_10  and  C_11
REMARK    5  A    between atoms: C_21  and  C_22
REMARK    6  A    between atoms: C_27  and  C_28
REMARK                            x       y       z     vdW  Elec       q    Type
REMARK                         _______ _______ _______ _____ _____    ______ ____
ROOT
ATOM      1  O   UNL     1       2.201   9.300  17.523  0.00  0.00    +0.000 OA
ATOM      2  C   UNL     1       1.729   9.176  18.646  0.00  0.00    +0.000 C 
ATOM      3  N   UNL     1       1.171  10.188  19.407  0.00  0.00    +0.000 N 
ATOM      4  H   UNL     1       1.174  10.007  20.409  0.00  0.00    +0.000 HD
ENDROOT
BRANCH   2   5
ATOM      5  C   UNL     1       1.837   7.912  19.359  0.00  0.00    +0.000 A 
ATOM      6  C   UNL     1       1.321   7.591  20.625  0.00  0.00    +0.000 A 
ATOM      7  N   UNL     1       1.540   6.322  20.973  0.00  0.00    +0.000 NA
ATOM      8  N   UNL     1       2.201   5.777  19.926  0.00  0.00    +0.000 N 
ATOM      9  C   UNL     1       2.607   4.458  19.726  0.00  0.00    +0.000 A 
ATOM     10  C   UNL     1       3.310   4.139  18.618  0.00  0.00    +0.000 A 
ATOM     11  C   UNL     1       3.614   5.263  17.697  0.00  0.00    +0.000 A 
ATOM     12  N   UNL     1       3.190   6.482  17.819  0.00  0.00    +0.000 NA
ATOM     13  C   UNL     1       2.458   6.750  18.946  0.00  0.00    +0.000 A 
BRANCH   9  14
ATOM     14  C   UNL     1       2.225   3.424  20.719  0.00  0.00    +0.000 C 
ATOM     15  F   UNL     1       0.910   3.128  20.822  0.00  0.00    +0.000 F 
ATOM     16  F   UNL     1       2.858   2.249  20.441  0.00  0.00    +0.000 F 
ATOM     17  F   UNL     1       2.641   3.778  21.965  0.00  0.00    +0.000 F 
ENDBRANCH   9  14
BRANCH  11  18
ATOM     18  C   UNL     1       4.529   4.970  16.572  0.00  0.00    +0.000 C 
ATOM     19  C   UNL     1       5.362   6.047  15.923  0.00  0.00    +0.000 C 
ATOM     20  C   UNL     1       6.026   5.013  16.783  0.00  0.00    +0.000 C 
ENDBRANCH  11  18
ENDBRANCH   2   5
BRANCH   3  21
ATOM     21  C   UNL     1       1.065  11.532  19.001  0.00  0.00    +0.000 A 
ATOM     22  C   UNL     1       2.271  12.166  18.666  0.00  0.00    +0.000 A 
ATOM     23  C   UNL     1       2.279  13.488  18.227  0.00  0.00    +0.000 A 
ATOM     24  C   UNL     1       1.087  14.202  18.166  0.00  0.00    +0.000 A 
ATOM     25  C   UNL     1      -0.113  13.593  18.546  0.00  0.00    +0.000 A 
ATOM     26  C   UNL     1      -0.145  12.255  18.973  0.00  0.00    +0.000 A 
BRANCH  26  27
ATOM     27  S   UNL     1      -1.728  11.601  19.492  0.00  0.00    +0.000 S 
BRANCH  27  28
ATOM     28  C   UNL     1      -2.529  11.079  17.984  0.00  0.00    +0.000 A 
ATOM     29  C   UNL     1      -3.796  11.610  17.701  0.00  0.00    +0.000 A 
ATOM     30  C   UNL     1      -4.450  11.310  16.503  0.00  0.00    +0.000 A 
ATOM     31  C   UNL     1      -3.840  10.471  15.572  0.00  0.00    +0.000 A 
ATOM     32  C   UNL     1      -2.579   9.940  15.840  0.00  0.00    +0.000 A 
ATOM     33  C   UNL     1      -1.923  10.247  17.038  0.00  0.00    +0.000 A 
ENDBRANCH  27  28
ENDBRANCH  26  27
ENDBRANCH   3  21
TORSDOF 6
ENDMDL
MODEL 5
REMARK VINA RESULT:      -8.5      2.092      4.195
REMARK  Name = 
REMARK  6 active torsions:
REMARK  status: ('A' for Active; 'I' for Inactive)
REMARK    1  A    between atoms: C_2  and  C_17
REMARK    2  A    between atoms: N_3  and  C_4
REMARK    3  A    between atoms: C_9  and  S_10
REMARK    4  A    between atoms: S_10  and  C_11
REMARK    5  A    between atoms: C_21  and  C_22
REMARK    6  A    between atoms: C_27  and  C_28
REMARK                            x       y       z     vdW  Elec       q    Type
REMARK                         _______ _______ _______ _____ _____    ______ ____
ROOT
ATOM      1  O   UNL     1       1.917   7.586  18.659  0.00  0.00    +0.000 OA
ATOM      2  C   UNL     1       1.687   7.536  19.860  0.00  0.00    +0.000 C 
ATOM      3  N   UNL     1       1.727   6.397  20.646  0.00  0.00    +0.000 N 
ATOM      4  H   UNL     1       1.169   6.456  21.495  0.00  0.00    +0.000 HD
ENDROOT
BRANCH   2   5
ATOM      5  C   UNL     1       1.203   8.709  20.572  0.00  0.00    +0.000 A 
ATOM      6  C   UNL     1       1.516   9.111  21.881  0.00  0.00    +0.000 A 
ATOM      7  N   UNL     1       0.955  10.273  22.219  0.00  0.00    +0.000 NA
ATOM      8  N   UNL     1       0.265  10.666  21.123  0.00  0.00    +0.000 N 
ATOM      9  C   UNL     1      -0.445  11.844  20.900  0.00  0.00    +0.000 A 
ATOM     10  C   UNL     1      -1.113  12.009  19.738  0.00  0.00    +0.000 A 
ATOM     11  C   UNL     1      -1.045  10.873  18.784  0.00  0.00    +0.000 A 
ATOM     12  N   UNL     1      -0.338   9.797  18.933  0.00  0.00    +0.000 NA
ATOM     13  C   UNL     1       0.344   9.689  20.116  0.00  0.00    +0.000 A 
BRANCH   9  14
ATOM     14  C   UNL     1      -0.421  12.912  21.931  0.00  0.00    +0.000 C 
ATOM     15  F   UNL     1      -0.727  12.548  23.196  0.00  0.00    +0.000 F 
ATOM     16  F   UNL     1       0.816  13.481  21.989  0.00  0.00    +0.000 F 
ATOM     17  F   UNL     1      -1.273  13.919  21.599  0.00  0.00    +0.000 F 
ENDBRANCH   9  14
BRANCH  11  18
ATOM     18  C   UNL     1      -1.910  10.960  17.587  0.00  0.00    +0.000 C 
ATOM     19  C   UNL     1      -2.245   9.745  16.758  0.00  0.00    +0.000 C 
ATOM     20  C   UNL     1      -3.304  10.372  17.615  0.00  0.00    +0.000 C 
ENDBRANCH  11  18
ENDBRANCH   2   5
BRANCH   3  21
ATOM     21  C   UNL     1       2.039   5.107  20.174  0.00  0.00    +0.000 A 
ATOM     22  C   UNL     1       1.044   4.134  20.356  0.00  0.00    +0.000 A 
ATOM     23  C   UNL     1       1.237   2.830  19.904  0.00  0.00    +0.000 A 
ATOM     24  C   UNL     1       2.445   2.477  19.312  0.00  0.00    +0.000 A 
ATOM     25  C   UNL     1       3.460   3.428  19.172  0.00  0.00    +0.000 A 
ATOM     26  C   UNL     1       3.277   4.753  19.604  0.00  0.00    +0.000 A 
BRANCH  26  27
ATOM     27  S   UNL     1       4.667   5.868  19.430  0.00  0.00    +0.000 S 
BRANCH  27  28
ATOM     28  C   UNL     1       5.413   5.436  17.866  0.00  0.00    +0.000 A 
ATOM     29  C   UNL     1       4.791   5.897  16.696  0.00  0.00    +0.000 A 
ATOM     30  C   UNL     1       5.359   5.666  15.440  0.00  0.00    +0.000 A 
ATOM     31  C   UNL     1       6.561   4.967  15.342  0.00  0.00    +0.000 A 
ATOM     32  C   UNL     1       7.192   4.507  16.497  0.00  0.00    +0.000 A 
ATOM     33  C   UNL     1       6.624   4.745  17.755  0.00  0.00    +0.000 A 
ENDBRANCH  27  28
ENDBRANCH  26  27
ENDBRANCH   3  21
TORSDOF 6
ENDMDL
MODEL 6
REMARK VINA RESULT:      -8.5      4.261      8.674
REMARK  Name = 
REMARK  6 active torsions:
REMARK  status: ('A' for Active; 'I' for Inactive)
REMARK    1  A    between atoms: C_2  and  C_17
REMARK    2  A    between atoms: N_3  and  C_4
REMARK    3  A    between atoms: C_9  and  S_10
REMARK    4  A    between atoms: S_10  and  C_11
REMARK    5  A    between atoms: C_21  and  C_22
REMARK    6  A    between atoms: C_27  and  C_28
REMARK                            x       y       z     vdW  Elec       q    Type
REMARK                         _______ _______ _______ _____ _____    ______ ____
ROOT
ATOM      1  O   UNL     1       1.575   6.669  20.744  0.00  0.00    +0.000 OA
ATOM      2  C   UNL     1       2.017   7.480  19.940  0.00  0.00    +0.000 C 
ATOM      3  N   UNL     1       1.732   8.835  19.916  0.00  0.00    +0.000 N 
ATOM      4  H   UNL     1       1.867   9.274  19.008  0.00  0.00    +0.000 HD
ENDROOT
BRANCH   2   5
ATOM      5  C   UNL     1       2.818   7.040  18.808  0.00  0.00    +0.000 A 
ATOM      6  C   UNL     1       3.582   7.832  17.935  0.00  0.00    +0.000 A 
ATOM      7  N   UNL     1       4.254   7.116  17.032  0.00  0.00    +0.000 NA
ATOM      8  N   UNL     1       3.949   5.826  17.305  0.00  0.00    +0.000 N 
ATOM      9  C   UNL     1       4.435   4.659  16.718  0.00  0.00    +0.000 A 
ATOM     10  C   UNL     1       3.947   3.463  17.112  0.00  0.00    +0.000 A 
ATOM     11  C   UNL     1       2.890   3.505  18.153  0.00  0.00    +0.000 A 
ATOM     12  N   UNL     1       2.469   4.566  18.766  0.00  0.00    +0.000 NA
ATOM     13  C   UNL     1       3.013   5.752  18.350  0.00  0.00    +0.000 A 
BRANCH   9  14
ATOM     14  C   UNL     1       5.507   4.754  15.695  0.00  0.00    +0.000 C 
ATOM     15  F   UNL     1       5.942   3.594  15.154  0.00  0.00    +0.000 F 
ATOM     16  F   UNL     1       5.094   5.529  14.653  0.00  0.00    +0.000 F 
ATOM     17  F   UNL     1       6.603   5.378  16.206  0.00  0.00    +0.000 F 
ENDBRANCH   9  14
BRANCH  11  18
ATOM     18  C   UNL     1       2.221   2.224  18.471  0.00  0.00    +0.000 C 
ATOM     19  C   UNL     1       1.691   1.924  19.850  0.00  0.00    +0.000 C 
ATOM     20  C   UNL     1       0.731   2.192  18.729  0.00  0.00    +0.000 C 
ENDBRANCH  11  18
ENDBRANCH   2   5
BRANCH   3  21
ATOM     21  C   UNL     1       0.878   9.491  20.823  0.00  0.00    +0.000 A 
ATOM     22  C   UNL     1       0.752   8.892  22.086  0.00  0.00    +0.000 A 
ATOM     23  C   UNL     1      -0.049   9.471  23.068  0.00  0.00    +0.000 A 
ATOM     24  C   UNL     1      -0.767  10.626  22.780  0.00  0.00    +0.000 A 
ATOM     25  C   UNL     1      -0.686  11.202  21.509  0.00  0.00    +0.000 A 
ATOM     26  C   UNL     1       0.130  10.644  20.511  0.00  0.00    +0.000 A 
BRANCH  26  27
ATOM     27  S   UNL     1       0.108  11.431  18.902  0.00  0.00    +0.000 S 
BRANCH  27  28
ATOM     28  C   UNL     1      -1.475  10.999  18.199  0.00  0.00    +0.000 A 
ATOM     29  C   UNL     1      -2.589  11.760  18.583  0.00  0.00    +0.000 A 
ATOM     30  C   UNL     1      -3.846  11.532  18.016  0.00  0.00    +0.000 A 
ATOM     31  C   UNL     1      -4.001  10.535  17.053  0.00  0.00    +0.000 A 
ATOM     32  C   UNL     1      -2.900   9.775  16.659  0.00  0.00    +0.000 A 
ATOM     33  C   UNL     1      -1.641  10.010  17.225  0.00  0.00    +0.000 A 
ENDBRANCH  27  28
ENDBRANCH  26  27
ENDBRANCH   3  21
TORSDOF 6
ENDMDL
MODEL 7
REMARK VINA RESULT:      -8.4      3.701      8.071
REMARK  Name = 
REMARK  6 active torsions:
REMARK  status: ('A' for Active; 'I' for Inactive)
REMARK    1  A    between atoms: C_2  and  C_17
REMARK    2  A    between atoms: N_3  and  C_4
REMARK    3  A    between atoms: C_9  and  S_10
REMARK    4  A    between atoms: S_10  and  C_11
REMARK    5  A    between atoms: C_21  and  C_22
REMARK    6  A    between atoms: C_27  and  C_28
REMARK                            x       y       z     vdW  Elec       q    Type
REMARK                         _______ _______ _______ _____ _____    ______ ____
ROOT
ATOM      1  O   UNL     1       2.109   9.198  17.149  0.00  0.00    +0.000 OA
ATOM      2  C   UNL     1       1.894   8.994  18.337  0.00  0.00    +0.000 C 
ATOM      3  N   UNL     1       1.470   9.938  19.256  0.00  0.00    +0.000 N 
ATOM      4  H   UNL     1       1.694   9.710  20.223  0.00  0.00    +0.000 HD
ENDROOT
BRANCH   2   5
ATOM      5  C   UNL     1       2.205   7.706  18.937  0.00  0.00    +0.000 A 
ATOM      6  C   UNL     1       1.675   7.154  20.115  0.00  0.00    +0.000 A 
ATOM      7  N   UNL     1       2.121   5.922  20.362  0.00  0.00    +0.000 NA
ATOM      8  N   UNL     1       2.953   5.633  19.334  0.00  0.00    +0.000 N 
ATOM      9  C   UNL     1       3.631   4.449  19.051  0.00  0.00    +0.000 A 
ATOM     10  C   UNL     1       4.463   4.396  17.988  0.00  0.00    +0.000 A 
ATOM     11  C   UNL     1       4.597   5.652  17.207  0.00  0.00    +0.000 A 
ATOM     12  N   UNL     1       3.928   6.744  17.403  0.00  0.00    +0.000 NA
ATOM     13  C   UNL     1       3.077   6.739  18.476  0.00  0.00    +0.000 A 
BRANCH   9  14
ATOM     14  C   UNL     1       3.397   3.257  19.904  0.00  0.00    +0.000 C 
ATOM     15  F   UNL     1       2.945   3.481  21.158  0.00  0.00    +0.000 F 
ATOM     16  F   UNL     1       2.489   2.429  19.315  0.00  0.00    +0.000 F 
ATOM     17  F   UNL     1       4.537   2.525  20.028  0.00  0.00    +0.000 F 
ENDBRANCH   9  14
BRANCH  11  18
ATOM     18  C   UNL     1       5.632   5.667  16.149  0.00  0.00    +0.000 C 
ATOM     19  C   UNL     1       6.546   4.492  15.913  0.00  0.00    +0.000 C 
ATOM     20  C   UNL     1       5.469   4.804  14.918  0.00  0.00    +0.000 C 
ENDBRANCH  11  18
ENDBRANCH   2   5
BRANCH   3  21
ATOM     21  C   UNL     1       1.222  11.293  18.960  0.00  0.00    +0.000 A 
ATOM     22  C   UNL     1       2.356  12.075  18.689  0.00  0.00    +0.000 A 
ATOM     23  C   UNL     1       2.225  13.422  18.360  0.00  0.00    +0.000 A 
ATOM     24  C   UNL     1       0.964  14.009  18.347  0.00  0.00    +0.000 A 
ATOM     25  C   UNL     1      -0.165  13.249  18.665  0.00  0.00    +0.000 A 
ATOM     26  C   UNL     1      -0.056  11.885  18.981  0.00  0.00    +0.000 A 
BRANCH  26  27
ATOM     27  S   UNL     1      -1.562  11.027  19.431  0.00  0.00    +0.000 S 
BRANCH  27  28
ATOM     28  C   UNL     1      -2.489  10.893  17.911  0.00  0.00    +0.000 A 
ATOM     29  C   UNL     1      -1.980  10.055  16.907  0.00  0.00    +0.000 A 
ATOM     30  C   UNL     1      -2.689   9.839  15.722  0.00  0.00    +0.000 A 
ATOM     31  C   UNL     1      -3.921  10.463  15.529  0.00  0.00    +0.000 A 
ATOM     32  C   UNL     1      -4.439  11.295  16.520  0.00  0.00    +0.000 A 
ATOM     33  C   UNL     1      -3.730  11.505  17.709  0.00  0.00    +0.000 A 
ENDBRANCH  27  28
ENDBRANCH  26  27
ENDBRANCH   3  21
TORSDOF 6
ENDMDL
MODEL 8
REMARK VINA RESULT:      -8.4      1.642      2.231
REMARK  Name = 
REMARK  6 active torsions:
REMARK  status: ('A' for Active; 'I' for Inactive)
REMARK    1  A    between atoms: C_2  and  C_17
REMARK    2  A    between atoms: N_3  and  C_4
REMARK    3  A    between atoms: C_9  and  S_10
REMARK    4  A    between atoms: S_10  and  C_11
REMARK    5  A    between atoms: C_21  and  C_22
REMARK    6  A    between atoms: C_27  and  C_28
REMARK                            x       y       z     vdW  Elec       q    Type
REMARK                         _______ _______ _______ _____ _____    ______ ____
ROOT
ATOM      1  O   UNL     1       1.937   8.608  17.310  0.00  0.00    +0.000 OA
ATOM      2  C   UNL     1       2.163   8.237  18.455  0.00  0.00    +0.000 C 
ATOM      3  N   UNL     1       3.022   7.215  18.820  0.00  0.00    +0.000 N 
ATOM      4  H   UNL     1       2.817   6.803  19.728  0.00  0.00    +0.000 HD
ENDROOT
BRANCH   2   5
ATOM      5  C   UNL     1       1.411   8.786  19.573  0.00  0.00    +0.000 A 
ATOM      6  C   UNL     1       1.567   8.497  20.939  0.00  0.00    +0.000 A 
ATOM      7  N   UNL     1       0.761   9.217  21.721  0.00  0.00    +0.000 NA
ATOM      8  N   UNL     1       0.060  10.008  20.875  0.00  0.00    +0.000 N 
ATOM      9  C   UNL     1      -0.867  11.008  21.162  0.00  0.00    +0.000 A 
ATOM     10  C   UNL     1      -1.495  11.644  20.150  0.00  0.00    +0.000 A 
ATOM     11  C   UNL     1      -1.145  11.189  18.782  0.00  0.00    +0.000 A 
ATOM     12  N   UNL     1      -0.238  10.313  18.480  0.00  0.00    +0.000 NA
ATOM     13  C   UNL     1       0.391   9.716  19.541  0.00  0.00    +0.000 A 
BRANCH   9  14
ATOM     14  C   UNL     1      -1.117  11.380  22.578  0.00  0.00    +0.000 C 
ATOM     15  F   UNL     1      -0.579  12.542  23.010  0.00  0.00    +0.000 F 
ATOM     16  F   UNL     1      -2.457  11.472  22.809  0.00  0.00    +0.000 F 
ATOM     17  F   UNL     1      -0.665  10.408  23.415  0.00  0.00    +0.000 F 
ENDBRANCH   9  14
BRANCH  11  18
ATOM     18  C   UNL     1      -1.947  11.747  17.671  0.00  0.00    +0.000 C 
ATOM     19  C   UNL     1      -2.474  10.880  16.556  0.00  0.00    +0.000 C 
ATOM     20  C   UNL     1      -3.424  11.437  17.573  0.00  0.00    +0.000 C 
ENDBRANCH  11  18
ENDBRANCH   2   5
BRANCH   3  21
ATOM     21  C   UNL     1       3.771   6.435  17.919  0.00  0.00    +0.000 A 
ATOM     22  C   UNL     1       4.991   6.990  17.500  0.00  0.00    +0.000 A 
ATOM     23  C   UNL     1       5.824   6.292  16.627  0.00  0.00    +0.000 A 
ATOM     24  C   UNL     1       5.421   5.058  16.129  0.00  0.00    +0.000 A 
ATOM     25  C   UNL     1       4.186   4.521  16.502  0.00  0.00    +0.000 A 
ATOM     26  C   UNL     1       3.340   5.200  17.396  0.00  0.00    +0.000 A 
BRANCH  26  27
ATOM     27  S   UNL     1       1.756   4.446  17.754  0.00  0.00    +0.000 S 
BRANCH  27  28
ATOM     28  C   UNL     1       1.995   3.583  19.298  0.00  0.00    +0.000 A 
ATOM     29  C   UNL     1       3.276   3.085  19.577  0.00  0.00    +0.000 A 
ATOM     30  C   UNL     1       3.558   2.467  20.799  0.00  0.00    +0.000 A 
ATOM     31  C   UNL     1       2.555   2.341  21.759  0.00  0.00    +0.000 A 
ATOM     32  C   UNL     1       1.278   2.836  21.496  0.00  0.00    +0.000 A 
ATOM     33  C   UNL     1       1.000   3.459  20.274  0.00  0.00    +0.000 A 
ENDBRANCH  27  28
ENDBRANCH  26  27
ENDBRANCH   3  21
TORSDOF 6
ENDMDL
MODEL 9
REMARK VINA RESULT:      -8.4      4.134      8.681
REMARK  Name = 
REMARK  6 active torsions:
REMARK  status: ('A' for Active; 'I' for Inactive)
REMARK    1  A    between atoms: C_2  and  C_17
REMARK    2  A    between atoms: N_3  and  C_4
REMARK    3  A    between atoms: C_9  and  S_10
REMARK    4  A    between atoms: S_10  and  C_11
REMARK    5  A    between atoms: C_21  and  C_22
REMARK    6  A    between atoms: C_27  and  C_28
REMARK                            x       y       z     vdW  Elec       q    Type
REMARK                         _______ _______ _______ _____ _____    ______ ____
ROOT
ATOM      1  O   UNL     1       0.983   7.253  21.184  0.00  0.00    +0.000 OA
ATOM      2  C   UNL     1       1.480   8.022  20.370  0.00  0.00    +0.000 C 
ATOM      3  N   UNL     1       1.220   9.378  20.274  0.00  0.00    +0.000 N 
ATOM      4  H   UNL     1       1.409   9.775  19.356  0.00  0.00    +0.000 HD
ENDROOT
BRANCH   2   5
ATOM      5  C   UNL     1       2.330   7.521  19.301  0.00  0.00    +0.000 A 
ATOM      6  C   UNL     1       2.790   8.216  18.170  0.00  0.00    +0.000 A 
ATOM      7  N   UNL     1       3.608   7.489  17.407  0.00  0.00    +0.000 NA
ATOM      8  N   UNL     1       3.710   6.295  18.034  0.00  0.00    +0.000 N 
ATOM      9  C   UNL     1       4.497   5.190  17.711  0.00  0.00    +0.000 A 
ATOM     10  C   UNL     1       4.402   4.066  18.453  0.00  0.00    +0.000 A 
ATOM     11  C   UNL     1       3.422   4.105  19.566  0.00  0.00    +0.000 A 
ATOM     12  N   UNL     1       2.729   5.137  19.935  0.00  0.00    +0.000 NA
ATOM     13  C   UNL     1       2.880   6.261  19.167  0.00  0.00    +0.000 A 
BRANCH   9  14
ATOM     14  C   UNL     1       5.451   5.287  16.578  0.00  0.00    +0.000 C 
ATOM     15  F   UNL     1       6.354   6.292  16.621  0.00  0.00    +0.000 F 
ATOM     16  F   UNL     1       6.170   4.134  16.470  0.00  0.00    +0.000 F 
ATOM     17  F   UNL     1       4.784   5.415  15.399  0.00  0.00    +0.000 F 
ENDBRANCH   9  14
BRANCH  11  18
ATOM     18  C   UNL     1       3.176   2.831  20.279  0.00  0.00    +0.000 C 
ATOM     19  C   UNL     1       2.326   2.766  21.522  0.00  0.00    +0.000 C 
ATOM     20  C   UNL     1       1.805   2.193  20.237  0.00  0.00    +0.000 C 
ENDBRANCH  11  18
ENDBRANCH   2   5
BRANCH   3  21
ATOM     21  C   UNL     1       0.332  10.086  21.107  0.00  0.00    +0.000 A 
ATOM     22  C   UNL     1       0.124   9.539  22.382  0.00  0.00    +0.000 A 
ATOM     23  C   UNL     1      -0.717  10.171  23.296  0.00  0.00    +0.000 A 
ATOM     24  C   UNL     1      -1.393  11.328  22.925  0.00  0.00    +0.000 A 
ATOM     25  C   UNL     1      -1.229  11.852  21.639  0.00  0.00    +0.000 A 
ATOM     26  C   UNL     1      -0.372  11.240  20.710  0.00  0.00    +0.000 A 
BRANCH  26  27
ATOM     27  S   UNL     1      -0.289  11.964  19.074  0.00  0.00    +0.000 S 
BRANCH  27  28
ATOM     28  C   UNL     1      -1.765  11.399  18.244  0.00  0.00    +0.000 A 
ATOM     29  C   UNL     1      -1.634  10.349  17.323  0.00  0.00    +0.000 A 
ATOM     30  C   UNL     1      -2.756   9.801  16.693  0.00  0.00    +0.000 A 
ATOM     31  C   UNL     1      -4.025  10.302  16.979  0.00  0.00    +0.000 A 
ATOM     32  C   UNL     1      -4.168  11.343  17.896  0.00  0.00    +0.000 A 
ATOM     33  C   UNL     1      -3.044  11.886  18.530  0.00  0.00    +0.000 A 
ENDBRANCH  27  28
ENDBRANCH  26  27
ENDBRANCH   3  21
TORSDOF 6
ENDMDL
