MODEL 1
REMARK VINA RESULT:      -8.1      0.000      0.000
REMARK  Name = 
REMARK  3 active torsions:
REMARK  status: ('A' for Active; 'I' for Inactive)
REMARK    1  A    between atoms: C_1  and  C_2
REMARK    2  A    between atoms: C_2  and  C_3
REMARK    3  A    between atoms: C_11  and  C_12
REMARK                            x       y       z     vdW  Elec       q    Type
REMARK                         _______ _______ _______ _____ _____    ______ ____
ROOT
ATOM      1  C   UNL     1       5.153   7.108  18.512  0.00  0.00    +0.000 C 
ATOM      2  C   UNL     1       4.357   5.846  18.095  0.00  0.00    +0.000 C 
ATOM      3  C   UNL     1       2.876   6.183  17.850  0.00  0.00    +0.000 C 
ATOM      4  C   UNL     1       2.248   6.799  19.087  0.00  0.00    +0.000 C 
ATOM      5  N   UNL     1       2.026   6.122  20.173  0.00  0.00    +0.000 NA
ATOM      6  C   UNL     1       2.333   4.746  20.230  0.00  0.00    +0.000 A 
ATOM      7  C   UNL     1       1.362   3.921  20.821  0.00  0.00    +0.000 A 
ATOM      8  C   UNL     1       1.563   2.548  20.967  0.00  0.00    +0.000 A 
ATOM      9  C   UNL     1       2.756   1.979  20.542  0.00  0.00    +0.000 A 
ATOM     10  C   UNL     1       3.744   2.786  19.979  0.00  0.00    +0.000 A 
ATOM     11  C   UNL     1       3.555   4.172  19.804  0.00  0.00    +0.000 A 
ATOM     12  N   UNL     1       4.586   4.884  19.186  0.00  0.00    +0.000 N 
ATOM     13  H   UNL     1       5.456   4.369  19.087  0.00  0.00    +0.000 HD
ENDROOT
BRANCH   2  14
ATOM     14  C   UNL     1       4.912   5.240  16.779  0.00  0.00    +0.000 A 
ATOM     15  C   UNL     1       5.238   6.073  15.688  0.00  0.00    +0.000 A 
ATOM     16  C   UNL     1       5.663   5.544  14.467  0.00  0.00    +0.000 A 
ATOM     17  C   UNL     1       5.807   4.169  14.324  0.00  0.00    +0.000 A 
ATOM     18 CL   UNL     1       6.279   3.509  12.808  0.00  0.00    +0.000 Cl
ATOM     19  C   UNL     1       5.567   3.326  15.403  0.00  0.00    +0.000 A 
ATOM     20  C   UNL     1       5.130   3.858  16.623  0.00  0.00    +0.000 A 
ENDBRANCH   2  14
BRANCH   4  21
ATOM     21  C   UNL     1       1.924   8.259  19.059  0.00  0.00    +0.000 A 
ATOM     22  C   UNL     1       1.269   8.880  20.130  0.00  0.00    +0.000 A 
ATOM     23  C   UNL     1       0.873  10.217  20.035  0.00  0.00    +0.000 A 
ATOM     24  C   UNL     1       1.156  10.942  18.881  0.00  0.00    +0.000 A 
ATOM     25 CL   UNL     1       0.629  12.574  18.755  0.00  0.00    +0.000 Cl
ATOM     26  C   UNL     1       1.855  10.351  17.832  0.00  0.00    +0.000 A 
ATOM     27  C   UNL     1       2.244   9.009  17.920  0.00  0.00    +0.000 A 
ENDBRANCH   4  21
TORSDOF 2
ENDMDL
MODEL 2
REMARK VINA RESULT:      -7.9      0.323      1.376
REMARK  Name = 
REMARK  3 active torsions:
REMARK  status: ('A' for Active; 'I' for Inactive)
REMARK    1  A    between atoms: C_1  and  C_2
REMARK    2  A    between atoms: C_2  and  C_3
REMARK    3  A    between atoms: C_11  and  C_12
REMARK                            x       y       z     vdW  Elec       q    Type
REMARK                         _______ _______ _______ _____ _____    ______ ____
ROOT
ATOM      1  C   UNL     1       5.146   7.329  18.202  0.00  0.00    +0.000 C 
ATOM      2  C   UNL     1       4.424   5.984  17.932  0.00  0.00    +0.000 C 
ATOM      3  C   UNL     1       2.904   6.188  17.812  0.00  0.00    +0.000 C 
ATOM      4  C   UNL     1       2.341   6.827  19.069  0.00  0.00    +0.000 C 
ATOM      5  N   UNL     1       2.278   6.202  20.205  0.00  0.00    +0.000 NA
ATOM      6  C   UNL     1       2.703   4.861  20.307  0.00  0.00    +0.000 A 
ATOM      7  C   UNL     1       1.864   3.999  21.031  0.00  0.00    +0.000 A 
ATOM      8  C   UNL     1       2.192   2.658  21.231  0.00  0.00    +0.000 A 
ATOM      9  C   UNL     1       3.385   2.160  20.723  0.00  0.00    +0.000 A 
ATOM     10  C   UNL     1       4.246   3.006  20.027  0.00  0.00    +0.000 A 
ATOM     11  C   UNL     1       3.926   4.360  19.796  0.00  0.00    +0.000 A 
ATOM     12  N   UNL     1       4.832   5.112  19.045  0.00  0.00    +0.000 N 
ATOM     13  H   UNL     1       5.730   4.662  18.891  0.00  0.00    +0.000 HD
ENDROOT
BRANCH   2  14
ATOM     14  C   UNL     1       4.906   5.345  16.602  0.00  0.00    +0.000 A 
ATOM     15  C   UNL     1       5.063   3.947  16.495  0.00  0.00    +0.000 A 
ATOM     16  C   UNL     1       5.572   3.357  15.335  0.00  0.00    +0.000 A 
ATOM     17  C   UNL     1       5.898   4.151  14.243  0.00  0.00    +0.000 A 
ATOM     18 CL   UNL     1       6.573   3.437  12.833  0.00  0.00    +0.000 Cl
ATOM     19  C   UNL     1       5.682   5.524  14.289  0.00  0.00    +0.000 A 
ATOM     20  C   UNL     1       5.183   6.115  15.457  0.00  0.00    +0.000 A 
ENDBRANCH   2  14
BRANCH   4  21
ATOM     21  C   UNL     1       1.895   8.252  18.994  0.00  0.00    +0.000 A 
ATOM     22  C   UNL     1       2.158   9.039  17.865  0.00  0.00    +0.000 A 
ATOM     23  C   UNL     1       1.835  10.399  17.863  0.00  0.00    +0.000 A 
ATOM     24  C   UNL     1       1.223  10.967  18.977  0.00  0.00    +0.000 A 
ATOM     25 CL   UNL     1       0.865  12.649  18.982  0.00  0.00    +0.000 Cl
ATOM     26  C   UNL     1       0.906  10.182  20.083  0.00  0.00    +0.000 A 
ATOM     27  C   UNL     1       1.238   8.823  20.092  0.00  0.00    +0.000 A 
ENDBRANCH   4  21
TORSDOF 2
ENDMDL
MODEL 3
REMARK VINA RESULT:      -7.8      4.452      8.168
REMARK  Name = 
REMARK  3 active torsions:
REMARK  status: ('A' for Active; 'I' for Inactive)
REMARK    1  A    between atoms: C_1  and  C_2
REMARK    2  A    between atoms: C_2  and  C_3
REMARK    3  A    between atoms: C_11  and  C_12
REMARK                            x       y       z     vdW  Elec       q    Type
REMARK                         _______ _______ _______ _____ _____    ______ ____
ROOT
ATOM      1  C   UNL     1      -1.375  10.633  18.839  0.00  0.00    +0.000 C 
ATOM      2  C   UNL     1       0.076  10.919  19.301  0.00  0.00    +0.000 C 
ATOM      3  C   UNL     1       0.099  11.477  20.735  0.00  0.00    +0.000 C 
ATOM      4  C   UNL     1      -0.730  12.744  20.837  0.00  0.00    +0.000 C 
ATOM      5  N   UNL     1      -0.374  13.862  20.281  0.00  0.00    +0.000 NA
ATOM      6  C   UNL     1       0.845  13.951  19.577  0.00  0.00    +0.000 A 
ATOM      7  C   UNL     1       1.621  15.095  19.827  0.00  0.00    +0.000 A 
ATOM      8  C   UNL     1       2.831  15.315  19.167  0.00  0.00    +0.000 A 
ATOM      9  C   UNL     1       3.275  14.399  18.223  0.00  0.00    +0.000 A 
ATOM     10  C   UNL     1       2.504  13.272  17.938  0.00  0.00    +0.000 A 
ATOM     11  C   UNL     1       1.289  13.019  18.607  0.00  0.00    +0.000 A 
ATOM     12  N   UNL     1       0.617  11.838  18.286  0.00  0.00    +0.000 N 
ATOM     13  H   UNL     1       0.972  11.358  17.464  0.00  0.00    +0.000 HD
ENDROOT
BRANCH   2  14
ATOM     14  C   UNL     1       0.932   9.624  19.300  0.00  0.00    +0.000 A 
ATOM     15  C   UNL     1       1.596   9.206  18.129  0.00  0.00    +0.000 A 
ATOM     16  C   UNL     1       2.306   8.002  18.082  0.00  0.00    +0.000 A 
ATOM     17  C   UNL     1       2.396   7.212  19.221  0.00  0.00    +0.000 A 
ATOM     18 CL   UNL     1       3.223   5.705  19.155  0.00  0.00    +0.000 Cl
ATOM     19  C   UNL     1       1.817   7.633  20.412  0.00  0.00    +0.000 A 
ATOM     20  C   UNL     1       1.098   8.834  20.453  0.00  0.00    +0.000 A 
ENDBRANCH   2  14
BRANCH   4  21
ATOM     21  C   UNL     1      -2.033  12.675  21.567  0.00  0.00    +0.000 A 
ATOM     22  C   UNL     1      -3.231  13.068  20.956  0.00  0.00    +0.000 A 
ATOM     23  C   UNL     1      -4.419  13.106  21.693  0.00  0.00    +0.000 A 
ATOM     24  C   UNL     1      -4.416  12.725  23.031  0.00  0.00    +0.000 A 
ATOM     25 CL   UNL     1      -5.872  12.813  23.941  0.00  0.00    +0.000 Cl
ATOM     26  C   UNL     1      -3.242  12.280  23.634  0.00  0.00    +0.000 A 
ATOM     27  C   UNL     1      -2.049  12.251  22.902  0.00  0.00    +0.000 A 
ENDBRANCH   4  21
TORSDOF 2
ENDMDL
MODEL 4
REMARK VINA RESULT:      -7.7      1.030      1.079
REMARK  Name = 
REMARK  3 active torsions:
REMARK  status: ('A' for Active; 'I' for Inactive)
REMARK    1  A    between atoms: C_1  and  C_2
REMARK    2  A    between atoms: C_2  and  C_3
REMARK    3  A    between atoms: C_11  and  C_12
REMARK                            x       y       z     vdW  Elec       q    Type
REMARK                         _______ _______ _______ _____ _____    ______ ____
ROOT
ATOM      1  C   UNL     1       5.443   6.677  18.427  0.00  0.00    +0.000 C 
ATOM      2  C   UNL     1       4.710   5.518  17.705  0.00  0.00    +0.000 C 
ATOM      3  C   UNL     1       3.264   5.911  17.357  0.00  0.00    +0.000 C 
ATOM      4  C   UNL     1       2.494   6.304  18.605  0.00  0.00    +0.000 C 
ATOM      5  N   UNL     1       2.157   5.447  19.520  0.00  0.00    +0.000 NA
ATOM      6  C   UNL     1       2.467   4.080  19.366  0.00  0.00    +0.000 A 
ATOM      7  C   UNL     1       1.442   3.174  19.687  0.00  0.00    +0.000 A 
ATOM      8  C   UNL     1       1.637   1.795  19.607  0.00  0.00    +0.000 A 
ATOM      9  C   UNL     1       2.875   1.296  19.225  0.00  0.00    +0.000 A 
ATOM     10  C   UNL     1       3.914   2.179  18.931  0.00  0.00    +0.000 A 
ATOM     11  C   UNL     1       3.735   3.576  18.986  0.00  0.00    +0.000 A 
ATOM     12  N   UNL     1       4.823   4.375  18.625  0.00  0.00    +0.000 N 
ATOM     13  H   UNL     1       5.703   3.876  18.535  0.00  0.00    +0.000 HD
ENDROOT
BRANCH   2  14
ATOM     14  C   UNL     1       5.417   5.150  16.373  0.00  0.00    +0.000 A 
ATOM     15  C   UNL     1       6.751   5.541  16.138  0.00  0.00    +0.000 A 
ATOM     16  C   UNL     1       7.381   5.291  14.915  0.00  0.00    +0.000 A 
ATOM     17  C   UNL     1       6.698   4.609  13.916  0.00  0.00    +0.000 A 
ATOM     18 CL   UNL     1       7.449   4.344  12.391  0.00  0.00    +0.000 Cl
ATOM     19  C   UNL     1       5.409   4.143  14.143  0.00  0.00    +0.000 A 
ATOM     20  C   UNL     1       4.776   4.404  15.365  0.00  0.00    +0.000 A 
ENDBRANCH   2  14
BRANCH   4  21
ATOM     21  C   UNL     1       2.163   7.749  18.801  0.00  0.00    +0.000 A 
ATOM     22  C   UNL     1       1.612   8.214  20.003  0.00  0.00    +0.000 A 
ATOM     23  C   UNL     1       1.203   9.544  20.123  0.00  0.00    +0.000 A 
ATOM     24  C   UNL     1       1.370  10.419  19.054  0.00  0.00    +0.000 A 
ATOM     25 CL   UNL     1       0.826  12.045  19.195  0.00  0.00    +0.000 Cl
ATOM     26  C   UNL     1       1.966   9.983  17.873  0.00  0.00    +0.000 A 
ATOM     27  C   UNL     1       2.368   8.648  17.746  0.00  0.00    +0.000 A 
ENDBRANCH   4  21
TORSDOF 2
ENDMDL
MODEL 5
REMARK VINA RESULT:      -7.6      4.533      8.231
REMARK  Name = 
REMARK  3 active torsions:
REMARK  status: ('A' for Active; 'I' for Inactive)
REMARK    1  A    between atoms: C_1  and  C_2
REMARK    2  A    between atoms: C_2  and  C_3
REMARK    3  A    between atoms: C_11  and  C_12
REMARK                            x       y       z     vdW  Elec       q    Type
REMARK                         _______ _______ _______ _____ _____    ______ ____
ROOT
ATOM      1  C   UNL     1      -1.409  10.886  18.933  0.00  0.00    +0.000 C 
ATOM      2  C   UNL     1       0.071  11.077  19.350  0.00  0.00    +0.000 C 
ATOM      3  C   UNL     1       0.176  11.614  20.787  0.00  0.00    +0.000 C 
ATOM      4  C   UNL     1      -0.569  12.929  20.930  0.00  0.00    +0.000 C 
ATOM      5  N   UNL     1      -0.162  14.030  20.373  0.00  0.00    +0.000 NA
ATOM      6  C   UNL     1       1.036  14.052  19.629  0.00  0.00    +0.000 A 
ATOM      7  C   UNL     1       1.889  15.142  19.865  0.00  0.00    +0.000 A 
ATOM      8  C   UNL     1       3.088  15.295  19.167  0.00  0.00    +0.000 A 
ATOM      9  C   UNL     1       3.443  14.364  18.200  0.00  0.00    +0.000 A 
ATOM     10  C   UNL     1       2.595  13.290  17.930  0.00  0.00    +0.000 A 
ATOM     11  C   UNL     1       1.389  13.106  18.636  0.00  0.00    +0.000 A 
ATOM     12  N   UNL     1       0.634  11.972  18.326  0.00  0.00    +0.000 N 
ATOM     13  H   UNL     1       0.932  11.482  17.487  0.00  0.00    +0.000 HD
ENDROOT
BRANCH   2  14
ATOM     14  C   UNL     1       0.844   9.731  19.307  0.00  0.00    +0.000 A 
ATOM     15  C   UNL     1       0.938   8.923  20.459  0.00  0.00    +0.000 A 
ATOM     16  C   UNL     1       1.696   7.748  20.466  0.00  0.00    +0.000 A 
ATOM     17  C   UNL     1       2.344   7.339  19.307  0.00  0.00    +0.000 A 
ATOM     18 CL   UNL     1       3.320   5.924  19.324  0.00  0.00    +0.000 Cl
ATOM     19  C   UNL     1       2.208   8.073  18.135  0.00  0.00    +0.000 A 
ATOM     20  C   UNL     1       1.458   9.256  18.133  0.00  0.00    +0.000 A 
ENDBRANCH   2  14
BRANCH   4  21
ATOM     21  C   UNL     1      -1.849  12.933  21.702  0.00  0.00    +0.000 A 
ATOM     22  C   UNL     1      -1.936  12.344  22.971  0.00  0.00    +0.000 A 
ATOM     23  C   UNL     1      -3.168  12.256  23.625  0.00  0.00    +0.000 A 
ATOM     24  C   UNL     1      -4.309  12.780  23.025  0.00  0.00    +0.000 A 
ATOM     25 CL   UNL     1      -5.828  12.631  23.817  0.00  0.00    +0.000 Cl
ATOM     26  C   UNL     1      -4.226  13.416  21.788  0.00  0.00    +0.000 A 
ATOM     27  C   UNL     1      -2.995  13.497  21.127  0.00  0.00    +0.000 A 
ENDBRANCH   4  21
TORSDOF 2
ENDMDL
MODEL 6
REMARK VINA RESULT:      -7.6      3.898      6.462
REMARK  Name = 
REMARK  3 active torsions:
REMARK  status: ('A' for Active; 'I' for Inactive)
REMARK    1  A    between atoms: C_1  and  C_2
REMARK    2  A    between atoms: C_2  and  C_3
REMARK    3  A    between atoms: C_11  and  C_12
REMARK                            x       y       z     vdW  Elec       q    Type
REMARK                         _______ _______ _______ _____ _____    ______ ____
ROOT
ATOM      1  C   UNL     1       6.985   4.811  19.021  0.00  0.00    +0.000 C 
ATOM      2  C   UNL     1       6.782   5.663  17.743  0.00  0.00    +0.000 C 
ATOM      3  C   UNL     1       5.287   5.864  17.443  0.00  0.00    +0.000 C 
ATOM      4  C   UNL     1       4.582   4.529  17.285  0.00  0.00    +0.000 C 
ATOM      5  N   UNL     1       4.790   3.741  16.274  0.00  0.00    +0.000 NA
ATOM      6  C   UNL     1       5.672   4.125  15.241  0.00  0.00    +0.000 A 
ATOM      7  C   UNL     1       5.225   3.893  13.930  0.00  0.00    +0.000 A 
ATOM      8  C   UNL     1       6.020   4.197  12.824  0.00  0.00    +0.000 A 
ATOM      9  C   UNL     1       7.291   4.722  13.015  0.00  0.00    +0.000 A 
ATOM     10  C   UNL     1       7.764   4.931  14.309  0.00  0.00    +0.000 A 
ATOM     11  C   UNL     1       6.972   4.649  15.441  0.00  0.00    +0.000 A 
ATOM     12  N   UNL     1       7.519   4.941  16.693  0.00  0.00    +0.000 N 
ATOM     13  H   UNL     1       8.511   5.157  16.681  0.00  0.00    +0.000 HD
ENDROOT
BRANCH   2  14
ATOM     14  C   UNL     1       7.410   7.074  17.903  0.00  0.00    +0.000 A 
ATOM     15  C   UNL     1       8.427   7.302  18.853  0.00  0.00    +0.000 A 
ATOM     16  C   UNL     1       8.950   8.580  19.070  0.00  0.00    +0.000 A 
ATOM     17  C   UNL     1       8.490   9.650  18.313  0.00  0.00    +0.000 A 
ATOM     18 CL   UNL     1       9.092  11.233  18.612  0.00  0.00    +0.000 Cl
ATOM     19  C   UNL     1       7.543   9.445  17.317  0.00  0.00    +0.000 A 
ATOM     20  C   UNL     1       7.013   8.166  17.108  0.00  0.00    +0.000 A 
ENDBRANCH   2  14
BRANCH   4  21
ATOM     21  C   UNL     1       3.652   4.091  18.371  0.00  0.00    +0.000 A 
ATOM     22  C   UNL     1       3.162   4.998  19.319  0.00  0.00    +0.000 A 
ATOM     23  C   UNL     1       2.388   4.547  20.392  0.00  0.00    +0.000 A 
ATOM     24  C   UNL     1       2.080   3.195  20.503  0.00  0.00    +0.000 A 
ATOM     25 CL   UNL     1       1.162   2.641  21.848  0.00  0.00    +0.000 Cl
ATOM     26  C   UNL     1       2.515   2.291  19.536  0.00  0.00    +0.000 A 
ATOM     27  C   UNL     1       3.298   2.739  18.466  0.00  0.00    +0.000 A 
ENDBRANCH   4  21
TORSDOF 2
ENDMDL
MODEL 7
REMARK VINA RESULT:      -7.5      4.555      8.298
REMARK  Name = 
REMARK  3 active torsions:
REMARK  status: ('A' for Active; 'I' for Inactive)
REMARK    1  A    between atoms: C_1  and  C_2
REMARK    2  A    between atoms: C_2  and  C_3
REMARK    3  A    between atoms: C_11  and  C_12
REMARK                            x       y       z     vdW  Elec       q    Type
REMARK                         _______ _______ _______ _____ _____    ______ ____
ROOT
ATOM      1  C   UNL     1      -1.335  10.665  18.118  0.00  0.00    +0.000 C 
ATOM      2  C   UNL     1      -0.058  10.992  18.933  0.00  0.00    +0.000 C 
ATOM      3  C   UNL     1      -0.417  11.527  20.331  0.00  0.00    +0.000 C 
ATOM      4  C   UNL     1      -1.292  12.763  20.231  0.00  0.00    +0.000 C 
ATOM      5  N   UNL     1      -0.850  13.901  19.790  0.00  0.00    +0.000 NA
ATOM      6  C   UNL     1       0.503  14.044  19.416  0.00  0.00    +0.000 A 
ATOM      7  C   UNL     1       1.148  15.210  19.862  0.00  0.00    +0.000 A 
ATOM      8  C   UNL     1       2.475  15.482  19.530  0.00  0.00    +0.000 A 
ATOM      9  C   UNL     1       3.177  14.597  18.722  0.00  0.00    +0.000 A 
ATOM     10  C   UNL     1       2.545  13.449  18.244  0.00  0.00    +0.000 A 
ATOM     11  C   UNL     1       1.211  13.144  18.583  0.00  0.00    +0.000 A 
ATOM     12  N   UNL     1       0.686  11.946  18.094  0.00  0.00    +0.000 N 
ATOM     13  H   UNL     1       1.254  11.493  17.384  0.00  0.00    +0.000 HD
ENDROOT
BRANCH   2  14
ATOM     14  C   UNL     1       0.818   9.728  19.138  0.00  0.00    +0.000 A 
ATOM     15  C   UNL     1       1.561   9.190  18.067  0.00  0.00    +0.000 A 
ATOM     16  C   UNL     1       2.293   8.008  18.207  0.00  0.00    +0.000 A 
ATOM     17  C   UNL     1       2.326   7.359  19.435  0.00  0.00    +0.000 A 
ATOM     18 CL   UNL     1       3.182   5.877  19.600  0.00  0.00    +0.000 Cl
ATOM     19  C   UNL     1       1.667   7.905  20.531  0.00  0.00    +0.000 A 
ATOM     20  C   UNL     1       0.926   9.084  20.385  0.00  0.00    +0.000 A 
ENDBRANCH   2  14
BRANCH   4  21
ATOM     21  C   UNL     1      -2.734  12.637  20.608  0.00  0.00    +0.000 A 
ATOM     22  C   UNL     1      -3.727  12.454  19.637  0.00  0.00    +0.000 A 
ATOM     23  C   UNL     1      -5.077  12.455  20.001  0.00  0.00    +0.000 A 
ATOM     24  C   UNL     1      -5.434  12.612  21.337  0.00  0.00    +0.000 A 
ATOM     25 CL   UNL     1      -7.097  12.654  21.771  0.00  0.00    +0.000 Cl
ATOM     26  C   UNL     1      -4.453  12.740  22.318  0.00  0.00    +0.000 A 
ATOM     27  C   UNL     1      -3.101  12.749  21.956  0.00  0.00    +0.000 A 
ENDBRANCH   4  21
TORSDOF 2
ENDMDL
MODEL 8
REMARK VINA RESULT:      -7.1      1.347      6.354
REMARK  Name = 
REMARK  3 active torsions:
REMARK  status: ('A' for Active; 'I' for Inactive)
REMARK    1  A    between atoms: C_1  and  C_2
REMARK    2  A    between atoms: C_2  and  C_3
REMARK    3  A    between atoms: C_11  and  C_12
REMARK                            x       y       z     vdW  Elec       q    Type
REMARK                         _______ _______ _______ _____ _____    ______ ____
ROOT
ATOM      1  C   UNL     1       2.201   6.043  17.054  0.00  0.00    +0.000 C 
ATOM      2  C   UNL     1       2.452   6.001  18.583  0.00  0.00    +0.000 C 
ATOM      3  C   UNL     1       3.947   5.815  18.893  0.00  0.00    +0.000 C 
ATOM      4  C   UNL     1       4.481   4.547  18.251  0.00  0.00    +0.000 C 
ATOM      5  N   UNL     1       4.139   3.361  18.654  0.00  0.00    +0.000 NA
ATOM      6  C   UNL     1       3.269   3.203  19.753  0.00  0.00    +0.000 A 
ATOM      7  C   UNL     1       3.631   2.225  20.692  0.00  0.00    +0.000 A 
ATOM      8  C   UNL     1       2.835   1.951  21.805  0.00  0.00    +0.000 A 
ATOM      9  C   UNL     1       1.644   2.643  21.984  0.00  0.00    +0.000 A 
ATOM     10  C   UNL     1       1.251   3.597  21.047  0.00  0.00    +0.000 A 
ATOM     11  C   UNL     1       2.050   3.903  19.925  0.00  0.00    +0.000 A 
ATOM     12  N   UNL     1       1.592   4.910  19.072  0.00  0.00    +0.000 N 
ATOM     13  H   UNL     1       0.633   5.201  19.236  0.00  0.00    +0.000 HD
ENDROOT
BRANCH   2  14
ATOM     14  C   UNL     1       2.005   7.323  19.263  0.00  0.00    +0.000 A 
ATOM     15  C   UNL     1       1.751   7.365  20.649  0.00  0.00    +0.000 A 
ATOM     16  C   UNL     1       1.271   8.523  21.269  0.00  0.00    +0.000 A 
ATOM     17  C   UNL     1       1.070   9.673  20.517  0.00  0.00    +0.000 A 
ATOM     18 CL   UNL     1       0.430  11.084  21.263  0.00  0.00    +0.000 Cl
ATOM     19  C   UNL     1       1.383   9.687  19.163  0.00  0.00    +0.000 A 
ATOM     20  C   UNL     1       1.854   8.523  18.542  0.00  0.00    +0.000 A 
ENDBRANCH   2  14
BRANCH   4  21
ATOM     21  C   UNL     1       5.395   4.684  17.076  0.00  0.00    +0.000 A 
ATOM     22  C   UNL     1       6.503   5.541  17.111  0.00  0.00    +0.000 A 
ATOM     23  C   UNL     1       7.276   5.741  15.964  0.00  0.00    +0.000 A 
ATOM     24  C   UNL     1       6.960   5.064  14.790  0.00  0.00    +0.000 A 
ATOM     25 CL   UNL     1       7.891   5.347  13.372  0.00  0.00    +0.000 Cl
ATOM     26  C   UNL     1       5.895   4.168  14.758  0.00  0.00    +0.000 A 
ATOM     27  C   UNL     1       5.113   3.973  15.902  0.00  0.00    +0.000 A 
ENDBRANCH   4  21
TORSDOF 2
ENDMDL
MODEL 9
REMARK VINA RESULT:      -7.1      5.170      7.980
REMARK  Name = 
REMARK  3 active torsions:
REMARK  status: ('A' for Active; 'I' for Inactive)
REMARK    1  A    between atoms: C_1  and  C_2
REMARK    2  A    between atoms: C_2  and  C_3
REMARK    3  A    between atoms: C_11  and  C_12
REMARK                            x       y       z     vdW  Elec       q    Type
REMARK                         _______ _______ _______ _____ _____    ______ ____
ROOT
ATOM      1  C   UNL     1      -0.881  13.003  19.322  0.00  0.00    +0.000 C 
ATOM      2  C   UNL     1      -1.056  11.466  19.233  0.00  0.00    +0.000 C 
ATOM      3  C   UNL     1      -1.761  10.916  20.485  0.00  0.00    +0.000 C 
ATOM      4  C   UNL     1      -0.988  11.272  21.742  0.00  0.00    +0.000 C 
ATOM      5  N   UNL     1       0.165  10.747  22.029  0.00  0.00    +0.000 NA
ATOM      6  C   UNL     1       0.737   9.776  21.181  0.00  0.00    +0.000 A 
ATOM      7  C   UNL     1       1.297   8.655  21.815  0.00  0.00    +0.000 A 
ATOM      8  C   UNL     1       1.922   7.642  21.087  0.00  0.00    +0.000 A 
ATOM      9  C   UNL     1       2.017   7.746  19.706  0.00  0.00    +0.000 A 
ATOM     10  C   UNL     1       1.493   8.866  19.060  0.00  0.00    +0.000 A 
ATOM     11  C   UNL     1       0.840   9.892  19.773  0.00  0.00    +0.000 A 
ATOM     12  N   UNL     1       0.307  10.947  19.029  0.00  0.00    +0.000 N 
ATOM     13  H   UNL     1       0.601  10.971  18.057  0.00  0.00    +0.000 HD
ENDROOT
BRANCH   2  14
ATOM     14  C   UNL     1      -1.923  11.069  18.009  0.00  0.00    +0.000 A 
ATOM     15  C   UNL     1      -1.515  10.027  17.149  0.00  0.00    +0.000 A 
ATOM     16  C   UNL     1      -2.238   9.706  15.997  0.00  0.00    +0.000 A 
ATOM     17  C   UNL     1      -3.406  10.397  15.702  0.00  0.00    +0.000 A 
ATOM     18 CL   UNL     1      -4.271  10.042  14.259  0.00  0.00    +0.000 Cl
ATOM     19  C   UNL     1      -3.876  11.377  16.568  0.00  0.00    +0.000 A 
ATOM     20  C   UNL     1      -3.145  11.704  17.717  0.00  0.00    +0.000 A 
ENDBRANCH   2  14
BRANCH   4  21
ATOM     21  C   UNL     1      -1.565  12.308  22.653  0.00  0.00    +0.000 A 
ATOM     22  C   UNL     1      -2.861  12.183  23.170  0.00  0.00    +0.000 A 
ATOM     23  C   UNL     1      -3.422  13.217  23.924  0.00  0.00    +0.000 A 
ATOM     24  C   UNL     1      -2.679  14.364  24.187  0.00  0.00    +0.000 A 
ATOM     25 CL   UNL     1      -3.391  15.650  25.081  0.00  0.00    +0.000 Cl
ATOM     26  C   UNL     1      -1.370  14.476  23.725  0.00  0.00    +0.000 A 
ATOM     27  C   UNL     1      -0.809  13.447  22.961  0.00  0.00    +0.000 A 
ENDBRANCH   4  21
TORSDOF 2
ENDMDL
