MODEL 1
REMARK VINA RESULT:      -6.8      0.000      0.000
REMARK  Name = 
REMARK  6 active torsions:
REMARK  status: ('A' for Active; 'I' for Inactive)
REMARK    1  A    between atoms: C_1  and  N_2
REMARK    2  A    between atoms: C_6  and  N_7
REMARK    3  A    between atoms: N_12  and  C_13
REMARK    4  A    between atoms: C_22  and  C_23
REMARK    5  A    between atoms: C_30  and  C_31
REMARK    6  A    between atoms: C_30  and  C_32
REMARK                            x       y       z     vdW  Elec       q    Type
REMARK                         _______ _______ _______ _____ _____    ______ ____
ROOT
ATOM      1  N   UNL     1      -1.695  12.099  19.294  0.00  0.00    +0.000 NA
ATOM      2  O   UNL     1      -2.045  13.459  19.681  0.00  0.00    +0.000 OA
ATOM      3  C   UNL     1      -0.934  13.984  20.381  0.00  0.00    +0.000 C 
ATOM      4  C   UNL     1       0.049  14.606  19.427  0.00  0.00    +0.000 C 
ATOM      5  O   UNL     1      -0.298  15.320  18.491  0.00  0.00    +0.000 OA
ATOM      6  N   UNL     1       1.315  14.201  19.781  0.00  0.00    +0.000 N 
ATOM      7  C   UNL     1       1.251  13.199  20.733  0.00  0.00    +0.000 C 
ATOM      8  O   UNL     1       2.165  12.678  21.363  0.00  0.00    +0.000 OA
ATOM      9  C   UNL     1      -0.188  12.841  21.002  0.00  0.00    +0.000 C 
ATOM     10  C   UNL     1      -0.781  11.599  20.343  0.00  0.00    +0.000 C 
ENDROOT
BRANCH   1  16
ATOM     11  C   UNL     1      -4.166  11.244  15.503  0.00  0.00    +0.000 C 
ATOM     12  N   UNL     1      -4.075  11.428  16.956  0.00  0.00    +0.000 N 
ATOM     13  C   UNL     1      -5.002  12.128  17.714  0.00  0.00    +0.000 C 
ATOM     14  S   UNL     1      -6.433  12.817  17.199  0.00  0.00    +0.000 S 
ATOM     15  S   UNL     1      -4.494  12.203  19.403  0.00  0.00    +0.000 S 
ATOM     16  C   UNL     1      -2.930  11.295  19.140  0.00  0.00    +0.000 C 
ATOM     17  C   UNL     1      -3.138  10.601  17.748  0.00  0.00    +0.000 C 
ATOM     18  C   UNL     1      -3.795   9.220  18.020  0.00  0.00    +0.000 C 
ATOM     19  C   UNL     1      -1.816  10.331  17.006  0.00  0.00    +0.000 C 
ENDBRANCH   1  16
BRANCH  10  20
ATOM     20  C   UNL     1       0.243  10.611  19.806  0.00  0.00    +0.000 A 
ATOM     21  C   UNL     1       0.877  10.860  18.577  0.00  0.00    +0.000 A 
ATOM     22  C   UNL     1       1.768   9.931  18.029  0.00  0.00    +0.000 A 
ATOM     23  C   UNL     1       2.031   8.741  18.703  0.00  0.00    +0.000 A 
ATOM     24 CL   UNL     1       3.099   7.581  18.014  0.00  0.00    +0.000 Cl
ATOM     25  C   UNL     1       1.423   8.480  19.927  0.00  0.00    +0.000 A 
ATOM     26  C   UNL     1       0.535   9.410  20.477  0.00  0.00    +0.000 A 
ENDBRANCH  10  20
BRANCH   6  27
ATOM     27  C   UNL     1       2.520  14.781  19.256  0.00  0.00    +0.000 A 
ATOM     28  C   UNL     1       2.955  16.053  19.665  0.00  0.00    +0.000 A 
ATOM     29  C   UNL     1       4.140  16.628  19.197  0.00  0.00    +0.000 A 
ATOM     30  C   UNL     1       4.929  15.930  18.291  0.00  0.00    +0.000 A 
ATOM     31  C   UNL     1       4.522  14.675  17.858  0.00  0.00    +0.000 A 
ATOM     32  C   UNL     1       3.331  14.105  18.333  0.00  0.00    +0.000 A 
ENDBRANCH   6  27
TORSDOF 3
ENDMDL
MODEL 2
REMARK VINA RESULT:      -6.7      2.530      3.310
REMARK  Name = 
REMARK  6 active torsions:
REMARK  status: ('A' for Active; 'I' for Inactive)
REMARK    1  A    between atoms: C_1  and  N_2
REMARK    2  A    between atoms: C_6  and  N_7
REMARK    3  A    between atoms: N_12  and  C_13
REMARK    4  A    between atoms: C_22  and  C_23
REMARK    5  A    between atoms: C_30  and  C_31
REMARK    6  A    between atoms: C_30  and  C_32
REMARK                            x       y       z     vdW  Elec       q    Type
REMARK                         _______ _______ _______ _____ _____    ______ ____
ROOT
ATOM      1  N   UNL     1      -3.097  14.120  21.005  0.00  0.00    +0.000 NA
ATOM      2  O   UNL     1      -3.010  15.567  20.860  0.00  0.00    +0.000 OA
ATOM      3  C   UNL     1      -1.687  15.933  21.200  0.00  0.00    +0.000 C 
ATOM      4  C   UNL     1      -0.787  15.851  19.997  0.00  0.00    +0.000 C 
ATOM      5  O   UNL     1      -1.121  16.264  18.891  0.00  0.00    +0.000 OA
ATOM      6  N   UNL     1       0.380  15.226  20.370  0.00  0.00    +0.000 N 
ATOM      7  C   UNL     1       0.255  14.689  21.639  0.00  0.00    +0.000 C 
ATOM      8  O   UNL     1       1.114  14.165  22.340  0.00  0.00    +0.000 OA
ATOM      9  C   UNL     1      -1.146  14.907  22.150  0.00  0.00    +0.000 C 
ATOM     10  C   UNL     1      -2.150  13.761  22.082  0.00  0.00    +0.000 C 
ENDROOT
BRANCH   1  16
ATOM     11  C   UNL     1      -6.651  13.733  18.102  0.00  0.00    +0.000 C 
ATOM     12  N   UNL     1      -6.117  14.015  19.439  0.00  0.00    +0.000 N 
ATOM     13  C   UNL     1      -6.566  15.038  20.260  0.00  0.00    +0.000 C 
ATOM     14  S   UNL     1      -7.832  16.090  19.983  0.00  0.00    +0.000 S 
ATOM     15  S   UNL     1      -5.613  15.107  21.744  0.00  0.00    +0.000 S 
ATOM     16  C   UNL     1      -4.500  13.734  21.285  0.00  0.00    +0.000 C 
ATOM     17  C   UNL     1      -5.267  13.013  20.121  0.00  0.00    +0.000 C 
ATOM     18  C   UNL     1      -6.182  11.940  20.773  0.00  0.00    +0.000 C 
ATOM     19  C   UNL     1      -4.330  12.274  19.148  0.00  0.00    +0.000 C 
ENDBRANCH   1  16
BRANCH  10  20
ATOM     20  C   UNL     1      -1.534  12.384  21.885  0.00  0.00    +0.000 A 
ATOM     21  C   UNL     1      -1.281  11.565  22.998  0.00  0.00    +0.000 A 
ATOM     22  C   UNL     1      -0.649  10.326  22.848  0.00  0.00    +0.000 A 
ATOM     23  C   UNL     1      -0.260   9.895  21.582  0.00  0.00    +0.000 A 
ATOM     24 CL   UNL     1       0.549   8.388  21.399  0.00  0.00    +0.000 Cl
ATOM     25  C   UNL     1      -0.512  10.685  20.465  0.00  0.00    +0.000 A 
ATOM     26  C   UNL     1      -1.146  11.923  20.615  0.00  0.00    +0.000 A 
ENDBRANCH  10  20
BRANCH   6  27
ATOM     27  C   UNL     1       1.564  15.187  19.557  0.00  0.00    +0.000 A 
ATOM     28  C   UNL     1       1.996  13.991  18.957  0.00  0.00    +0.000 A 
ATOM     29  C   UNL     1       3.125  13.930  18.135  0.00  0.00    +0.000 A 
ATOM     30  C   UNL     1       3.861  15.083  17.893  0.00  0.00    +0.000 A 
ATOM     31  C   UNL     1       3.467  16.278  18.479  0.00  0.00    +0.000 A 
ATOM     32  C   UNL     1       2.333  16.332  19.304  0.00  0.00    +0.000 A 
ENDBRANCH   6  27
TORSDOF 3
ENDMDL
MODEL 3
REMARK VINA RESULT:      -6.6      2.653      3.259
REMARK  Name = 
REMARK  6 active torsions:
REMARK  status: ('A' for Active; 'I' for Inactive)
REMARK    1  A    between atoms: C_1  and  N_2
REMARK    2  A    between atoms: C_6  and  N_7
REMARK    3  A    between atoms: N_12  and  C_13
REMARK    4  A    between atoms: C_22  and  C_23
REMARK    5  A    between atoms: C_30  and  C_31
REMARK    6  A    between atoms: C_30  and  C_32
REMARK                            x       y       z     vdW  Elec       q    Type
REMARK                         _______ _______ _______ _____ _____    ______ ____
ROOT
ATOM      1  N   UNL     1      -3.110  14.251  21.112  0.00  0.00    +0.000 NA
ATOM      2  O   UNL     1      -3.059  15.696  20.938  0.00  0.00    +0.000 OA
ATOM      3  C   UNL     1      -1.737  16.097  21.239  0.00  0.00    +0.000 C 
ATOM      4  C   UNL     1      -0.863  16.011  20.017  0.00  0.00    +0.000 C 
ATOM      5  O   UNL     1      -1.232  16.395  18.911  0.00  0.00    +0.000 OA
ATOM      6  N   UNL     1       0.326  15.420  20.374  0.00  0.00    +0.000 N 
ATOM      7  C   UNL     1       0.242  14.904  21.655  0.00  0.00    +0.000 C 
ATOM      8  O   UNL     1       1.129  14.413  22.346  0.00  0.00    +0.000 OA
ATOM      9  C   UNL     1      -1.151  15.102  22.195  0.00  0.00    +0.000 C 
ATOM     10  C   UNL     1      -2.131  13.933  22.173  0.00  0.00    +0.000 C 
ENDROOT
BRANCH   1  16
ATOM     11  C   UNL     1      -6.741  13.806  18.314  0.00  0.00    +0.000 C 
ATOM     12  N   UNL     1      -6.172  14.095  19.635  0.00  0.00    +0.000 N 
ATOM     13  C   UNL     1      -6.615  15.109  20.472  0.00  0.00    +0.000 C 
ATOM     14  S   UNL     1      -7.907  16.139  20.234  0.00  0.00    +0.000 S 
ATOM     15  S   UNL     1      -5.620  15.192  21.927  0.00  0.00    +0.000 S 
ATOM     16  C   UNL     1      -4.497  13.839  21.432  0.00  0.00    +0.000 C 
ATOM     17  C   UNL     1      -5.286  13.107  20.290  0.00  0.00    +0.000 C 
ATOM     18  C   UNL     1      -6.162  12.017  20.966  0.00  0.00    +0.000 C 
ATOM     19  C   UNL     1      -4.365  12.386  19.288  0.00  0.00    +0.000 C 
ENDBRANCH   1  16
BRANCH  10  20
ATOM     20  C   UNL     1      -1.489  12.567  21.988  0.00  0.00    +0.000 A 
ATOM     21  C   UNL     1      -1.200  12.098  20.695  0.00  0.00    +0.000 A 
ATOM     22  C   UNL     1      -0.676  10.816  20.497  0.00  0.00    +0.000 A 
ATOM     23  C   UNL     1      -0.440   9.987  21.590  0.00  0.00    +0.000 A 
ATOM     24 CL   UNL     1       0.170   8.397  21.347  0.00  0.00    +0.000 Cl
ATOM     25  C   UNL     1      -0.707  10.435  22.880  0.00  0.00    +0.000 A 
ATOM     26  C   UNL     1      -1.228  11.718  23.078  0.00  0.00    +0.000 A 
ENDBRANCH  10  20
BRANCH   6  27
ATOM     27  C   UNL     1       1.491  15.390  19.535  0.00  0.00    +0.000 A 
ATOM     28  C   UNL     1       2.268  16.543  19.324  0.00  0.00    +0.000 A 
ATOM     29  C   UNL     1       3.425  16.536  18.540  0.00  0.00    +0.000 A 
ATOM     30  C   UNL     1       3.838  15.355  17.937  0.00  0.00    +0.000 A 
ATOM     31  C   UNL     1       3.088  14.200  18.116  0.00  0.00    +0.000 A 
ATOM     32  C   UNL     1       1.926  14.215  18.905  0.00  0.00    +0.000 A 
ENDBRANCH   6  27
TORSDOF 3
ENDMDL
MODEL 4
REMARK VINA RESULT:      -6.5      0.145      1.211
REMARK  Name = 
REMARK  6 active torsions:
REMARK  status: ('A' for Active; 'I' for Inactive)
REMARK    1  A    between atoms: C_1  and  N_2
REMARK    2  A    between atoms: C_6  and  N_7
REMARK    3  A    between atoms: N_12  and  C_13
REMARK    4  A    between atoms: C_22  and  C_23
REMARK    5  A    between atoms: C_30  and  C_31
REMARK    6  A    between atoms: C_30  and  C_32
REMARK                            x       y       z     vdW  Elec       q    Type
REMARK                         _______ _______ _______ _____ _____    ______ ____
ROOT
ATOM      1  N   UNL     1      -1.769  12.036  19.281  0.00  0.00    +0.000 NA
ATOM      2  O   UNL     1      -2.086  13.381  19.739  0.00  0.00    +0.000 OA
ATOM      3  C   UNL     1      -0.955  13.851  20.446  0.00  0.00    +0.000 C 
ATOM      4  C   UNL     1       0.027  14.500  19.508  0.00  0.00    +0.000 C 
ATOM      5  O   UNL     1      -0.319  15.264  18.613  0.00  0.00    +0.000 OA
ATOM      6  N   UNL     1       1.289  14.054  19.823  0.00  0.00    +0.000 N 
ATOM      7  C   UNL     1       1.219  13.008  20.727  0.00  0.00    +0.000 C 
ATOM      8  O   UNL     1       2.132  12.440  21.317  0.00  0.00    +0.000 OA
ATOM      9  C   UNL     1      -0.223  12.665  20.999  0.00  0.00    +0.000 C 
ATOM     10  C   UNL     1      -0.850  11.468  20.291  0.00  0.00    +0.000 C 
ENDROOT
BRANCH   1  16
ATOM     11  C   UNL     1      -4.216  11.270  15.457  0.00  0.00    +0.000 C 
ATOM     12  N   UNL     1      -4.137  11.441  16.912  0.00  0.00    +0.000 N 
ATOM     13  C   UNL     1      -5.055  12.158  17.665  0.00  0.00    +0.000 C 
ATOM     14  S   UNL     1      -6.463  12.886  17.139  0.00  0.00    +0.000 S 
ATOM     15  S   UNL     1      -4.565  12.208  19.359  0.00  0.00    +0.000 S 
ATOM     16  C   UNL     1      -3.021  11.263  19.108  0.00  0.00    +0.000 C 
ATOM     17  C   UNL     1      -3.230  10.584  17.708  0.00  0.00    +0.000 C 
ATOM     18  C   UNL     1      -3.924   9.218  17.962  0.00  0.00    +0.000 C 
ATOM     19  C   UNL     1      -1.907  10.288  16.978  0.00  0.00    +0.000 C 
ENDBRANCH   1  16
BRANCH  10  20
ATOM     20  C   UNL     1       0.147  10.488  19.692  0.00  0.00    +0.000 A 
ATOM     21  C   UNL     1       0.494   9.323  20.396  0.00  0.00    +0.000 A 
ATOM     22  C   UNL     1       1.462   8.445  19.897  0.00  0.00    +0.000 A 
ATOM     23  C   UNL     1       2.096   8.725  18.690  0.00  0.00    +0.000 A 
ATOM     24 CL   UNL     1       3.312   7.664  18.092  0.00  0.00    +0.000 Cl
ATOM     25  C   UNL     1       1.758   9.866  17.969  0.00  0.00    +0.000 A 
ATOM     26  C   UNL     1       0.789  10.743  18.466  0.00  0.00    +0.000 A 
ENDBRANCH  10  20
BRANCH   6  27
ATOM     27  C   UNL     1       2.498  14.635  19.309  0.00  0.00    +0.000 A 
ATOM     28  C   UNL     1       3.283  13.961  18.357  0.00  0.00    +0.000 A 
ATOM     29  C   UNL     1       4.446  14.516  17.814  0.00  0.00    +0.000 A 
ATOM     30  C   UNL     1       4.857  15.779  18.219  0.00  0.00    +0.000 A 
ATOM     31  C   UNL     1       4.109  16.468  19.165  0.00  0.00    +0.000 A 
ATOM     32  C   UNL     1       2.943  15.904  19.707  0.00  0.00    +0.000 A 
ENDBRANCH   6  27
TORSDOF 3
ENDMDL
MODEL 5
REMARK VINA RESULT:      -6.5      2.937      3.777
REMARK  Name = 
REMARK  6 active torsions:
REMARK  status: ('A' for Active; 'I' for Inactive)
REMARK    1  A    between atoms: C_1  and  N_2
REMARK    2  A    between atoms: C_6  and  N_7
REMARK    3  A    between atoms: N_12  and  C_13
REMARK    4  A    between atoms: C_22  and  C_23
REMARK    5  A    between atoms: C_30  and  C_31
REMARK    6  A    between atoms: C_30  and  C_32
REMARK                            x       y       z     vdW  Elec       q    Type
REMARK                         _______ _______ _______ _____ _____    ______ ____
ROOT
ATOM      1  N   UNL     1      -3.271  13.551  21.583  0.00  0.00    +0.000 NA
ATOM      2  O   UNL     1      -3.325  15.006  21.563  0.00  0.00    +0.000 OA
ATOM      3  C   UNL     1      -2.008  15.467  21.794  0.00  0.00    +0.000 C 
ATOM      4  C   UNL     1      -1.246  15.570  20.500  0.00  0.00    +0.000 C 
ATOM      5  O   UNL     1      -1.737  16.039  19.478  0.00  0.00    +0.000 OA
ATOM      6  N   UNL     1       0.005  15.030  20.688  0.00  0.00    +0.000 N 
ATOM      7  C   UNL     1       0.070  14.381  21.909  0.00  0.00    +0.000 C 
ATOM      8  O   UNL     1       1.046  13.885  22.464  0.00  0.00    +0.000 OA
ATOM      9  C   UNL     1      -1.277  14.423  22.583  0.00  0.00    +0.000 C 
ATOM     10  C   UNL     1      -2.180  13.196  22.516  0.00  0.00    +0.000 C 
ENDROOT
BRANCH   1  16
ATOM     11  C   UNL     1      -7.462  14.753  20.103  0.00  0.00    +0.000 C 
ATOM     12  N   UNL     1      -6.576  14.234  21.150  0.00  0.00    +0.000 N 
ATOM     13  C   UNL     1      -6.670  14.573  22.492  0.00  0.00    +0.000 C 
ATOM     14  S   UNL     1      -7.822  15.533  23.225  0.00  0.00    +0.000 S 
ATOM     15  S   UNL     1      -5.373  13.815  23.417  0.00  0.00    +0.000 S 
ATOM     16  C   UNL     1      -4.594  13.011  21.972  0.00  0.00    +0.000 C 
ATOM     17  C   UNL     1      -5.716  13.061  20.876  0.00  0.00    +0.000 C 
ATOM     18  C   UNL     1      -6.564  11.770  21.030  0.00  0.00    +0.000 C 
ATOM     19  C   UNL     1      -5.156  13.064  19.441  0.00  0.00    +0.000 C 
ENDBRANCH   1  16
BRANCH  10  20
ATOM     20  C   UNL     1      -1.475  11.904  22.130  0.00  0.00    +0.000 A 
ATOM     21  C   UNL     1      -1.078  10.998  23.127  0.00  0.00    +0.000 A 
ATOM     22  C   UNL     1      -0.364   9.840  22.800  0.00  0.00    +0.000 A 
ATOM     23  C   UNL     1      -0.037   9.578  21.472  0.00  0.00    +0.000 A 
ATOM     24 CL   UNL     1       0.870   8.172  21.072  0.00  0.00    +0.000 Cl
ATOM     25  C   UNL     1      -0.432  10.455  20.467  0.00  0.00    +0.000 A 
ATOM     26  C   UNL     1      -1.148  11.612  20.794  0.00  0.00    +0.000 A 
ENDBRANCH  10  20
BRANCH   6  27
ATOM     27  C   UNL     1       1.088  15.170  19.755  0.00  0.00    +0.000 A 
ATOM     28  C   UNL     1       1.540  14.078  18.994  0.00  0.00    +0.000 A 
ATOM     29  C   UNL     1       2.569  14.192  18.055  0.00  0.00    +0.000 A 
ATOM     30  C   UNL     1       3.182  15.422  17.855  0.00  0.00    +0.000 A 
ATOM     31  C   UNL     1       2.766  16.519  18.598  0.00  0.00    +0.000 A 
ATOM     32  C   UNL     1       1.732  16.397  19.540  0.00  0.00    +0.000 A 
ENDBRANCH   6  27
TORSDOF 3
ENDMDL
MODEL 6
REMARK VINA RESULT:      -6.5      5.461      8.140
REMARK  Name = 
REMARK  6 active torsions:
REMARK  status: ('A' for Active; 'I' for Inactive)
REMARK    1  A    between atoms: C_1  and  N_2
REMARK    2  A    between atoms: C_6  and  N_7
REMARK    3  A    between atoms: N_12  and  C_13
REMARK    4  A    between atoms: C_22  and  C_23
REMARK    5  A    between atoms: C_30  and  C_31
REMARK    6  A    between atoms: C_30  and  C_32
REMARK                            x       y       z     vdW  Elec       q    Type
REMARK                         _______ _______ _______ _____ _____    ______ ____
ROOT
ATOM      1  N   UNL     1       5.120  15.662  20.536  0.00  0.00    +0.000 NA
ATOM      2  O   UNL     1       5.271  16.163  19.177  0.00  0.00    +0.000 OA
ATOM      3  C   UNL     1       6.660  16.247  18.925  0.00  0.00    +0.000 C 
ATOM      4  C   UNL     1       7.187  14.937  18.403  0.00  0.00    +0.000 C 
ATOM      5  O   UNL     1       6.593  14.276  17.557  0.00  0.00    +0.000 OA
ATOM      6  N   UNL     1       8.361  14.649  19.058  0.00  0.00    +0.000 N 
ATOM      7  C   UNL     1       8.549  15.522  20.115  0.00  0.00    +0.000 C 
ATOM      8  O   UNL     1       9.527  15.643  20.847  0.00  0.00    +0.000 OA
ATOM      9  C   UNL     1       7.364  16.444  20.235  0.00  0.00    +0.000 C 
ATOM     10  C   UNL     1       6.297  16.153  21.285  0.00  0.00    +0.000 C 
ENDROOT
BRANCH   1  16
ATOM     11  C   UNL     1       0.860  14.987  18.924  0.00  0.00    +0.000 C 
ATOM     12  N   UNL     1       1.834  15.798  19.663  0.00  0.00    +0.000 N 
ATOM     13  C   UNL     1       1.925  17.179  19.578  0.00  0.00    +0.000 C 
ATOM     14  S   UNL     1       0.931  18.219  18.731  0.00  0.00    +0.000 S 
ATOM     15  S   UNL     1       3.277  17.773  20.544  0.00  0.00    +0.000 S 
ATOM     16  C   UNL     1       3.824  16.118  21.091  0.00  0.00    +0.000 C 
ATOM     17  C   UNL     1       2.582  15.205  20.794  0.00  0.00    +0.000 C 
ATOM     18  C   UNL     1       1.682  15.232  22.060  0.00  0.00    +0.000 C 
ATOM     19  C   UNL     1       2.962  13.733  20.543  0.00  0.00    +0.000 C 
ENDBRANCH   1  16
BRANCH  10  20
ATOM     20  C   UNL     1       6.731  15.197  22.386  0.00  0.00    +0.000 A 
ATOM     21  C   UNL     1       6.477  13.821  22.259  0.00  0.00    +0.000 A 
ATOM     22  C   UNL     1       6.801  12.933  23.291  0.00  0.00    +0.000 A 
ATOM     23  C   UNL     1       7.380  13.414  24.463  0.00  0.00    +0.000 A 
ATOM     24 CL   UNL     1       7.748  12.329  25.746  0.00  0.00    +0.000 Cl
ATOM     25  C   UNL     1       7.652  14.771  24.604  0.00  0.00    +0.000 A 
ATOM     26  C   UNL     1       7.330  15.658  23.572  0.00  0.00    +0.000 A 
ENDBRANCH  10  20
BRANCH   6  27
ATOM     27  C   UNL     1       9.270  13.612  18.657  0.00  0.00    +0.000 A 
ATOM     28  C   UNL     1       9.233  12.340  19.255  0.00  0.00    +0.000 A 
ATOM     29  C   UNL     1      10.083  11.301  18.862  0.00  0.00    +0.000 A 
ATOM     30  C   UNL     1      11.005  11.516  17.846  0.00  0.00    +0.000 A 
ATOM     31  C   UNL     1      11.074  12.764  17.242  0.00  0.00    +0.000 A 
ATOM     32  C   UNL     1      10.218  13.803  17.642  0.00  0.00    +0.000 A 
ENDBRANCH   6  27
TORSDOF 3
ENDMDL
MODEL 7
REMARK VINA RESULT:      -6.4      1.377      1.760
REMARK  Name = 
REMARK  6 active torsions:
REMARK  status: ('A' for Active; 'I' for Inactive)
REMARK    1  A    between atoms: C_1  and  N_2
REMARK    2  A    between atoms: C_6  and  N_7
REMARK    3  A    between atoms: N_12  and  C_13
REMARK    4  A    between atoms: C_22  and  C_23
REMARK    5  A    between atoms: C_30  and  C_31
REMARK    6  A    between atoms: C_30  and  C_32
REMARK                            x       y       z     vdW  Elec       q    Type
REMARK                         _______ _______ _______ _____ _____    ______ ____
ROOT
ATOM      1  N   UNL     1      -2.618  12.707  20.012  0.00  0.00    +0.000 NA
ATOM      2  O   UNL     1      -2.838  14.075  20.461  0.00  0.00    +0.000 OA
ATOM      3  C   UNL     1      -1.617  14.524  21.017  0.00  0.00    +0.000 C 
ATOM      4  C   UNL     1      -0.733  15.113  19.951  0.00  0.00    +0.000 C 
ATOM      5  O   UNL     1      -1.157  15.864  19.079  0.00  0.00    +0.000 OA
ATOM      6  N   UNL     1       0.543  14.632  20.131  0.00  0.00    +0.000 N 
ATOM      7  C   UNL     1       0.547  13.615  21.069  0.00  0.00    +0.000 C 
ATOM      8  O   UNL     1       1.504  13.031  21.566  0.00  0.00    +0.000 OA
ATOM      9  C   UNL     1      -0.863  13.329  21.518  0.00  0.00    +0.000 C 
ATOM     10  C   UNL     1      -1.606  12.136  20.925  0.00  0.00    +0.000 C 
ENDROOT
BRANCH   1  16
ATOM     11  C   UNL     1      -6.149  13.024  17.072  0.00  0.00    +0.000 C 
ATOM     12  N   UNL     1      -5.623  12.756  18.415  0.00  0.00    +0.000 N 
ATOM     13  C   UNL     1      -6.228  13.180  19.590  0.00  0.00    +0.000 C 
ATOM     14  S   UNL     1      -7.685  13.976  19.759  0.00  0.00    +0.000 S 
ATOM     15  S   UNL     1      -5.245  12.741  20.988  0.00  0.00    +0.000 S 
ATOM     16  C   UNL     1      -3.906  11.974  20.009  0.00  0.00    +0.000 C 
ATOM     17  C   UNL     1      -4.567  11.737  18.605  0.00  0.00    +0.000 C 
ATOM     18  C   UNL     1      -5.228  10.331  18.644  0.00  0.00    +0.000 C 
ATOM     19  C   UNL     1      -3.546  11.723  17.453  0.00  0.00    +0.000 C 
ENDBRANCH   1  16
BRANCH  10  20
ATOM     20  C   UNL     1      -0.717  11.106  20.244  0.00  0.00    +0.000 A 
ATOM     21  C   UNL     1      -0.141  10.070  20.998  0.00  0.00    +0.000 A 
ATOM     22  C   UNL     1       0.736   9.154  20.407  0.00  0.00    +0.000 A 
ATOM     23  C   UNL     1       1.050   9.269  19.055  0.00  0.00    +0.000 A 
ATOM     24 CL   UNL     1       2.157   8.166  18.334  0.00  0.00    +0.000 Cl
ATOM     25  C   UNL     1       0.482  10.280  18.287  0.00  0.00    +0.000 A 
ATOM     26  C   UNL     1      -0.398  11.193  18.877  0.00  0.00    +0.000 A 
ENDBRANCH  10  20
BRANCH   6  27
ATOM     27  C   UNL     1       1.701  15.157  19.461  0.00  0.00    +0.000 A 
ATOM     28  C   UNL     1       2.284  16.373  19.859  0.00  0.00    +0.000 A 
ATOM     29  C   UNL     1       3.430  16.891  19.248  0.00  0.00    +0.000 A 
ATOM     30  C   UNL     1       4.027  16.193  18.205  0.00  0.00    +0.000 A 
ATOM     31  C   UNL     1       3.469  14.994  17.782  0.00  0.00    +0.000 A 
ATOM     32  C   UNL     1       2.318  14.480  18.400  0.00  0.00    +0.000 A 
ENDBRANCH   6  27
TORSDOF 3
ENDMDL
MODEL 8
REMARK VINA RESULT:      -6.4      5.383      8.008
REMARK  Name = 
REMARK  6 active torsions:
REMARK  status: ('A' for Active; 'I' for Inactive)
REMARK    1  A    between atoms: C_1  and  N_2
REMARK    2  A    between atoms: C_6  and  N_7
REMARK    3  A    between atoms: N_12  and  C_13
REMARK    4  A    between atoms: C_22  and  C_23
REMARK    5  A    between atoms: C_30  and  C_31
REMARK    6  A    between atoms: C_30  and  C_32
REMARK                            x       y       z     vdW  Elec       q    Type
REMARK                         _______ _______ _______ _____ _____    ______ ____
ROOT
ATOM      1  N   UNL     1       4.979  15.602  20.440  0.00  0.00    +0.000 NA
ATOM      2  O   UNL     1       5.175  16.087  19.081  0.00  0.00    +0.000 OA
ATOM      3  C   UNL     1       6.572  16.170  18.874  0.00  0.00    +0.000 C 
ATOM      4  C   UNL     1       7.116  14.855  18.386  0.00  0.00    +0.000 C 
ATOM      5  O   UNL     1       6.552  14.183  17.528  0.00  0.00    +0.000 OA
ATOM      6  N   UNL     1       8.269  14.576  19.083  0.00  0.00    +0.000 N 
ATOM      7  C   UNL     1       8.421  15.461  20.135  0.00  0.00    +0.000 C 
ATOM      8  O   UNL     1       9.373  15.593  20.897  0.00  0.00    +0.000 OA
ATOM      9  C   UNL     1       7.231  16.383  20.204  0.00  0.00    +0.000 C 
ATOM     10  C   UNL     1       6.130  16.103  21.222  0.00  0.00    +0.000 C 
ENDROOT
BRANCH   1  16
ATOM     11  C   UNL     1       0.754  14.622  18.892  0.00  0.00    +0.000 C 
ATOM     12  N   UNL     1       1.695  15.535  19.551  0.00  0.00    +0.000 N 
ATOM     13  C   UNL     1       1.737  16.904  19.333  0.00  0.00    +0.000 C 
ATOM     14  S   UNL     1       0.712  17.821  18.388  0.00  0.00    +0.000 S 
ATOM     15  S   UNL     1       3.062  17.637  20.240  0.00  0.00    +0.000 S 
ATOM     16  C   UNL     1       3.664  16.062  20.945  0.00  0.00    +0.000 C 
ATOM     17  C   UNL     1       2.457  15.081  20.735  0.00  0.00    +0.000 C 
ATOM     18  C   UNL     1       1.550  15.198  21.991  0.00  0.00    +0.000 C 
ATOM     19  C   UNL     1       2.890  13.607  20.629  0.00  0.00    +0.000 C 
ENDBRANCH   1  16
BRANCH  10  20
ATOM     20  C   UNL     1       6.527  15.161  22.348  0.00  0.00    +0.000 A 
ATOM     21  C   UNL     1       7.120  15.675  23.514  0.00  0.00    +0.000 A 
ATOM     22  C   UNL     1       7.560  14.821  24.531  0.00  0.00    +0.000 A 
ATOM     23  C   UNL     1       7.414  13.443  24.391  0.00  0.00    +0.000 A 
ATOM     24 CL   UNL     1       7.985  12.389  25.625  0.00  0.00    +0.000 Cl
ATOM     25  C   UNL     1       6.817  12.914  23.251  0.00  0.00    +0.000 A 
ATOM     26  C   UNL     1       6.376  13.767  22.235  0.00  0.00    +0.000 A 
ENDBRANCH  10  20
BRANCH   6  27
ATOM     27  C   UNL     1       9.191  13.535  18.725  0.00  0.00    +0.000 A 
ATOM     28  C   UNL     1      10.091  13.694  17.656  0.00  0.00    +0.000 A 
ATOM     29  C   UNL     1      11.023  12.712  17.307  0.00  0.00    +0.000 A 
ATOM     30  C   UNL     1      11.074  11.527  18.030  0.00  0.00    +0.000 A 
ATOM     31  C   UNL     1      10.192  11.334  19.084  0.00  0.00    +0.000 A 
ATOM     32  C   UNL     1       9.259  12.325  19.429  0.00  0.00    +0.000 A 
ENDBRANCH   6  27
TORSDOF 3
ENDMDL
MODEL 9
REMARK VINA RESULT:      -6.1      3.096      3.820
REMARK  Name = 
REMARK  6 active torsions:
REMARK  status: ('A' for Active; 'I' for Inactive)
REMARK    1  A    between atoms: C_1  and  N_2
REMARK    2  A    between atoms: C_6  and  N_7
REMARK    3  A    between atoms: N_12  and  C_13
REMARK    4  A    between atoms: C_22  and  C_23
REMARK    5  A    between atoms: C_30  and  C_31
REMARK    6  A    between atoms: C_30  and  C_32
REMARK                            x       y       z     vdW  Elec       q    Type
REMARK                         _______ _______ _______ _____ _____    ______ ____
ROOT
ATOM      1  N   UNL     1      -3.350  13.439  21.746  0.00  0.00    +0.000 NA
ATOM      2  O   UNL     1      -3.415  14.672  22.519  0.00  0.00    +0.000 OA
ATOM      3  C   UNL     1      -2.081  15.054  22.791  0.00  0.00    +0.000 C 
ATOM      4  C   UNL     1      -1.529  15.894  21.671  0.00  0.00    +0.000 C 
ATOM      5  O   UNL     1      -2.175  16.788  21.134  0.00  0.00    +0.000 OA
ATOM      6  N   UNL     1      -0.261  15.450  21.379  0.00  0.00    +0.000 N 
ATOM      7  C   UNL     1      -0.003  14.261  22.039  0.00  0.00    +0.000 C 
ATOM      8  O   UNL     1       1.049  13.635  22.112  0.00  0.00    +0.000 OA
ATOM      9  C   UNL     1      -1.230  13.820  22.795  0.00  0.00    +0.000 C 
ATOM     10  C   UNL     1      -2.126  12.741  22.195  0.00  0.00    +0.000 C 
ENDROOT
BRANCH   1  16
ATOM     11  C   UNL     1      -7.720  14.674  20.986  0.00  0.00    +0.000 C 
ATOM     12  N   UNL     1      -6.722  13.894  21.725  0.00  0.00    +0.000 N 
ATOM     13  C   UNL     1      -6.746  13.694  23.098  0.00  0.00    +0.000 C 
ATOM     14  S   UNL     1      -7.916  14.186  24.182  0.00  0.00    +0.000 S 
ATOM     15  S   UNL     1      -5.329  12.780  23.618  0.00  0.00    +0.000 S 
ATOM     16  C   UNL     1      -4.594  12.661  21.949  0.00  0.00    +0.000 C 
ATOM     17  C   UNL     1      -5.792  13.004  20.995  0.00  0.00    +0.000 C 
ATOM     18  C   UNL     1      -6.520  11.669  20.677  0.00  0.00    +0.000 C 
ATOM     19  C   UNL     1      -5.339  13.601  19.649  0.00  0.00    +0.000 C 
ENDBRANCH   1  16
BRANCH  10  20
ATOM     20  C   UNL     1      -1.481  11.919  21.089  0.00  0.00    +0.000 A 
ATOM     21  C   UNL     1      -1.671  12.284  19.745  0.00  0.00    +0.000 A 
ATOM     22  C   UNL     1      -1.147  11.501  18.709  0.00  0.00    +0.000 A 
ATOM     23  C   UNL     1      -0.433  10.344  19.008  0.00  0.00    +0.000 A 
ATOM     24 CL   UNL     1       0.181   9.362  17.735  0.00  0.00    +0.000 Cl
ATOM     25  C   UNL     1      -0.222   9.972  20.332  0.00  0.00    +0.000 A 
ATOM     26  C   UNL     1      -0.743  10.755  21.367  0.00  0.00    +0.000 A 
ENDBRANCH  10  20
BRANCH   6  27
ATOM     27  C   UNL     1       0.664  16.158  20.539  0.00  0.00    +0.000 A 
ATOM     28  C   UNL     1       1.605  17.051  21.081  0.00  0.00    +0.000 A 
ATOM     29  C   UNL     1       2.540  17.728  20.292  0.00  0.00    +0.000 A 
ATOM     30  C   UNL     1       2.552  17.524  18.917  0.00  0.00    +0.000 A 
ATOM     31  C   UNL     1       1.629  16.657  18.349  0.00  0.00    +0.000 A 
ATOM     32  C   UNL     1       0.693  15.981  19.148  0.00  0.00    +0.000 A 
ENDBRANCH   6  27
TORSDOF 3
ENDMDL
