MODEL 1
REMARK VINA RESULT:      -8.7      0.000      0.000
REMARK  Name = 
REMARK  6 active torsions:
REMARK  status: ('A' for Active; 'I' for Inactive)
REMARK    1  A    between atoms: C_2  and  C_3
REMARK    2  A    between atoms: C_3  and  N_4
REMARK    3  A    between atoms: C_8  and  C_10
REMARK    4  A    between atoms: N_18  and  C_19
REMARK    5  A    between atoms: C_21  and  S_22
REMARK    6  A    between atoms: S_22  and  N_25
REMARK                            x       y       z     vdW  Elec       q    Type
REMARK                         _______ _______ _______ _____ _____    ______ ____
ROOT
ATOM      1  O   UNL     1       1.514   8.431  17.495  0.00  0.00    +0.000 OA
ATOM      2  C   UNL     1       1.780   8.503  18.696  0.00  0.00    +0.000 C 
ATOM      3  N   UNL     1       2.382   7.488  19.410  0.00  0.00    +0.000 N 
ATOM      4  H   UNL     1       2.259   7.494  20.418  0.00  0.00    +0.000 HD
ENDROOT
BRANCH   3   5
ATOM      5  C   UNL     1       3.012   6.352  18.840  0.00  0.00    +0.000 A 
ATOM      6  C   UNL     1       3.971   6.475  17.826  0.00  0.00    +0.000 A 
ATOM      7  C   UNL     1       4.603   5.336  17.313  0.00  0.00    +0.000 A 
ATOM      8  C   UNL     1       4.359   4.071  17.849  0.00  0.00    +0.000 A 
ATOM      9  C   UNL     1       3.380   3.931  18.829  0.00  0.00    +0.000 A 
ATOM     10  C   UNL     1       2.695   5.063  19.299  0.00  0.00    +0.000 A 
ATOM     11 CL   UNL     1       1.359   4.805  20.371  0.00  0.00    +0.000 Cl
BRANCH   7  12
ATOM     12  S   UNL     1       5.592   5.481  15.844  0.00  0.00    +0.000 S 
ATOM     13  O   UNL     1       5.509   4.232  15.127  0.00  0.00    +0.000 OA
ATOM     14  O   UNL     1       5.266   6.735  15.203  0.00  0.00    +0.000 OA
BRANCH  12  15
ATOM     15  N   UNL     1       7.173   5.636  16.482  0.00  0.00    +0.000 NA
ATOM     16  C   UNL     1       7.591   4.666  17.520  0.00  0.00    +0.000 C 
ATOM     17  C   UNL     1       7.408   5.394  18.833  0.00  0.00    +0.000 C 
ATOM     18  C   UNL     1       7.769   6.828  18.501  0.00  0.00    +0.000 C 
ATOM     19  C   UNL     1       7.490   6.994  17.008  0.00  0.00    +0.000 C 
ENDBRANCH  12  15
ENDBRANCH   7  12
ENDBRANCH   3   5
BRANCH   2  20
ATOM     20  C   UNL     1       1.341   9.738  19.493  0.00  0.00    +0.000 C 
BRANCH  20  21
ATOM     21  N   UNL     1       1.063  10.955  18.686  0.00  0.00    +0.000 NA
ATOM     22  C   UNL     1      -0.350  11.390  18.726  0.00  0.00    +0.000 C 
ATOM     23  C   UNL     1      -0.851  11.817  20.110  0.00  0.00    +0.000 C 
ATOM     24  N   UNL     1       0.000  12.788  20.806  0.00  0.00    +0.000 N 
ATOM     25  C   UNL     1      -0.430  13.555  21.903  0.00  0.00    +0.000 C 
ATOM     26  O   UNL     1       0.302  14.364  22.474  0.00  0.00    +0.000 OA
ATOM     27  C   UNL     1       1.449  12.637  20.614  0.00  0.00    +0.000 C 
ATOM     28  C   UNL     1       1.863  12.099  19.217  0.00  0.00    +0.000 C 
BRANCH  25  29
ATOM     29  C   UNL     1      -1.835  13.423  22.402  0.00  0.00    +0.000 A 
ATOM     30  C   UNL     1      -2.159  12.501  23.406  0.00  0.00    +0.000 A 
ATOM     31  C   UNL     1      -3.486  12.269  23.763  0.00  0.00    +0.000 A 
ATOM     32  C   UNL     1      -4.495  13.048  23.208  0.00  0.00    +0.000 A 
ATOM     33  C   UNL     1      -4.172  14.063  22.306  0.00  0.00    +0.000 A 
ATOM     34  C   UNL     1      -2.846  14.246  21.893  0.00  0.00    +0.000 A 
ENDBRANCH  25  29
ENDBRANCH  20  21
ENDBRANCH   2  20
TORSDOF 6
ENDMDL
MODEL 2
REMARK VINA RESULT:      -8.5      1.536      2.130
REMARK  Name = 
REMARK  6 active torsions:
REMARK  status: ('A' for Active; 'I' for Inactive)
REMARK    1  A    between atoms: C_2  and  C_3
REMARK    2  A    between atoms: C_3  and  N_4
REMARK    3  A    between atoms: C_8  and  C_10
REMARK    4  A    between atoms: N_18  and  C_19
REMARK    5  A    between atoms: C_21  and  S_22
REMARK    6  A    between atoms: S_22  and  N_25
REMARK                            x       y       z     vdW  Elec       q    Type
REMARK                         _______ _______ _______ _____ _____    ______ ____
ROOT
ATOM      1  O   UNL     1       2.000   7.752  17.715  0.00  0.00    +0.000 OA
ATOM      2  C   UNL     1       2.002   7.916  18.936  0.00  0.00    +0.000 C 
ATOM      3  N   UNL     1       2.569   7.029  19.828  0.00  0.00    +0.000 N 
ATOM      4  H   UNL     1       2.242   7.066  20.788  0.00  0.00    +0.000 HD
ENDROOT
BRANCH   3   5
ATOM      5  C   UNL     1       3.442   5.967  19.478  0.00  0.00    +0.000 A 
ATOM      6  C   UNL     1       4.752   6.206  19.040  0.00  0.00    +0.000 A 
ATOM      7  C   UNL     1       5.600   5.134  18.742  0.00  0.00    +0.000 A 
ATOM      8  C   UNL     1       5.198   3.814  18.951  0.00  0.00    +0.000 A 
ATOM      9  C   UNL     1       3.888   3.563  19.348  0.00  0.00    +0.000 A 
ATOM     10  C   UNL     1       3.011   4.634  19.583  0.00  0.00    +0.000 A 
ATOM     11 CL   UNL     1       1.348   4.260  19.884  0.00  0.00    +0.000 Cl
BRANCH   7  12
ATOM     12  S   UNL     1       7.143   5.452  17.920  0.00  0.00    +0.000 S 
ATOM     13  O   UNL     1       7.693   6.670  18.461  0.00  0.00    +0.000 OA
ATOM     14  O   UNL     1       7.909   4.225  17.911  0.00  0.00    +0.000 OA
BRANCH  12  15
ATOM     15  N   UNL     1       6.645   5.748  16.310  0.00  0.00    +0.000 NA
ATOM     16  C   UNL     1       5.202   5.622  16.005  0.00  0.00    +0.000 C 
ATOM     17  C   UNL     1       5.049   4.250  15.389  0.00  0.00    +0.000 C 
ATOM     18  C   UNL     1       6.329   4.067  14.599  0.00  0.00    +0.000 C 
ATOM     19  C   UNL     1       7.373   4.945  15.286  0.00  0.00    +0.000 C 
ENDBRANCH  12  15
ENDBRANCH   7  12
ENDBRANCH   3   5
BRANCH   2  20
ATOM     20  C   UNL     1       1.255   9.114  19.538  0.00  0.00    +0.000 C 
BRANCH  20  21
ATOM     21  N   UNL     1       0.842  10.162  18.568  0.00  0.00    +0.000 NA
ATOM     22  C   UNL     1      -0.595  10.504  18.633  0.00  0.00    +0.000 C 
ATOM     23  C   UNL     1      -1.050  11.116  19.962  0.00  0.00    +0.000 C 
ATOM     24  N   UNL     1      -0.238  12.241  20.438  0.00  0.00    +0.000 N 
ATOM     25  C   UNL     1      -0.665  13.146  21.426  0.00  0.00    +0.000 C 
ATOM     26  O   UNL     1       0.034  14.083  21.812  0.00  0.00    +0.000 OA
ATOM     27  C   UNL     1       1.204  12.156  20.177  0.00  0.00    +0.000 C 
ATOM     28  C   UNL     1       1.581  11.427  18.859  0.00  0.00    +0.000 C 
BRANCH  25  29
ATOM     29  C   UNL     1      -2.027  13.004  22.031  0.00  0.00    +0.000 A 
ATOM     30  C   UNL     1      -3.153  13.556  21.408  0.00  0.00    +0.000 A 
ATOM     31  C   UNL     1      -4.394  13.557  22.043  0.00  0.00    +0.000 A 
ATOM     32  C   UNL     1      -4.547  12.894  23.255  0.00  0.00    +0.000 A 
ATOM     33  C   UNL     1      -3.463  12.223  23.823  0.00  0.00    +0.000 A 
ATOM     34  C   UNL     1      -2.200  12.285  23.220  0.00  0.00    +0.000 A 
ENDBRANCH  25  29
ENDBRANCH  20  21
ENDBRANCH   2  20
TORSDOF 6
ENDMDL
MODEL 3
REMARK VINA RESULT:      -8.2      0.776      1.153
REMARK  Name = 
REMARK  6 active torsions:
REMARK  status: ('A' for Active; 'I' for Inactive)
REMARK    1  A    between atoms: C_2  and  C_3
REMARK    2  A    between atoms: C_3  and  N_4
REMARK    3  A    between atoms: C_8  and  C_10
REMARK    4  A    between atoms: N_18  and  C_19
REMARK    5  A    between atoms: C_21  and  S_22
REMARK    6  A    between atoms: S_22  and  N_25
REMARK                            x       y       z     vdW  Elec       q    Type
REMARK                         _______ _______ _______ _____ _____    ______ ____
ROOT
ATOM      1  O   UNL     1       1.220   8.713  17.481  0.00  0.00    +0.000 OA
ATOM      2  C   UNL     1       1.549   8.837  18.662  0.00  0.00    +0.000 C 
ATOM      3  N   UNL     1       2.220   7.867  19.378  0.00  0.00    +0.000 N 
ATOM      4  H   UNL     1       2.152   7.908  20.390  0.00  0.00    +0.000 HD
ENDROOT
BRANCH   3   5
ATOM      5  C   UNL     1       2.853   6.729  18.814  0.00  0.00    +0.000 A 
ATOM      6  C   UNL     1       3.766   6.844  17.757  0.00  0.00    +0.000 A 
ATOM      7  C   UNL     1       4.404   5.706  17.251  0.00  0.00    +0.000 A 
ATOM      8  C   UNL     1       4.214   4.452  17.834  0.00  0.00    +0.000 A 
ATOM      9  C   UNL     1       3.280   4.318  18.857  0.00  0.00    +0.000 A 
ATOM     10  C   UNL     1       2.588   5.448  19.324  0.00  0.00    +0.000 A 
ATOM     11 CL   UNL     1       1.305   5.191  20.458  0.00  0.00    +0.000 Cl
BRANCH   7  12
ATOM     12  S   UNL     1       5.327   5.830  15.738  0.00  0.00    +0.000 S 
ATOM     13  O   UNL     1       5.173   4.588  15.020  0.00  0.00    +0.000 OA
ATOM     14  O   UNL     1       5.007   7.096  15.118  0.00  0.00    +0.000 OA
BRANCH  12  15
ATOM     15  N   UNL     1       6.940   5.935  16.301  0.00  0.00    +0.000 NA
ATOM     16  C   UNL     1       7.577   4.691  16.789  0.00  0.00    +0.000 C 
ATOM     17  C   UNL     1       7.458   4.753  18.295  0.00  0.00    +0.000 C 
ATOM     18  C   UNL     1       7.613   6.228  18.606  0.00  0.00    +0.000 C 
ATOM     19  C   UNL     1       7.155   6.970  17.352  0.00  0.00    +0.000 C 
ENDBRANCH  12  15
ENDBRANCH   7  12
ENDBRANCH   3   5
BRANCH   2  20
ATOM     20  C   UNL     1       1.116  10.088  19.438  0.00  0.00    +0.000 C 
BRANCH  20  21
ATOM     21  N   UNL     1       1.065  11.345  18.647  0.00  0.00    +0.000 NA
ATOM     22  C   UNL     1      -0.230  12.054  18.733  0.00  0.00    +0.000 C 
ATOM     23  C   UNL     1      -0.596  12.556  20.135  0.00  0.00    +0.000 C 
ATOM     24  N   UNL     1       0.452  13.328  20.810  0.00  0.00    +0.000 N 
ATOM     25  C   UNL     1       0.216  14.152  21.924  0.00  0.00    +0.000 C 
ATOM     26  O   UNL     1       1.112  14.791  22.478  0.00  0.00    +0.000 OA
ATOM     27  C   UNL     1       1.834  12.892  20.574  0.00  0.00    +0.000 C 
ATOM     28  C   UNL     1       2.092  12.299  19.161  0.00  0.00    +0.000 C 
BRANCH  25  29
ATOM     29  C   UNL     1      -1.172  14.298  22.465  0.00  0.00    +0.000 A 
ATOM     30  C   UNL     1      -2.021  15.313  22.006  0.00  0.00    +0.000 A 
ATOM     31  C   UNL     1      -3.254  15.544  22.614  0.00  0.00    +0.000 A 
ATOM     32  C   UNL     1      -3.705  14.682  23.606  0.00  0.00    +0.000 A 
ATOM     33  C   UNL     1      -2.927  13.585  23.979  0.00  0.00    +0.000 A 
ATOM     34  C   UNL     1      -1.657  13.396  23.419  0.00  0.00    +0.000 A 
ENDBRANCH  25  29
ENDBRANCH  20  21
ENDBRANCH   2  20
TORSDOF 6
ENDMDL
MODEL 4
REMARK VINA RESULT:      -7.9      1.402      1.868
REMARK  Name = 
REMARK  6 active torsions:
REMARK  status: ('A' for Active; 'I' for Inactive)
REMARK    1  A    between atoms: C_2  and  C_3
REMARK    2  A    between atoms: C_3  and  N_4
REMARK    3  A    between atoms: C_8  and  C_10
REMARK    4  A    between atoms: N_18  and  C_19
REMARK    5  A    between atoms: C_21  and  S_22
REMARK    6  A    between atoms: S_22  and  N_25
REMARK                            x       y       z     vdW  Elec       q    Type
REMARK                         _______ _______ _______ _____ _____    ______ ____
ROOT
ATOM      1  O   UNL     1       1.770   9.170  17.587  0.00  0.00    +0.000 OA
ATOM      2  C   UNL     1       1.513   9.001  18.781  0.00  0.00    +0.000 C 
ATOM      3  N   UNL     1       1.871   7.874  19.491  0.00  0.00    +0.000 N 
ATOM      4  H   UNL     1       1.347   7.673  20.336  0.00  0.00    +0.000 HD
ENDROOT
BRANCH   3   5
ATOM      5  C   UNL     1       2.792   6.890  19.047  0.00  0.00    +0.000 A 
ATOM      6  C   UNL     1       3.778   7.181  18.094  0.00  0.00    +0.000 A 
ATOM      7  C   UNL     1       4.696   6.198  17.709  0.00  0.00    +0.000 A 
ATOM      8  C   UNL     1       4.710   4.942  18.318  0.00  0.00    +0.000 A 
ATOM      9  C   UNL     1       3.712   4.628  19.237  0.00  0.00    +0.000 A 
ATOM     10  C   UNL     1       2.746   5.589  19.576  0.00  0.00    +0.000 A 
ATOM     11 CL   UNL     1       1.423   5.081  20.571  0.00  0.00    +0.000 Cl
BRANCH   7  12
ATOM     12  S   UNL     1       5.743   6.493  16.304  0.00  0.00    +0.000 S 
ATOM     13  O   UNL     1       4.935   7.076  15.261  0.00  0.00    +0.000 OA
ATOM     14  O   UNL     1       6.948   7.145  16.769  0.00  0.00    +0.000 OA
BRANCH  12  15
ATOM     15  N   UNL     1       6.178   4.906  15.832  0.00  0.00    +0.000 NA
ATOM     16  C   UNL     1       7.467   4.731  15.125  0.00  0.00    +0.000 C 
ATOM     17  C   UNL     1       7.104   4.651  13.660  0.00  0.00    +0.000 C 
ATOM     18  C   UNL     1       5.775   3.921  13.659  0.00  0.00    +0.000 C 
ATOM     19  C   UNL     1       5.143   4.204  15.021  0.00  0.00    +0.000 C 
ENDBRANCH  12  15
ENDBRANCH   7  12
ENDBRANCH   3   5
BRANCH   2  20
ATOM     20  C   UNL     1       0.662  10.040  19.523  0.00  0.00    +0.000 C 
BRANCH  20  21
ATOM     21  N   UNL     1       0.450  11.324  18.805  0.00  0.00    +0.000 NA
ATOM     22  C   UNL     1      -0.927  11.851  18.917  0.00  0.00    +0.000 C 
ATOM     23  C   UNL     1      -1.360  12.219  20.340  0.00  0.00    +0.000 C 
ATOM     24  N   UNL     1      -0.425  13.080  21.071  0.00  0.00    +0.000 N 
ATOM     25  C   UNL     1      -0.772  13.800  22.228  0.00  0.00    +0.000 C 
ATOM     26  O   UNL     1       0.030  14.517  22.827  0.00  0.00    +0.000 OA
ATOM     27  C   UNL     1       1.003  12.842  20.826  0.00  0.00    +0.000 C 
ATOM     28  C   UNL     1       1.342  12.372  19.385  0.00  0.00    +0.000 C 
BRANCH  25  29
ATOM     29  C   UNL     1      -2.170  13.731  22.760  0.00  0.00    +0.000 A 
ATOM     30  C   UNL     1      -2.560  12.703  23.627  0.00  0.00    +0.000 A 
ATOM     31  C   UNL     1      -3.895  12.551  24.000  0.00  0.00    +0.000 A 
ATOM     32  C   UNL     1      -4.831  13.501  23.611  0.00  0.00    +0.000 A 
ATOM     33  C   UNL     1      -4.429  14.606  22.858  0.00  0.00    +0.000 A 
ATOM     34  C   UNL     1      -3.103  14.719  22.422  0.00  0.00    +0.000 A 
ENDBRANCH  25  29
ENDBRANCH  20  21
ENDBRANCH   2  20
TORSDOF 6
ENDMDL
MODEL 5
REMARK VINA RESULT:      -7.9      1.775      2.407
REMARK  Name = 
REMARK  6 active torsions:
REMARK  status: ('A' for Active; 'I' for Inactive)
REMARK    1  A    between atoms: C_2  and  C_3
REMARK    2  A    between atoms: C_3  and  N_4
REMARK    3  A    between atoms: C_8  and  C_10
REMARK    4  A    between atoms: N_18  and  C_19
REMARK    5  A    between atoms: C_21  and  S_22
REMARK    6  A    between atoms: S_22  and  N_25
REMARK                            x       y       z     vdW  Elec       q    Type
REMARK                         _______ _______ _______ _____ _____    ______ ____
ROOT
ATOM      1  O   UNL     1       1.854   8.587  17.684  0.00  0.00    +0.000 OA
ATOM      2  C   UNL     1       1.922   8.366  18.894  0.00  0.00    +0.000 C 
ATOM      3  N   UNL     1       2.306   7.155  19.432  0.00  0.00    +0.000 N 
ATOM      4  H   UNL     1       2.018   6.960  20.386  0.00  0.00    +0.000 HD
ENDROOT
BRANCH   3   5
ATOM      5  C   UNL     1       2.919   6.100  18.709  0.00  0.00    +0.000 A 
ATOM      6  C   UNL     1       3.885   6.347  17.724  0.00  0.00    +0.000 A 
ATOM      7  C   UNL     1       4.500   5.281  17.059  0.00  0.00    +0.000 A 
ATOM      8  C   UNL     1       4.234   3.957  17.413  0.00  0.00    +0.000 A 
ATOM      9  C   UNL     1       3.249   3.698  18.361  0.00  0.00    +0.000 A 
ATOM     10  C   UNL     1       2.580   4.764  18.984  0.00  0.00    +0.000 A 
ATOM     11 CL   UNL     1       1.237   4.381  20.007  0.00  0.00    +0.000 Cl
BRANCH   7  12
ATOM     12  S   UNL     1       5.497   5.613  15.626  0.00  0.00    +0.000 S 
ATOM     13  O   UNL     1       5.433   4.459  14.762  0.00  0.00    +0.000 OA
ATOM     14  O   UNL     1       5.160   6.932  15.138  0.00  0.00    +0.000 OA
BRANCH  12  15
ATOM     15  N   UNL     1       7.072   5.707  16.290  0.00  0.00    +0.000 NA
ATOM     16  C   UNL     1       7.472   4.657  17.253  0.00  0.00    +0.000 C 
ATOM     17  C   UNL     1       7.280   5.280  18.617  0.00  0.00    +0.000 C 
ATOM     18  C   UNL     1       7.652   6.734  18.402  0.00  0.00    +0.000 C 
ATOM     19  C   UNL     1       7.391   7.018  16.924  0.00  0.00    +0.000 C 
ENDBRANCH  12  15
ENDBRANCH   7  12
ENDBRANCH   3   5
BRANCH   2  20
ATOM     20  C   UNL     1       1.467   9.446  19.885  0.00  0.00    +0.000 C 
BRANCH  20  21
ATOM     21  N   UNL     1      -0.004   9.607  20.023  0.00  0.00    +0.000 NA
ATOM     22  C   UNL     1      -0.410  10.403  21.201  0.00  0.00    +0.000 C 
ATOM     23  C   UNL     1       0.059  11.862  21.183  0.00  0.00    +0.000 C 
ATOM     24  N   UNL     1      -0.236  12.594  19.948  0.00  0.00    +0.000 N 
ATOM     25  C   UNL     1      -0.206  13.996  19.847  0.00  0.00    +0.000 C 
ATOM     26  O   UNL     1      -0.456  14.592  18.799  0.00  0.00    +0.000 OA
ATOM     27  C   UNL     1      -0.144  11.826  18.700  0.00  0.00    +0.000 C 
ATOM     28  C   UNL     1      -0.540  10.330  18.831  0.00  0.00    +0.000 C 
BRANCH  25  29
ATOM     29  C   UNL     1       0.116  14.825  21.052  0.00  0.00    +0.000 A 
ATOM     30  C   UNL     1      -0.889  15.221  21.943  0.00  0.00    +0.000 A 
ATOM     31  C   UNL     1      -0.616  16.115  22.977  0.00  0.00    +0.000 A 
ATOM     32  C   UNL     1       0.692  16.525  23.206  0.00  0.00    +0.000 A 
ATOM     33  C   UNL     1       1.725  16.031  22.408  0.00  0.00    +0.000 A 
ATOM     34  C   UNL     1       1.440  15.190  21.325  0.00  0.00    +0.000 A 
ENDBRANCH  25  29
ENDBRANCH  20  21
ENDBRANCH   2  20
TORSDOF 6
ENDMDL
MODEL 6
REMARK VINA RESULT:      -7.8      3.326      4.784
REMARK  Name = 
REMARK  6 active torsions:
REMARK  status: ('A' for Active; 'I' for Inactive)
REMARK    1  A    between atoms: C_2  and  C_3
REMARK    2  A    between atoms: C_3  and  N_4
REMARK    3  A    between atoms: C_8  and  C_10
REMARK    4  A    between atoms: N_18  and  C_19
REMARK    5  A    between atoms: C_21  and  S_22
REMARK    6  A    between atoms: S_22  and  N_25
REMARK                            x       y       z     vdW  Elec       q    Type
REMARK                         _______ _______ _______ _____ _____    ______ ____
ROOT
ATOM      1  O   UNL     1      -1.227  10.029  19.166  0.00  0.00    +0.000 OA
ATOM      2  C   UNL     1      -0.463  10.639  19.916  0.00  0.00    +0.000 C 
ATOM      3  N   UNL     1       0.828  10.238  20.189  0.00  0.00    +0.000 N 
ATOM      4  H   UNL     1       1.252  10.589  21.042  0.00  0.00    +0.000 HD
ENDROOT
BRANCH   3   5
ATOM      5  C   UNL     1       1.544   9.249  19.466  0.00  0.00    +0.000 A 
ATOM      6  C   UNL     1       1.603   7.918  19.902  0.00  0.00    +0.000 A 
ATOM      7  C   UNL     1       2.284   6.959  19.144  0.00  0.00    +0.000 A 
ATOM      8  C   UNL     1       2.842   7.280  17.905  0.00  0.00    +0.000 A 
ATOM      9  C   UNL     1       2.824   8.605  17.480  0.00  0.00    +0.000 A 
ATOM     10  C   UNL     1       2.201   9.584  18.270  0.00  0.00    +0.000 A 
ATOM     11 CL   UNL     1       2.378  11.238  17.788  0.00  0.00    +0.000 Cl
BRANCH   7  12
ATOM     12  S   UNL     1       2.595   5.358  19.848  0.00  0.00    +0.000 S 
ATOM     13  O   UNL     1       4.005   5.083  19.722  0.00  0.00    +0.000 OA
ATOM     14  O   UNL     1       1.933   5.295  21.132  0.00  0.00    +0.000 OA
BRANCH  12  15
ATOM     15  N   UNL     1       1.742   4.320  18.788  0.00  0.00    +0.000 NA
ATOM     16  C   UNL     1       0.967   3.212  19.391  0.00  0.00    +0.000 C 
ATOM     17  C   UNL     1       1.850   1.993  19.251  0.00  0.00    +0.000 C 
ATOM     18  C   UNL     1       2.552   2.210  17.925  0.00  0.00    +0.000 C 
ATOM     19  C   UNL     1       2.580   3.722  17.710  0.00  0.00    +0.000 C 
ENDBRANCH  12  15
ENDBRANCH   7  12
ENDBRANCH   3   5
BRANCH   2  20
ATOM     20  C   UNL     1      -0.979  11.864  20.684  0.00  0.00    +0.000 C 
BRANCH  20  21
ATOM     21  N   UNL     1      -0.334  12.112  22.000  0.00  0.00    +0.000 NA
ATOM     22  C   UNL     1      -0.494  13.497  22.493  0.00  0.00    +0.000 C 
ATOM     23  C   UNL     1      -1.941  13.915  22.775  0.00  0.00    +0.000 C 
ATOM     24  N   UNL     1      -2.703  12.985  23.615  0.00  0.00    +0.000 N 
ATOM     25  C   UNL     1      -3.902  13.327  24.265  0.00  0.00    +0.000 C 
ATOM     26  O   UNL     1      -4.527  12.530  24.965  0.00  0.00    +0.000 OA
ATOM     27  C   UNL     1      -2.425  11.557  23.419  0.00  0.00    +0.000 C 
ATOM     28  C   UNL     1      -0.956  11.231  23.033  0.00  0.00    +0.000 C 
BRANCH  25  29
ATOM     29  C   UNL     1      -4.450  14.715  24.140  0.00  0.00    +0.000 A 
ATOM     30  C   UNL     1      -5.534  14.988  23.297  0.00  0.00    +0.000 A 
ATOM     31  C   UNL     1      -5.946  16.299  23.064  0.00  0.00    +0.000 A 
ATOM     32  C   UNL     1      -5.358  17.342  23.770  0.00  0.00    +0.000 A 
ATOM     33  C   UNL     1      -4.368  17.070  24.715  0.00  0.00    +0.000 A 
ATOM     34  C   UNL     1      -3.904  15.760  24.895  0.00  0.00    +0.000 A 
ENDBRANCH  25  29
ENDBRANCH  20  21
ENDBRANCH   2  20
TORSDOF 6
ENDMDL
MODEL 7
REMARK VINA RESULT:      -7.8      3.289      4.704
REMARK  Name = 
REMARK  6 active torsions:
REMARK  status: ('A' for Active; 'I' for Inactive)
REMARK    1  A    between atoms: C_2  and  C_3
REMARK    2  A    between atoms: C_3  and  N_4
REMARK    3  A    between atoms: C_8  and  C_10
REMARK    4  A    between atoms: N_18  and  C_19
REMARK    5  A    between atoms: C_21  and  S_22
REMARK    6  A    between atoms: S_22  and  N_25
REMARK                            x       y       z     vdW  Elec       q    Type
REMARK                         _______ _______ _______ _____ _____    ______ ____
ROOT
ATOM      1  O   UNL     1       1.535  10.843  21.567  0.00  0.00    +0.000 OA
ATOM      2  C   UNL     1       0.473  10.755  20.948  0.00  0.00    +0.000 C 
ATOM      3  N   UNL     1       0.333  10.073  19.757  0.00  0.00    +0.000 N 
ATOM      4  H   UNL     1      -0.453  10.327  19.168  0.00  0.00    +0.000 HD
ENDROOT
BRANCH   3   5
ATOM      5  C   UNL     1       1.286   9.171  19.218  0.00  0.00    +0.000 A 
ATOM      6  C   UNL     1       1.368   7.841  19.651  0.00  0.00    +0.000 A 
ATOM      7  C   UNL     1       2.292   6.967  19.069  0.00  0.00    +0.000 A 
ATOM      8  C   UNL     1       3.089   7.367  17.995  0.00  0.00    +0.000 A 
ATOM      9  C   UNL     1       3.045   8.696  17.581  0.00  0.00    +0.000 A 
ATOM     10  C   UNL     1       2.167   9.594  18.208  0.00  0.00    +0.000 A 
ATOM     11 CL   UNL     1       2.295  11.269  17.785  0.00  0.00    +0.000 Cl
BRANCH   7  12
ATOM     12  S   UNL     1       2.581   5.383  19.821  0.00  0.00    +0.000 S 
ATOM     13  O   UNL     1       3.981   5.069  19.672  0.00  0.00    +0.000 OA
ATOM     14  O   UNL     1       1.949   5.381  21.122  0.00  0.00    +0.000 OA
BRANCH  12  15
ATOM     15  N   UNL     1       1.678   4.331  18.818  0.00  0.00    +0.000 NA
ATOM     16  C   UNL     1       0.965   3.209  19.470  0.00  0.00    +0.000 C 
ATOM     17  C   UNL     1       1.857   2.006  19.269  0.00  0.00    +0.000 C 
ATOM     18  C   UNL     1       2.466   2.236  17.900  0.00  0.00    +0.000 C 
ATOM     19  C   UNL     1       2.454   3.749  17.686  0.00  0.00    +0.000 C 
ENDBRANCH  12  15
ENDBRANCH   7  12
ENDBRANCH   3   5
BRANCH   2  20
ATOM     20  C   UNL     1      -0.758  11.520  21.452  0.00  0.00    +0.000 C 
BRANCH  20  21
ATOM     21  N   UNL     1      -0.810  12.961  21.086  0.00  0.00    +0.000 NA
ATOM     22  C   UNL     1      -2.163  13.439  20.730  0.00  0.00    +0.000 C 
ATOM     23  C   UNL     1      -3.188  13.372  21.868  0.00  0.00    +0.000 C 
ATOM     24  N   UNL     1      -2.751  13.974  23.132  0.00  0.00    +0.000 N 
ATOM     25  C   UNL     1      -3.630  14.323  24.173  0.00  0.00    +0.000 C 
ATOM     26  O   UNL     1      -3.242  14.827  25.227  0.00  0.00    +0.000 OA
ATOM     27  C   UNL     1      -1.332  13.812  23.473  0.00  0.00    +0.000 C 
ATOM     28  C   UNL     1      -0.373  13.786  22.252  0.00  0.00    +0.000 C 
BRANCH  25  29
ATOM     29  C   UNL     1      -5.103  14.108  24.010  0.00  0.00    +0.000 A 
ATOM     30  C   UNL     1      -5.953  15.171  23.678  0.00  0.00    +0.000 A 
ATOM     31  C   UNL     1      -7.337  15.005  23.676  0.00  0.00    +0.000 A 
ATOM     32  C   UNL     1      -7.880  13.743  23.883  0.00  0.00    +0.000 A 
ATOM     33  C   UNL     1      -7.038  12.648  24.081  0.00  0.00    +0.000 A 
ATOM     34  C   UNL     1      -5.650  12.828  24.155  0.00  0.00    +0.000 A 
ENDBRANCH  25  29
ENDBRANCH  20  21
ENDBRANCH   2  20
TORSDOF 6
ENDMDL
MODEL 8
REMARK VINA RESULT:      -7.8      1.645      2.310
REMARK  Name = 
REMARK  6 active torsions:
REMARK  status: ('A' for Active; 'I' for Inactive)
REMARK    1  A    between atoms: C_2  and  C_3
REMARK    2  A    between atoms: C_3  and  N_4
REMARK    3  A    between atoms: C_8  and  C_10
REMARK    4  A    between atoms: N_18  and  C_19
REMARK    5  A    between atoms: C_21  and  S_22
REMARK    6  A    between atoms: S_22  and  N_25
REMARK                            x       y       z     vdW  Elec       q    Type
REMARK                         _______ _______ _______ _____ _____    ______ ____
ROOT
ATOM      1  O   UNL     1       1.759   8.250  18.413  0.00  0.00    +0.000 OA
ATOM      2  C   UNL     1       2.028   7.865  19.552  0.00  0.00    +0.000 C 
ATOM      3  N   UNL     1       2.533   6.615  19.841  0.00  0.00    +0.000 N 
ATOM      4  H   UNL     1       2.409   6.272  20.789  0.00  0.00    +0.000 HD
ENDROOT
BRANCH   3   5
ATOM      5  C   UNL     1       3.057   5.707  18.885  0.00  0.00    +0.000 A 
ATOM      6  C   UNL     1       4.009   6.106  17.937  0.00  0.00    +0.000 A 
ATOM      7  C   UNL     1       4.537   5.175  17.035  0.00  0.00    +0.000 A 
ATOM      8  C   UNL     1       4.196   3.823  17.109  0.00  0.00    +0.000 A 
ATOM      9  C   UNL     1       3.223   3.422  18.020  0.00  0.00    +0.000 A 
ATOM     10  C   UNL     1       2.642   4.365  18.882  0.00  0.00    +0.000 A 
ATOM     11 CL   UNL     1       1.305   3.847  19.854  0.00  0.00    +0.000 Cl
BRANCH   7  12
ATOM     12  S   UNL     1       5.513   5.751  15.667  0.00  0.00    +0.000 S 
ATOM     13  O   UNL     1       5.460   4.750  14.630  0.00  0.00    +0.000 OA
ATOM     14  O   UNL     1       5.148   7.125  15.399  0.00  0.00    +0.000 OA
BRANCH  12  15
ATOM     15  N   UNL     1       7.093   5.767  16.326  0.00  0.00    +0.000 NA
ATOM     16  C   UNL     1       7.522   4.582  17.103  0.00  0.00    +0.000 C 
ATOM     17  C   UNL     1       7.333   4.973  18.551  0.00  0.00    +0.000 C 
ATOM     18  C   UNL     1       7.677   6.449  18.572  0.00  0.00    +0.000 C 
ATOM     19  C   UNL     1       7.395   6.964  17.162  0.00  0.00    +0.000 C 
ENDBRANCH  12  15
ENDBRANCH   7  12
ENDBRANCH   3   5
BRANCH   2  20
ATOM     20  C   UNL     1       1.702   8.769  20.749  0.00  0.00    +0.000 C 
BRANCH  20  21
ATOM     21  N   UNL     1       0.353   8.578  21.345  0.00  0.00    +0.000 NA
ATOM     22  C   UNL     1       0.091   9.437  22.520  0.00  0.00    +0.000 C 
ATOM     23  C   UNL     1       0.090  10.942  22.227  0.00  0.00    +0.000 C 
ATOM     24  N   UNL     1      -0.750  11.354  21.099  0.00  0.00    +0.000 N 
ATOM     25  C   UNL     1      -1.160  12.681  20.876  0.00  0.00    +0.000 C 
ATOM     26  O   UNL     1      -1.865  13.006  19.921  0.00  0.00    +0.000 OA
ATOM     27  C   UNL     1      -0.804  10.431  19.958  0.00  0.00    +0.000 C 
ATOM     28  C   UNL     1      -0.691   8.929  20.336  0.00  0.00    +0.000 C 
BRANCH  25  29
ATOM     29  C   UNL     1      -0.759  13.757  21.837  0.00  0.00    +0.000 A 
ATOM     30  C   UNL     1      -1.445  13.937  23.044  0.00  0.00    +0.000 A 
ATOM     31  C   UNL     1      -1.173  15.030  23.866  0.00  0.00    +0.000 A 
ATOM     32  C   UNL     1      -0.124  15.885  23.549  0.00  0.00    +0.000 A 
ATOM     33  C   UNL     1       0.657  15.638  22.419  0.00  0.00    +0.000 A 
ATOM     34  C   UNL     1       0.336  14.583  21.555  0.00  0.00    +0.000 A 
ENDBRANCH  25  29
ENDBRANCH  20  21
ENDBRANCH   2  20
TORSDOF 6
ENDMDL
MODEL 9
REMARK VINA RESULT:      -7.7      2.566      3.698
REMARK  Name = 
REMARK  6 active torsions:
REMARK  status: ('A' for Active; 'I' for Inactive)
REMARK    1  A    between atoms: C_2  and  C_3
REMARK    2  A    between atoms: C_3  and  N_4
REMARK    3  A    between atoms: C_8  and  C_10
REMARK    4  A    between atoms: N_18  and  C_19
REMARK    5  A    between atoms: C_21  and  S_22
REMARK    6  A    between atoms: S_22  and  N_25
REMARK                            x       y       z     vdW  Elec       q    Type
REMARK                         _______ _______ _______ _____ _____    ______ ____
ROOT
ATOM      1  O   UNL     1       1.763   7.294  18.321  0.00  0.00    +0.000 OA
ATOM      2  C   UNL     1       2.014   7.357  19.526  0.00  0.00    +0.000 C 
ATOM      3  N   UNL     1       2.814   6.452  20.192  0.00  0.00    +0.000 N 
ATOM      4  H   UNL     1       2.696   6.381  21.198  0.00  0.00    +0.000 HD
ENDROOT
BRANCH   3   5
ATOM      5  C   UNL     1       3.661   5.499  19.568  0.00  0.00    +0.000 A 
ATOM      6  C   UNL     1       4.961   5.827  19.161  0.00  0.00    +0.000 A 
ATOM      7  C   UNL     1       5.785   4.852  18.586  0.00  0.00    +0.000 A 
ATOM      8  C   UNL     1       5.368   3.524  18.481  0.00  0.00    +0.000 A 
ATOM      9  C   UNL     1       4.066   3.195  18.845  0.00  0.00    +0.000 A 
ATOM     10  C   UNL     1       3.213   4.184  19.360  0.00  0.00    +0.000 A 
ATOM     11 CL   UNL     1       1.553   3.761  19.611  0.00  0.00    +0.000 Cl
BRANCH   7  12
ATOM     12  S   UNL     1       7.309   5.348  17.818  0.00  0.00    +0.000 S 
ATOM     13  O   UNL     1       7.778   6.536  18.487  0.00  0.00    +0.000 OA
ATOM     14  O   UNL     1       8.151   4.178  17.694  0.00  0.00    +0.000 OA
BRANCH  12  15
ATOM     15  N   UNL     1       6.802   5.776  16.241  0.00  0.00    +0.000 NA
ATOM     16  C   UNL     1       5.352   5.976  16.019  0.00  0.00    +0.000 C 
ATOM     17  C   UNL     1       4.865   4.683  15.405  0.00  0.00    +0.000 C 
ATOM     18  C   UNL     1       6.028   4.237  14.542  0.00  0.00    +0.000 C 
ATOM     19  C   UNL     1       7.277   4.851  15.173  0.00  0.00    +0.000 C 
ENDBRANCH  12  15
ENDBRANCH   7  12
ENDBRANCH   3   5
BRANCH   2  20
ATOM     20  C   UNL     1       1.334   8.434  20.382  0.00  0.00    +0.000 C 
BRANCH  20  21
ATOM     21  N   UNL     1       1.770   9.831  20.118  0.00  0.00    +0.000 NA
ATOM     22  C   UNL     1       1.375  10.338  18.786  0.00  0.00    +0.000 C 
ATOM     23  C   UNL     1      -0.138  10.438  18.559  0.00  0.00    +0.000 C 
ATOM     24  N   UNL     1      -0.877  11.142  19.612  0.00  0.00    +0.000 N 
ATOM     25  C   UNL     1      -2.182  11.638  19.447  0.00  0.00    +0.000 C 
ATOM     26  O   UNL     1      -2.786  12.226  20.345  0.00  0.00    +0.000 OA
ATOM     27  C   UNL     1      -0.398  10.944  20.986  0.00  0.00    +0.000 C 
ATOM     28  C   UNL     1       1.137  10.746  21.113  0.00  0.00    +0.000 C 
BRANCH  25  29
ATOM     29  C   UNL     1      -2.881  11.482  18.132  0.00  0.00    +0.000 A 
ATOM     30  C   UNL     1      -4.266  11.655  18.027  0.00  0.00    +0.000 A 
ATOM     31  C   UNL     1      -4.936  11.362  16.840  0.00  0.00    +0.000 A 
ATOM     32  C   UNL     1      -4.210  11.013  15.708  0.00  0.00    +0.000 A 
ATOM     33  C   UNL     1      -2.816  10.968  15.763  0.00  0.00    +0.000 A 
ATOM     34  C   UNL     1      -2.149  11.191  16.974  0.00  0.00    +0.000 A 
ENDBRANCH  25  29
ENDBRANCH  20  21
ENDBRANCH   2  20
TORSDOF 6
ENDMDL
