MODEL 1
REMARK VINA RESULT:      -8.1      0.000      0.000
REMARK  Name = 
REMARK  8 active torsions:
REMARK  status: ('A' for Active; 'I' for Inactive)
REMARK    1  A    between atoms: C_1  and  O_2
REMARK    2  A    between atoms: O_2  and  C_3
REMARK    3  A    between atoms: C_7  and  C_8
REMARK    4  A    between atoms: C_8  and  N_9
REMARK    5  A    between atoms: N_16  and  C_17
REMARK    6  A    between atoms: C_20  and  C_21
REMARK    7  A    between atoms: C_21  and  O_23
REMARK    8  A    between atoms: N_30  and  C_31
REMARK                            x       y       z     vdW  Elec       q    Type
REMARK                         _______ _______ _______ _____ _____    ______ ____
ROOT
ATOM      1  N   UNL     1       2.245   7.752  19.080  0.00  0.00    +0.000 NA
ATOM      2  C   UNL     1       2.386   8.861  18.143  0.00  0.00    +0.000 C 
ATOM      3  C   UNL     1       1.081   9.613  17.875  0.00  0.00    +0.000 C 
ATOM      4  C   UNL     1       0.281  10.005  19.133  0.00  0.00    +0.000 C 
ATOM      5  C   UNL     1       0.462   9.046  20.330  0.00  0.00    +0.000 C 
ATOM      6  C   UNL     1       1.771   8.257  20.368  0.00  0.00    +0.000 C 
ATOM      7  C   UNL     1      -1.214  10.138  18.817  0.00  0.00    +0.000 C 
ATOM      8  N   UNL     1      -1.590  11.442  19.263  0.00  0.00    +0.000 N 
ATOM      9  C   UNL     1      -0.452  12.190  19.500  0.00  0.00    +0.000 C 
ATOM     10  O   UNL     1      -0.361  13.386  19.717  0.00  0.00    +0.000 OA
ATOM     11  O   UNL     1       0.656  11.356  19.497  0.00  0.00    +0.000 OA
ENDROOT
BRANCH   8  12
ATOM     12  C   UNL     1      -2.939  11.891  19.170  0.00  0.00    +0.000 A 
ATOM     13  C   UNL     1      -3.769  11.569  18.089  0.00  0.00    +0.000 A 
ATOM     14  C   UNL     1      -5.131  11.924  18.099  0.00  0.00    +0.000 A 
ATOM     15  C   UNL     1      -5.681  12.644  19.168  0.00  0.00    +0.000 A 
ATOM     16  C   UNL     1      -4.850  13.031  20.219  0.00  0.00    +0.000 A 
ATOM     17  C   UNL     1      -3.499  12.655  20.212  0.00  0.00    +0.000 A 
BRANCH  15  18
ATOM     18  C   UNL     1      -7.151  12.872  19.185  0.00  0.00    +0.000 C 
ATOM     19  O   UNL     1      -7.791  13.095  18.172  0.00  0.00    +0.000 OA
BRANCH  18  20
ATOM     20  O   UNL     1      -7.721  12.802  20.408  0.00  0.00    +0.000 OA
ATOM     21  H   UNL     1      -8.694  12.797  20.420  0.00  0.00    +0.000 HD
ENDBRANCH  18  20
ENDBRANCH  15  18
ENDBRANCH   8  12
BRANCH   1  22
ATOM     22  C   UNL     1       1.554   6.564  18.546  0.00  0.00    +0.000 C 
BRANCH  22  27
ATOM     23  C   UNL     1       6.203   4.884  16.084  0.00  0.00    +0.000 A 
ATOM     24  C   UNL     1       5.722   6.192  16.113  0.00  0.00    +0.000 A 
ATOM     25  C   UNL     1       4.529   6.529  16.789  0.00  0.00    +0.000 A 
ATOM     26  C   UNL     1       3.785   5.523  17.462  0.00  0.00    +0.000 A 
ATOM     27  C   UNL     1       2.551   5.464  18.219  0.00  0.00    +0.000 A 
ATOM     28  C   UNL     1       2.376   4.125  18.549  0.00  0.00    +0.000 A 
ATOM     29  N   UNL     1       3.424   3.404  18.068  0.00  0.00    +0.000 N 
ATOM     30  C   UNL     1       3.577   1.966  18.142  0.00  0.00    +0.000 C 
ATOM     31  C   UNL     1       4.309   4.229  17.411  0.00  0.00    +0.000 A 
ATOM     32  C   UNL     1       5.512   3.894  16.772  0.00  0.00    +0.000 A 
BRANCH  23  34
ATOM     33  C   UNL     1       7.305   4.935  13.987  0.00  0.00    +0.000 C 
ATOM     34  O   UNL     1       7.364   4.655  15.388  0.00  0.00    +0.000 OA
ENDBRANCH  23  34
ENDBRANCH  22  27
ENDBRANCH   1  22
TORSDOF 6
ENDMDL
MODEL 2
REMARK VINA RESULT:      -7.8      0.421      1.006
REMARK  Name = 
REMARK  8 active torsions:
REMARK  status: ('A' for Active; 'I' for Inactive)
REMARK    1  A    between atoms: C_1  and  O_2
REMARK    2  A    between atoms: O_2  and  C_3
REMARK    3  A    between atoms: C_7  and  C_8
REMARK    4  A    between atoms: C_8  and  N_9
REMARK    5  A    between atoms: N_16  and  C_17
REMARK    6  A    between atoms: C_20  and  C_21
REMARK    7  A    between atoms: C_21  and  O_23
REMARK    8  A    between atoms: N_30  and  C_31
REMARK                            x       y       z     vdW  Elec       q    Type
REMARK                         _______ _______ _______ _____ _____    ______ ____
ROOT
ATOM      1  N   UNL     1       2.247   7.828  19.079  0.00  0.00    +0.000 NA
ATOM      2  C   UNL     1       2.342   8.938  18.136  0.00  0.00    +0.000 C 
ATOM      3  C   UNL     1       1.020   9.678  17.920  0.00  0.00    +0.000 C 
ATOM      4  C   UNL     1       0.267  10.064  19.209  0.00  0.00    +0.000 C 
ATOM      5  C   UNL     1       0.504   9.107  20.398  0.00  0.00    +0.000 C 
ATOM      6  C   UNL     1       1.821   8.330  20.384  0.00  0.00    +0.000 C 
ATOM      7  C   UNL     1      -1.239  10.184  18.952  0.00  0.00    +0.000 C 
ATOM      8  N   UNL     1      -1.609  11.485  19.413  0.00  0.00    +0.000 N 
ATOM      9  C   UNL     1      -0.469  12.243  19.605  0.00  0.00    +0.000 C 
ATOM     10  O   UNL     1      -0.380  13.440  19.817  0.00  0.00    +0.000 OA
ATOM     11  O   UNL     1       0.645  11.419  19.558  0.00  0.00    +0.000 OA
ENDROOT
BRANCH   8  12
ATOM     12  C   UNL     1      -2.964  11.923  19.374  0.00  0.00    +0.000 A 
ATOM     13  C   UNL     1      -3.536  12.700  20.389  0.00  0.00    +0.000 A 
ATOM     14  C   UNL     1      -4.837  13.218  20.250  0.00  0.00    +0.000 A 
ATOM     15  C   UNL     1      -5.608  12.936  19.115  0.00  0.00    +0.000 A 
ATOM     16  C   UNL     1      -5.076  12.107  18.128  0.00  0.00    +0.000 A 
ATOM     17  C   UNL     1      -3.772  11.612  18.263  0.00  0.00    +0.000 A 
BRANCH  15  18
ATOM     18  C   UNL     1      -6.921  13.621  18.964  0.00  0.00    +0.000 C 
ATOM     19  O   UNL     1      -7.131  14.737  19.404  0.00  0.00    +0.000 OA
BRANCH  18  20
ATOM     20  O   UNL     1      -7.855  12.912  18.292  0.00  0.00    +0.000 OA
ATOM     21  H   UNL     1      -8.274  13.371  17.543  0.00  0.00    +0.000 HD
ENDBRANCH  18  20
ENDBRANCH  15  18
ENDBRANCH   8  12
BRANCH   1  22
ATOM     22  C   UNL     1       1.546   6.633  18.573  0.00  0.00    +0.000 C 
BRANCH  22  27
ATOM     23  C   UNL     1       6.191   4.963  16.096  0.00  0.00    +0.000 A 
ATOM     24  C   UNL     1       5.718   6.273  16.144  0.00  0.00    +0.000 A 
ATOM     25  C   UNL     1       4.525   6.607  16.822  0.00  0.00    +0.000 A 
ATOM     26  C   UNL     1       3.774   5.596  17.478  0.00  0.00    +0.000 A 
ATOM     27  C   UNL     1       2.538   5.533  18.232  0.00  0.00    +0.000 A 
ATOM     28  C   UNL     1       2.353   4.190  18.540  0.00  0.00    +0.000 A 
ATOM     29  N   UNL     1       3.398   3.470  18.051  0.00  0.00    +0.000 N 
ATOM     30  C   UNL     1       3.542   2.030  18.103  0.00  0.00    +0.000 C 
ATOM     31  C   UNL     1       4.289   4.299  17.409  0.00  0.00    +0.000 A 
ATOM     32  C   UNL     1       5.492   3.966  16.768  0.00  0.00    +0.000 A 
BRANCH  23  34
ATOM     33  C   UNL     1       7.242   4.831  13.976  0.00  0.00    +0.000 C 
ATOM     34  O   UNL     1       7.352   4.737  15.400  0.00  0.00    +0.000 OA
ENDBRANCH  23  34
ENDBRANCH  22  27
ENDBRANCH   1  22
TORSDOF 6
ENDMDL
MODEL 3
REMARK VINA RESULT:      -7.8      2.559      3.152
REMARK  Name = 
REMARK  8 active torsions:
REMARK  status: ('A' for Active; 'I' for Inactive)
REMARK    1  A    between atoms: C_1  and  O_2
REMARK    2  A    between atoms: O_2  and  C_3
REMARK    3  A    between atoms: C_7  and  C_8
REMARK    4  A    between atoms: C_8  and  N_9
REMARK    5  A    between atoms: N_16  and  C_17
REMARK    6  A    between atoms: C_20  and  C_21
REMARK    7  A    between atoms: C_21  and  O_23
REMARK    8  A    between atoms: N_30  and  C_31
REMARK                            x       y       z     vdW  Elec       q    Type
REMARK                         _______ _______ _______ _____ _____    ______ ____
ROOT
ATOM      1  N   UNL     1       1.769   8.353  20.963  0.00  0.00    +0.000 NA
ATOM      2  C   UNL     1       1.503   9.411  19.994  0.00  0.00    +0.000 C 
ATOM      3  C   UNL     1       0.176  10.138  20.223  0.00  0.00    +0.000 C 
ATOM      4  C   UNL     1      -0.082  10.590  21.674  0.00  0.00    +0.000 C 
ATOM      5  C   UNL     1       0.578   9.697  22.748  0.00  0.00    +0.000 C 
ATOM      6  C   UNL     1       1.820   8.922  22.308  0.00  0.00    +0.000 C 
ATOM      7  C   UNL     1      -1.584  10.694  21.960  0.00  0.00    +0.000 C 
ATOM      8  N   UNL     1      -1.794  12.018  22.457  0.00  0.00    +0.000 N 
ATOM      9  C   UNL     1      -0.674  12.785  22.197  0.00  0.00    +0.000 C 
ATOM     10  O   UNL     1      -0.540  13.992  22.306  0.00  0.00    +0.000 OA
ATOM     11  O   UNL     1       0.368  11.962  21.800  0.00  0.00    +0.000 OA
ENDROOT
BRANCH   8  12
ATOM     12  C   UNL     1      -3.084  12.450  22.878  0.00  0.00    +0.000 A 
ATOM     13  C   UNL     1      -3.986  13.085  22.014  0.00  0.00    +0.000 A 
ATOM     14  C   UNL     1      -5.296  13.380  22.434  0.00  0.00    +0.000 A 
ATOM     15  C   UNL     1      -5.719  13.086  23.737  0.00  0.00    +0.000 A 
ATOM     16  C   UNL     1      -4.810  12.516  24.628  0.00  0.00    +0.000 A 
ATOM     17  C   UNL     1      -3.513  12.205  24.196  0.00  0.00    +0.000 A 
BRANCH  15  18
ATOM     18  C   UNL     1      -7.152  13.296  24.081  0.00  0.00    +0.000 C 
ATOM     19  O   UNL     1      -7.601  14.391  24.371  0.00  0.00    +0.000 OA
BRANCH  18  20
ATOM     20  O   UNL     1      -7.914  12.182  24.035  0.00  0.00    +0.000 OA
ATOM     21  H   UNL     1      -8.687  12.175  24.628  0.00  0.00    +0.000 HD
ENDBRANCH  18  20
ENDBRANCH  15  18
ENDBRANCH   8  12
BRANCH   1  22
ATOM     22  C   UNL     1       0.958   7.132  20.795  0.00  0.00    +0.000 C 
BRANCH  22  27
ATOM     23  C   UNL     1       4.643   4.933  17.320  0.00  0.00    +0.000 A 
ATOM     24  C   UNL     1       4.165   6.242  17.281  0.00  0.00    +0.000 A 
ATOM     25  C   UNL     1       3.235   6.721  18.230  0.00  0.00    +0.000 A 
ATOM     26  C   UNL     1       2.762   5.862  19.257  0.00  0.00    +0.000 A 
ATOM     27  C   UNL     1       1.828   5.965  20.360  0.00  0.00    +0.000 A 
ATOM     28  C   UNL     1       1.795   4.704  20.944  0.00  0.00    +0.000 A 
ATOM     29  N   UNL     1       2.658   3.882  20.287  0.00  0.00    +0.000 N 
ATOM     30  C   UNL     1       2.858   2.472  20.546  0.00  0.00    +0.000 C 
ATOM     31  C   UNL     1       3.273   4.561  19.261  0.00  0.00    +0.000 A 
ATOM     32  C   UNL     1       4.225   4.090  18.343  0.00  0.00    +0.000 A 
BRANCH  23  34
ATOM     33  C   UNL     1       6.915   4.696  16.690  0.00  0.00    +0.000 C 
ATOM     34  O   UNL     1       5.534   4.558  16.345  0.00  0.00    +0.000 OA
ENDBRANCH  23  34
ENDBRANCH  22  27
ENDBRANCH   1  22
TORSDOF 6
ENDMDL
MODEL 4
REMARK VINA RESULT:      -7.7      3.513     10.404
REMARK  Name = 
REMARK  8 active torsions:
REMARK  status: ('A' for Active; 'I' for Inactive)
REMARK    1  A    between atoms: C_1  and  O_2
REMARK    2  A    between atoms: O_2  and  C_3
REMARK    3  A    between atoms: C_7  and  C_8
REMARK    4  A    between atoms: C_8  and  N_9
REMARK    5  A    between atoms: N_16  and  C_17
REMARK    6  A    between atoms: C_20  and  C_21
REMARK    7  A    between atoms: C_21  and  O_23
REMARK    8  A    between atoms: N_30  and  C_31
REMARK                            x       y       z     vdW  Elec       q    Type
REMARK                         _______ _______ _______ _____ _____    ______ ____
ROOT
ATOM      1  N   UNL     1      -0.474  12.299  19.721  0.00  0.00    +0.000 NA
ATOM      2  C   UNL     1      -1.253  11.070  19.611  0.00  0.00    +0.000 C 
ATOM      3  C   UNL     1      -0.521   9.937  18.888  0.00  0.00    +0.000 C 
ATOM      4  C   UNL     1       0.921   9.679  19.368  0.00  0.00    +0.000 C 
ATOM      5  C   UNL     1       1.647  10.928  19.914  0.00  0.00    +0.000 C 
ATOM      6  C   UNL     1       0.752  12.035  20.472  0.00  0.00    +0.000 C 
ATOM      7  C   UNL     1       1.768   9.052  18.254  0.00  0.00    +0.000 C 
ATOM      8  N   UNL     1       2.321   7.858  18.812  0.00  0.00    +0.000 N 
ATOM      9  C   UNL     1       1.655   7.551  19.984  0.00  0.00    +0.000 C 
ATOM     10  O   UNL     1       1.716   6.529  20.646  0.00  0.00    +0.000 OA
ATOM     11  O   UNL     1       0.877   8.632  20.369  0.00  0.00    +0.000 OA
ENDROOT
BRANCH   8  12
ATOM     12  C   UNL     1       3.213   7.039  18.062  0.00  0.00    +0.000 A 
ATOM     13  C   UNL     1       4.269   7.567  17.309  0.00  0.00    +0.000 A 
ATOM     14  C   UNL     1       5.203   6.717  16.688  0.00  0.00    +0.000 A 
ATOM     15  C   UNL     1       5.078   5.324  16.771  0.00  0.00    +0.000 A 
ATOM     16  C   UNL     1       3.992   4.785  17.461  0.00  0.00    +0.000 A 
ATOM     17  C   UNL     1       3.078   5.638  18.095  0.00  0.00    +0.000 A 
BRANCH  15  18
ATOM     18  C   UNL     1       6.168   4.480  16.211  0.00  0.00    +0.000 C 
ATOM     19  O   UNL     1       7.284   4.916  15.989  0.00  0.00    +0.000 OA
BRANCH  18  20
ATOM     20  O   UNL     1       5.826   3.194  15.977  0.00  0.00    +0.000 OA
ATOM     21  H   UNL     1       5.614   2.976  15.053  0.00  0.00    +0.000 HD
ENDBRANCH  18  20
ENDBRANCH  15  18
ENDBRANCH   8  12
BRANCH   1  22
ATOM     22  C   UNL     1      -0.326  13.061  18.467  0.00  0.00    +0.000 C 
BRANCH  22  27
ATOM     23  C   UNL     1       3.968  16.533  18.576  0.00  0.00    +0.000 A 
ATOM     24  C   UNL     1       3.995  15.215  18.121  0.00  0.00    +0.000 A 
ATOM     25  C   UNL     1       2.836  14.409  18.113  0.00  0.00    +0.000 A 
ATOM     26  C   UNL     1       1.601  14.935  18.577  0.00  0.00    +0.000 A 
ATOM     27  C   UNL     1       0.249  14.441  18.743  0.00  0.00    +0.000 A 
ATOM     28  C   UNL     1      -0.466  15.486  19.316  0.00  0.00    +0.000 A 
ATOM     29  N   UNL     1       0.355  16.560  19.470  0.00  0.00    +0.000 N 
ATOM     30  C   UNL     1       0.007  17.818  20.095  0.00  0.00    +0.000 C 
ATOM     31  C   UNL     1       1.620  16.261  19.017  0.00  0.00    +0.000 A 
ATOM     32  C   UNL     1       2.760  17.079  18.994  0.00  0.00    +0.000 A 
BRANCH  23  34
ATOM     33  C   UNL     1       5.936  17.138  19.749  0.00  0.00    +0.000 C 
ATOM     34  O   UNL     1       5.150  17.231  18.558  0.00  0.00    +0.000 OA
ENDBRANCH  23  34
ENDBRANCH  22  27
ENDBRANCH   1  22
TORSDOF 6
ENDMDL
MODEL 5
REMARK VINA RESULT:      -7.7      3.254     11.662
REMARK  Name = 
REMARK  8 active torsions:
REMARK  status: ('A' for Active; 'I' for Inactive)
REMARK    1  A    between atoms: C_1  and  O_2
REMARK    2  A    between atoms: O_2  and  C_3
REMARK    3  A    between atoms: C_7  and  C_8
REMARK    4  A    between atoms: C_8  and  N_9
REMARK    5  A    between atoms: N_16  and  C_17
REMARK    6  A    between atoms: C_20  and  C_21
REMARK    7  A    between atoms: C_21  and  O_23
REMARK    8  A    between atoms: N_30  and  C_31
REMARK                            x       y       z     vdW  Elec       q    Type
REMARK                         _______ _______ _______ _____ _____    ______ ____
ROOT
ATOM      1  N   UNL     1      -0.946  12.295  20.932  0.00  0.00    +0.000 NA
ATOM      2  C   UNL     1       0.450  12.559  20.597  0.00  0.00    +0.000 C 
ATOM      3  C   UNL     1       1.332  11.308  20.600  0.00  0.00    +0.000 C 
ATOM      4  C   UNL     1       0.760  10.101  19.831  0.00  0.00    +0.000 C 
ATOM      5  C   UNL     1      -0.783  10.035  19.800  0.00  0.00    +0.000 C 
ATOM      6  C   UNL     1      -1.516  11.368  19.956  0.00  0.00    +0.000 C 
ATOM      7  C   UNL     1       1.310   8.782  20.387  0.00  0.00    +0.000 C 
ATOM      8  N   UNL     1       1.870   8.093  19.268  0.00  0.00    +0.000 N 
ATOM      9  C   UNL     1       2.000   8.971  18.208  0.00  0.00    +0.000 C 
ATOM     10  O   UNL     1       2.592   8.808  17.156  0.00  0.00    +0.000 OA
ATOM     11  O   UNL     1       1.299  10.135  18.486  0.00  0.00    +0.000 OA
ENDROOT
BRANCH   8  12
ATOM     12  C   UNL     1       2.432   6.792  19.411  0.00  0.00    +0.000 A 
ATOM     13  C   UNL     1       1.982   5.876  20.370  0.00  0.00    +0.000 A 
ATOM     14  C   UNL     1       2.475   4.559  20.393  0.00  0.00    +0.000 A 
ATOM     15  C   UNL     1       3.458   4.141  19.487  0.00  0.00    +0.000 A 
ATOM     16  C   UNL     1       3.965   5.062  18.570  0.00  0.00    +0.000 A 
ATOM     17  C   UNL     1       3.453   6.367  18.540  0.00  0.00    +0.000 A 
BRANCH  15  18
ATOM     18  C   UNL     1       3.842   2.703  19.471  0.00  0.00    +0.000 C 
ATOM     19  O   UNL     1       3.075   1.825  19.119  0.00  0.00    +0.000 OA
BRANCH  18  20
ATOM     20  O   UNL     1       5.109   2.451  19.869  0.00  0.00    +0.000 OA
ATOM     21  H   UNL     1       5.301   1.525  20.100  0.00  0.00    +0.000 HD
ENDBRANCH  18  20
ENDBRANCH  15  18
ENDBRANCH   8  12
BRANCH   1  22
ATOM     22  C   UNL     1      -1.204  11.996  22.353  0.00  0.00    +0.000 C 
BRANCH  22  27
ATOM     23  C   UNL     1      -5.874  14.784  23.309  0.00  0.00    +0.000 A 
ATOM     24  C   UNL     1      -5.763  13.607  22.569  0.00  0.00    +0.000 A 
ATOM     25  C   UNL     1      -4.524  12.953  22.396  0.00  0.00    +0.000 A 
ATOM     26  C   UNL     1      -3.348  13.493  22.984  0.00  0.00    +0.000 A 
ATOM     27  C   UNL     1      -1.942  13.146  23.018  0.00  0.00    +0.000 A 
ATOM     28  C   UNL     1      -1.322  14.158  23.742  0.00  0.00    +0.000 A 
ATOM     29  N   UNL     1      -2.260  15.052  24.156  0.00  0.00    +0.000 N 
ATOM     30  C   UNL     1      -2.008  16.283  24.875  0.00  0.00    +0.000 C 
ATOM     31  C   UNL     1      -3.508  14.668  23.722  0.00  0.00    +0.000 A 
ATOM     32  C   UNL     1      -4.743  15.303  23.927  0.00  0.00    +0.000 A 
BRANCH  23  34
ATOM     33  C   UNL     1      -7.142  16.782  23.433  0.00  0.00    +0.000 C 
ATOM     34  O   UNL     1      -7.120  15.351  23.407  0.00  0.00    +0.000 OA
ENDBRANCH  23  34
ENDBRANCH  22  27
ENDBRANCH   1  22
TORSDOF 6
ENDMDL
MODEL 6
REMARK VINA RESULT:      -7.6      2.440     10.141
REMARK  Name = 
REMARK  8 active torsions:
REMARK  status: ('A' for Active; 'I' for Inactive)
REMARK    1  A    between atoms: C_1  and  O_2
REMARK    2  A    between atoms: O_2  and  C_3
REMARK    3  A    between atoms: C_7  and  C_8
REMARK    4  A    between atoms: C_8  and  N_9
REMARK    5  A    between atoms: N_16  and  C_17
REMARK    6  A    between atoms: C_20  and  C_21
REMARK    7  A    between atoms: C_21  and  O_23
REMARK    8  A    between atoms: N_30  and  C_31
REMARK                            x       y       z     vdW  Elec       q    Type
REMARK                         _______ _______ _______ _____ _____    ______ ____
ROOT
ATOM      1  N   UNL     1       0.094  10.125  22.109  0.00  0.00    +0.000 NA
ATOM      2  C   UNL     1      -0.712   9.045  21.549  0.00  0.00    +0.000 C 
ATOM      3  C   UNL     1      -0.051   8.326  20.371  0.00  0.00    +0.000 C 
ATOM      4  C   UNL     1       1.415   7.908  20.599  0.00  0.00    +0.000 C 
ATOM      5  C   UNL     1       2.198   8.824  21.566  0.00  0.00    +0.000 C 
ATOM      6  C   UNL     1       1.363   9.586  22.595  0.00  0.00    +0.000 C 
ATOM      7  C   UNL     1       2.175   7.814  19.271  0.00  0.00    +0.000 C 
ATOM      8  N   UNL     1       2.742   6.502  19.240  0.00  0.00    +0.000 N 
ATOM      9  C   UNL     1       2.151   5.726  20.219  0.00  0.00    +0.000 C 
ATOM     10  O   UNL     1       2.237   4.522  20.388  0.00  0.00    +0.000 OA
ATOM     11  O   UNL     1       1.420   6.539  21.073  0.00  0.00    +0.000 OA
ENDROOT
BRANCH   8  12
ATOM     12  C   UNL     1       3.567   6.082  18.158  0.00  0.00    +0.000 A 
ATOM     13  C   UNL     1       4.394   6.965  17.452  0.00  0.00    +0.000 A 
ATOM     14  C   UNL     1       5.288   6.487  16.476  0.00  0.00    +0.000 A 
ATOM     15  C   UNL     1       5.344   5.124  16.155  0.00  0.00    +0.000 A 
ATOM     16  C   UNL     1       4.478   4.243  16.802  0.00  0.00    +0.000 A 
ATOM     17  C   UNL     1       3.605   4.724  17.788  0.00  0.00    +0.000 A 
BRANCH  15  18
ATOM     18  C   UNL     1       6.401   4.661  15.215  0.00  0.00    +0.000 C 
ATOM     19  O   UNL     1       7.392   5.324  14.968  0.00  0.00    +0.000 OA
BRANCH  18  20
ATOM     20  O   UNL     1       6.178   3.447  14.667  0.00  0.00    +0.000 OA
ATOM     21  H   UNL     1       6.918   2.817  14.724  0.00  0.00    +0.000 HD
ENDBRANCH  18  20
ENDBRANCH  15  18
ENDBRANCH   8  12
BRANCH   1  22
ATOM     22  C   UNL     1       0.172  11.343  21.281  0.00  0.00    +0.000 C 
BRANCH  22  27
ATOM     23  C   UNL     1      -3.328  11.132  17.013  0.00  0.00    +0.000 A 
ATOM     24  C   UNL     1      -2.061  10.551  17.059  0.00  0.00    +0.000 A 
ATOM     25  C   UNL     1      -1.244  10.642  18.207  0.00  0.00    +0.000 A 
ATOM     26  C   UNL     1      -1.707  11.339  19.355  0.00  0.00    +0.000 A 
ATOM     27  C   UNL     1      -1.182  11.661  20.667  0.00  0.00    +0.000 A 
ATOM     28  C   UNL     1      -2.158  12.436  21.283  0.00  0.00    +0.000 A 
ATOM     29  N   UNL     1      -3.222  12.567  20.445  0.00  0.00    +0.000 N 
ATOM     30  C   UNL     1      -4.409  13.359  20.690  0.00  0.00    +0.000 C 
ATOM     31  C   UNL     1      -2.984  11.898  19.266  0.00  0.00    +0.000 A 
ATOM     32  C   UNL     1      -3.815  11.781  18.141  0.00  0.00    +0.000 A 
BRANCH  23  34
ATOM     33  C   UNL     1      -3.325  10.413  14.755  0.00  0.00    +0.000 C 
ATOM     34  O   UNL     1      -4.039  11.001  15.846  0.00  0.00    +0.000 OA
ENDBRANCH  23  34
ENDBRANCH  22  27
ENDBRANCH   1  22
TORSDOF 6
ENDMDL
MODEL 7
REMARK VINA RESULT:      -7.6      3.526     10.060
REMARK  Name = 
REMARK  8 active torsions:
REMARK  status: ('A' for Active; 'I' for Inactive)
REMARK    1  A    between atoms: C_1  and  O_2
REMARK    2  A    between atoms: O_2  and  C_3
REMARK    3  A    between atoms: C_7  and  C_8
REMARK    4  A    between atoms: C_8  and  N_9
REMARK    5  A    between atoms: N_16  and  C_17
REMARK    6  A    between atoms: C_20  and  C_21
REMARK    7  A    between atoms: C_21  and  O_23
REMARK    8  A    between atoms: N_30  and  C_31
REMARK                            x       y       z     vdW  Elec       q    Type
REMARK                         _______ _______ _______ _____ _____    ______ ____
ROOT
ATOM      1  N   UNL     1      -0.577  12.480  19.709  0.00  0.00    +0.000 NA
ATOM      2  C   UNL     1      -1.376  11.261  19.633  0.00  0.00    +0.000 C 
ATOM      3  C   UNL     1      -0.648  10.086  18.976  0.00  0.00    +0.000 C 
ATOM      4  C   UNL     1       0.778   9.824  19.499  0.00  0.00    +0.000 C 
ATOM      5  C   UNL     1       1.514  11.083  20.008  0.00  0.00    +0.000 C 
ATOM      6  C   UNL     1       0.627  12.228  20.499  0.00  0.00    +0.000 C 
ATOM      7  C   UNL     1       1.639   9.136  18.433  0.00  0.00    +0.000 C 
ATOM      8  N   UNL     1       2.158   7.958  19.053  0.00  0.00    +0.000 N 
ATOM      9  C   UNL     1       1.460   7.713  20.221  0.00  0.00    +0.000 C 
ATOM     10  O   UNL     1       1.488   6.719  20.927  0.00  0.00    +0.000 OA
ATOM     11  O   UNL     1       0.694   8.822  20.542  0.00  0.00    +0.000 OA
ENDROOT
BRANCH   8  12
ATOM     12  C   UNL     1       3.052   7.093  18.359  0.00  0.00    +0.000 A 
ATOM     13  C   UNL     1       3.086   5.710  18.578  0.00  0.00    +0.000 A 
ATOM     14  C   UNL     1       3.892   4.877  17.781  0.00  0.00    +0.000 A 
ATOM     15  C   UNL     1       4.711   5.411  16.777  0.00  0.00    +0.000 A 
ATOM     16  C   UNL     1       4.737   6.793  16.594  0.00  0.00    +0.000 A 
ATOM     17  C   UNL     1       3.916   7.615  17.378  0.00  0.00    +0.000 A 
BRANCH  15  18
ATOM     18  C   UNL     1       5.436   4.470  15.880  0.00  0.00    +0.000 C 
ATOM     19  O   UNL     1       5.909   4.819  14.813  0.00  0.00    +0.000 OA
BRANCH  18  20
ATOM     20  O   UNL     1       5.535   3.206  16.346  0.00  0.00    +0.000 OA
ATOM     21  H   UNL     1       6.158   2.629  15.871  0.00  0.00    +0.000 HD
ENDBRANCH  18  20
ENDBRANCH  15  18
ENDBRANCH   8  12
BRANCH   1  22
ATOM     22  C   UNL     1      -0.388  13.186  18.428  0.00  0.00    +0.000 C 
BRANCH  22  27
ATOM     23  C   UNL     1       4.411  15.915  18.554  0.00  0.00    +0.000 A 
ATOM     24  C   UNL     1       4.243  14.576  18.204  0.00  0.00    +0.000 A 
ATOM     25  C   UNL     1       2.968  13.969  18.181  0.00  0.00    +0.000 A 
ATOM     26  C   UNL     1       1.816  14.726  18.521  0.00  0.00    +0.000 A 
ATOM     27  C   UNL     1       0.393  14.473  18.635  0.00  0.00    +0.000 A 
ATOM     28  C   UNL     1      -0.167  15.665  19.078  0.00  0.00    +0.000 A 
ATOM     29  N   UNL     1       0.812  16.602  19.203  0.00  0.00    +0.000 N 
ATOM     30  C   UNL     1       0.646  17.949  19.707  0.00  0.00    +0.000 C 
ATOM     31  C   UNL     1       2.031  16.065  18.859  0.00  0.00    +0.000 A 
ATOM     32  C   UNL     1       3.291  16.683  18.848  0.00  0.00    +0.000 A 
BRANCH  23  34
ATOM     33  C   UNL     1       6.723  15.443  18.330  0.00  0.00    +0.000 C 
ATOM     34  O   UNL     1       5.692  16.409  18.560  0.00  0.00    +0.000 OA
ENDBRANCH  23  34
ENDBRANCH  22  27
ENDBRANCH   1  22
TORSDOF 6
ENDMDL
MODEL 8
REMARK VINA RESULT:      -7.4      3.757      5.405
REMARK  Name = 
REMARK  8 active torsions:
REMARK  status: ('A' for Active; 'I' for Inactive)
REMARK    1  A    between atoms: C_1  and  O_2
REMARK    2  A    between atoms: O_2  and  C_3
REMARK    3  A    between atoms: C_7  and  C_8
REMARK    4  A    between atoms: C_8  and  N_9
REMARK    5  A    between atoms: N_16  and  C_17
REMARK    6  A    between atoms: C_20  and  C_21
REMARK    7  A    between atoms: C_21  and  O_23
REMARK    8  A    between atoms: N_30  and  C_31
REMARK                            x       y       z     vdW  Elec       q    Type
REMARK                         _______ _______ _______ _____ _____    ______ ____
ROOT
ATOM      1  N   UNL     1       1.110   9.888  18.390  0.00  0.00    +0.000 NA
ATOM      2  C   UNL     1      -0.313  10.201  18.310  0.00  0.00    +0.000 C 
ATOM      3  C   UNL     1      -0.829  11.034  19.486  0.00  0.00    +0.000 C 
ATOM      4  C   UNL     1       0.026  12.266  19.841  0.00  0.00    +0.000 C 
ATOM      5  C   UNL     1       1.530  12.116  19.520  0.00  0.00    +0.000 C 
ATOM      6  C   UNL     1       1.884  11.128  18.407  0.00  0.00    +0.000 C 
ATOM      7  C   UNL     1      -0.138  12.644  21.317  0.00  0.00    +0.000 C 
ATOM      8  N   UNL     1      -0.520  14.021  21.326  0.00  0.00    +0.000 N 
ATOM      9  C   UNL     1      -0.905  14.396  20.052  0.00  0.00    +0.000 C 
ATOM     10  O   UNL     1      -1.457  15.423  19.698  0.00  0.00    +0.000 OA
ATOM     11  O   UNL     1      -0.533  13.411  19.150  0.00  0.00    +0.000 OA
ENDROOT
BRANCH   8  12
ATOM     12  C   UNL     1      -0.711  14.725  22.550  0.00  0.00    +0.000 A 
ATOM     13  C   UNL     1      -1.628  14.311  23.523  0.00  0.00    +0.000 A 
ATOM     14  C   UNL     1      -1.694  14.959  24.770  0.00  0.00    +0.000 A 
ATOM     15  C   UNL     1      -0.874  16.059  25.055  0.00  0.00    +0.000 A 
ATOM     16  C   UNL     1      -0.004  16.525  24.069  0.00  0.00    +0.000 A 
ATOM     17  C   UNL     1       0.070  15.860  22.837  0.00  0.00    +0.000 A 
BRANCH  15  18
ATOM     18  C   UNL     1      -0.892  16.617  26.435  0.00  0.00    +0.000 C 
ATOM     19  O   UNL     1      -1.379  17.702  26.695  0.00  0.00    +0.000 OA
BRANCH  18  20
ATOM     20  O   UNL     1      -0.336  15.821  27.374  0.00  0.00    +0.000 OA
ATOM     21  H   UNL     1      -0.961  15.312  27.920  0.00  0.00    +0.000 HD
ENDBRANCH  18  20
ENDBRANCH  15  18
ENDBRANCH   8  12
BRANCH   1  22
ATOM     22  C   UNL     1       1.473   8.873  19.397  0.00  0.00    +0.000 C 
BRANCH  22  27
ATOM     23  C   UNL     1       3.367   3.685  19.397  0.00  0.00    +0.000 A 
ATOM     24  C   UNL     1       2.439   4.215  20.292  0.00  0.00    +0.000 A 
ATOM     25  C   UNL     1       1.998   5.553  20.199  0.00  0.00    +0.000 A 
ATOM     26  C   UNL     1       2.502   6.397  19.174  0.00  0.00    +0.000 A 
ATOM     27  C   UNL     1       2.323   7.778  18.773  0.00  0.00    +0.000 A 
ATOM     28  C   UNL     1       3.182   7.972  17.698  0.00  0.00    +0.000 A 
ATOM     29  N   UNL     1       3.827   6.806  17.422  0.00  0.00    +0.000 N 
ATOM     30  C   UNL     1       4.855   6.615  16.422  0.00  0.00    +0.000 C 
ATOM     31  C   UNL     1       3.424   5.822  18.296  0.00  0.00    +0.000 A 
ATOM     32  C   UNL     1       3.839   4.483  18.361  0.00  0.00    +0.000 A 
BRANCH  23  34
ATOM     33  C   UNL     1       3.525   1.514  18.459  0.00  0.00    +0.000 C 
ATOM     34  O   UNL     1       3.744   2.377  19.579  0.00  0.00    +0.000 OA
ENDBRANCH  23  34
ENDBRANCH  22  27
ENDBRANCH   1  22
TORSDOF 6
ENDMDL
MODEL 9
REMARK VINA RESULT:      -7.4      3.901      9.950
REMARK  Name = 
REMARK  8 active torsions:
REMARK  status: ('A' for Active; 'I' for Inactive)
REMARK    1  A    between atoms: C_1  and  O_2
REMARK    2  A    between atoms: O_2  and  C_3
REMARK    3  A    between atoms: C_7  and  C_8
REMARK    4  A    between atoms: C_8  and  N_9
REMARK    5  A    between atoms: N_16  and  C_17
REMARK    6  A    between atoms: C_20  and  C_21
REMARK    7  A    between atoms: C_21  and  O_23
REMARK    8  A    between atoms: N_30  and  C_31
REMARK                            x       y       z     vdW  Elec       q    Type
REMARK                         _______ _______ _______ _____ _____    ______ ____
ROOT
ATOM      1  N   UNL     1      -0.509  13.406  19.978  0.00  0.00    +0.000 NA
ATOM      2  C   UNL     1      -1.470  12.311  19.889  0.00  0.00    +0.000 C 
ATOM      3  C   UNL     1      -0.879  11.016  19.327  0.00  0.00    +0.000 C 
ATOM      4  C   UNL     1       0.457  10.578  19.959  0.00  0.00    +0.000 C 
ATOM      5  C   UNL     1       1.333  11.741  20.474  0.00  0.00    +0.000 C 
ATOM      6  C   UNL     1       0.592  13.022  20.859  0.00  0.00    +0.000 C 
ATOM      7  C   UNL     1       1.276   9.726  18.982  0.00  0.00    +0.000 C 
ATOM      8  N   UNL     1       1.576   8.515  19.679  0.00  0.00    +0.000 N 
ATOM      9  C   UNL     1       0.776   8.426  20.803  0.00  0.00    +0.000 C 
ATOM     10  O   UNL     1       0.613   7.471  21.544  0.00  0.00    +0.000 OA
ATOM     11  O   UNL     1       0.160   9.647  21.029  0.00  0.00    +0.000 OA
ENDROOT
BRANCH   8  12
ATOM     12  C   UNL     1       2.378   7.501  19.082  0.00  0.00    +0.000 A 
ATOM     13  C   UNL     1       3.153   7.728  17.937  0.00  0.00    +0.000 A 
ATOM     14  C   UNL     1       4.029   6.738  17.455  0.00  0.00    +0.000 A 
ATOM     15  C   UNL     1       4.118   5.487  18.081  0.00  0.00    +0.000 A 
ATOM     16  C   UNL     1       3.302   5.224  19.181  0.00  0.00    +0.000 A 
ATOM     17  C   UNL     1       2.448   6.223  19.668  0.00  0.00    +0.000 A 
BRANCH  15  18
ATOM     18  C   UNL     1       5.157   4.533  17.609  0.00  0.00    +0.000 C 
ATOM     19  O   UNL     1       5.213   4.144  16.456  0.00  0.00    +0.000 OA
BRANCH  18  20
ATOM     20  O   UNL     1       6.038   4.140  18.556  0.00  0.00    +0.000 OA
ATOM     21  H   UNL     1       6.728   3.522  18.259  0.00  0.00    +0.000 HD
ENDBRANCH  18  20
ENDBRANCH  15  18
ENDBRANCH   8  12
BRANCH   1  22
ATOM     22  C   UNL     1      -0.136  14.019  18.689  0.00  0.00    +0.000 C 
BRANCH  22  27
ATOM     23  C   UNL     1       5.067  15.865  18.544  0.00  0.00    +0.000 A 
ATOM     24  C   UNL     1       4.637  14.603  18.136  0.00  0.00    +0.000 A 
ATOM     25  C   UNL     1       3.277  14.228  18.192  0.00  0.00    +0.000 A 
ATOM     26  C   UNL     1       2.306  15.146  18.673  0.00  0.00    +0.000 A 
ATOM     27  C   UNL     1       0.875  15.135  18.897  0.00  0.00    +0.000 A 
ATOM     28  C   UNL     1       0.571  16.372  19.453  0.00  0.00    +0.000 A 
ATOM     29  N   UNL     1       1.707  17.114  19.544  0.00  0.00    +0.000 N 
ATOM     30  C   UNL     1       1.822  18.431  20.134  0.00  0.00    +0.000 C 
ATOM     31  C   UNL     1       2.782  16.401  19.064  0.00  0.00    +0.000 A 
ATOM     32  C   UNL     1       4.127  16.792  18.978  0.00  0.00    +0.000 A 
BRANCH  23  34
ATOM     33  C   UNL     1       7.238  15.376  19.358  0.00  0.00    +0.000 C 
ATOM     34  O   UNL     1       6.412  16.128  18.465  0.00  0.00    +0.000 OA
ENDBRANCH  23  34
ENDBRANCH  22  27
ENDBRANCH   1  22
TORSDOF 6
ENDMDL
