MODEL 1
REMARK VINA RESULT:      -8.9      0.000      0.000
REMARK  Name = 
REMARK  6 active torsions:
REMARK  status: ('A' for Active; 'I' for Inactive)
REMARK    1  A    between atoms: C_1  and  C_2
REMARK    2  A    between atoms: C_4  and  N_5
REMARK    3  A    between atoms: N_5  and  C_6
REMARK    4  A    between atoms: C_17  and  N_18
REMARK    5  A    between atoms: C_19  and  C_21
REMARK    6  A    between atoms: C_21  and  C_22
REMARK                            x       y       z     vdW  Elec       q    Type
REMARK                         _______ _______ _______ _____ _____    ______ ____
ROOT
ATOM      1  C   UNL     1       0.064   9.408  23.010  0.00  0.00    +0.000 C 
ATOM      2  C   UNL     1      -0.098   9.984  21.630  0.00  0.00    +0.000 A 
ATOM      3  C   UNL     1      -0.953  11.076  21.454  0.00  0.00    +0.000 A 
ATOM      4  C   UNL     1      -1.143  11.608  20.184  0.00  0.00    +0.000 A 
ATOM      5  N   UNL     1      -0.497  11.103  19.113  0.00  0.00    +0.000 NA
ATOM      6  C   UNL     1       0.342  10.061  19.267  0.00  0.00    +0.000 A 
ATOM      7  C   UNL     1       1.008   9.561  18.155  0.00  0.00    +0.000 A 
ATOM      8  C   UNL     1       1.868   8.457  18.232  0.00  0.00    +0.000 A 
ATOM      9  C   UNL     1       2.078   7.815  19.448  0.00  0.00    +0.000 A 
ATOM     10  C   UNL     1       1.444   8.325  20.581  0.00  0.00    +0.000 A 
ATOM     11  C   UNL     1       0.572   9.447  20.513  0.00  0.00    +0.000 A 
ENDROOT
BRANCH   9  12
ATOM     12  N   UNL     1       2.901   6.674  19.602  0.00  0.00    +0.000 N 
ATOM     13  C   UNL     1       2.476   5.408  19.975  0.00  0.00    +0.000 C 
ATOM     14  O   UNL     1       1.322   5.093  20.268  0.00  0.00    +0.000 OA
ATOM     15  H   UNL     1       3.901   6.828  19.559  0.00  0.00    +0.000 HD
BRANCH  13  16
ATOM     16  C   UNL     1       3.588   4.371  20.029  0.00  0.00    +0.000 C 
BRANCH  16  17
ATOM     17  C   UNL     1       4.485   4.362  18.812  0.00  0.00    +0.000 A 
ATOM     18  C   UNL     1       3.983   4.001  17.551  0.00  0.00    +0.000 A 
ATOM     19  C   UNL     1       4.795   4.064  16.415  0.00  0.00    +0.000 A 
ATOM     20  C   UNL     1       6.112   4.500  16.530  0.00  0.00    +0.000 A 
ATOM     21 CL   UNL     1       7.107   4.609  15.129  0.00  0.00    +0.000 Cl
ATOM     22  C   UNL     1       6.627   4.860  17.773  0.00  0.00    +0.000 A 
ATOM     23  C   UNL     1       5.816   4.791  18.911  0.00  0.00    +0.000 A 
ENDBRANCH  16  17
ENDBRANCH  13  16
ENDBRANCH   9  12
BRANCH   4  24
ATOM     24  N   UNL     1      -2.070  12.667  20.048  0.00  0.00    +0.000 N 
ATOM     25  H   UNL     1      -1.766  13.340  19.357  0.00  0.00    +0.000 HD
BRANCH  24  26
ATOM     26  C   UNL     1      -3.467  12.559  20.190  0.00  0.00    +0.000 A 
ATOM     27  C   UNL     1      -4.089  12.933  21.390  0.00  0.00    +0.000 A 
ATOM     28  C   UNL     1      -5.467  12.802  21.563  0.00  0.00    +0.000 A 
ATOM     29  C   UNL     1      -6.246  12.291  20.531  0.00  0.00    +0.000 A 
ATOM     30  C   UNL     1      -5.642  11.934  19.326  0.00  0.00    +0.000 A 
ATOM     31 CL   UNL     1      -6.609  11.292  18.054  0.00  0.00    +0.000 Cl
ATOM     32  C   UNL     1      -4.263  12.077  19.146  0.00  0.00    +0.000 A 
ENDBRANCH  24  26
ENDBRANCH   4  24
TORSDOF 5
ENDMDL
MODEL 2
REMARK VINA RESULT:      -8.8      7.855     10.003
REMARK  Name = 
REMARK  6 active torsions:
REMARK  status: ('A' for Active; 'I' for Inactive)
REMARK    1  A    between atoms: C_1  and  C_2
REMARK    2  A    between atoms: C_4  and  N_5
REMARK    3  A    between atoms: N_5  and  C_6
REMARK    4  A    between atoms: C_17  and  N_18
REMARK    5  A    between atoms: C_19  and  C_21
REMARK    6  A    between atoms: C_21  and  C_22
REMARK                            x       y       z     vdW  Elec       q    Type
REMARK                         _______ _______ _______ _____ _____    ______ ____
ROOT
ATOM      1  C   UNL     1       4.883   6.743  15.353  0.00  0.00    +0.000 C 
ATOM      2  C   UNL     1       5.405   5.968  16.532  0.00  0.00    +0.000 A 
ATOM      3  C   UNL     1       4.832   4.729  16.829  0.00  0.00    +0.000 A 
ATOM      4  C   UNL     1       5.276   4.007  17.931  0.00  0.00    +0.000 A 
ATOM      5  N   UNL     1       6.272   4.472  18.713  0.00  0.00    +0.000 NA
ATOM      6  C   UNL     1       6.846   5.658  18.432  0.00  0.00    +0.000 A 
ATOM      7  C   UNL     1       7.878   6.116  19.241  0.00  0.00    +0.000 A 
ATOM      8  C   UNL     1       8.499   7.355  19.032  0.00  0.00    +0.000 A 
ATOM      9  C   UNL     1       8.085   8.180  17.991  0.00  0.00    +0.000 A 
ATOM     10  C   UNL     1       7.073   7.720  17.148  0.00  0.00    +0.000 A 
ATOM     11  C   UNL     1       6.440   6.463  17.351  0.00  0.00    +0.000 A 
ENDROOT
BRANCH   9  12
ATOM     12  N   UNL     1       8.634   9.459  17.737  0.00  0.00    +0.000 N 
ATOM     13  C   UNL     1       9.151  10.327  18.686  0.00  0.00    +0.000 C 
ATOM     14  O   UNL     1       9.174  10.134  19.902  0.00  0.00    +0.000 OA
ATOM     15  H   UNL     1       8.524   9.819  16.797  0.00  0.00    +0.000 HD
BRANCH  13  16
ATOM     16  C   UNL     1       9.700  11.623  18.108  0.00  0.00    +0.000 C 
BRANCH  16  17
ATOM     17  C   UNL     1       8.799  12.820  18.308  0.00  0.00    +0.000 A 
ATOM     18  C   UNL     1       7.808  13.141  17.366  0.00  0.00    +0.000 A 
ATOM     19  C   UNL     1       6.928  14.204  17.588  0.00  0.00    +0.000 A 
ATOM     20  C   UNL     1       7.025  14.947  18.762  0.00  0.00    +0.000 A 
ATOM     21 CL   UNL     1       5.924  16.237  19.055  0.00  0.00    +0.000 Cl
ATOM     22  C   UNL     1       8.002  14.644  19.707  0.00  0.00    +0.000 A 
ATOM     23  C   UNL     1       8.886  13.584  19.481  0.00  0.00    +0.000 A 
ENDBRANCH  16  17
ENDBRANCH  13  16
ENDBRANCH   9  12
BRANCH   4  24
ATOM     24  N   UNL     1       4.617   2.792  18.229  0.00  0.00    +0.000 N 
ATOM     25  H   UNL     1       5.267   2.086  18.548  0.00  0.00    +0.000 HD
BRANCH  24  26
ATOM     26  C   UNL     1       3.313   2.671  18.747  0.00  0.00    +0.000 A 
ATOM     27  C   UNL     1       2.216   2.537  17.884  0.00  0.00    +0.000 A 
ATOM     28  C   UNL     1       0.914   2.449  18.376  0.00  0.00    +0.000 A 
ATOM     29  C   UNL     1       0.690   2.494  19.747  0.00  0.00    +0.000 A 
ATOM     30  C   UNL     1       1.774   2.606  20.617  0.00  0.00    +0.000 A 
ATOM     31 CL   UNL     1       1.492   2.673  22.315  0.00  0.00    +0.000 Cl
ATOM     32  C   UNL     1       3.081   2.682  20.127  0.00  0.00    +0.000 A 
ENDBRANCH  24  26
ENDBRANCH   4  24
TORSDOF 5
ENDMDL
MODEL 3
REMARK VINA RESULT:      -8.7      2.966     10.298
REMARK  Name = 
REMARK  6 active torsions:
REMARK  status: ('A' for Active; 'I' for Inactive)
REMARK    1  A    between atoms: C_1  and  C_2
REMARK    2  A    between atoms: C_4  and  N_5
REMARK    3  A    between atoms: N_5  and  C_6
REMARK    4  A    between atoms: C_17  and  N_18
REMARK    5  A    between atoms: C_19  and  C_21
REMARK    6  A    between atoms: C_21  and  C_22
REMARK                            x       y       z     vdW  Elec       q    Type
REMARK                         _______ _______ _______ _____ _____    ______ ____
ROOT
ATOM      1  C   UNL     1       2.161   3.663  21.574  0.00  0.00    +0.000 C 
ATOM      2  C   UNL     1       2.757   4.368  20.387  0.00  0.00    +0.000 A 
ATOM      3  C   UNL     1       3.685   3.685  19.595  0.00  0.00    +0.000 A 
ATOM      4  C   UNL     1       4.272   4.325  18.510  0.00  0.00    +0.000 A 
ATOM      5  N   UNL     1       3.946   5.594  18.189  0.00  0.00    +0.000 NA
ATOM      6  C   UNL     1       3.043   6.262  18.932  0.00  0.00    +0.000 A 
ATOM      7  C   UNL     1       2.711   7.564  18.581  0.00  0.00    +0.000 A 
ATOM      8  C   UNL     1       1.807   8.332  19.326  0.00  0.00    +0.000 A 
ATOM      9  C   UNL     1       1.210   7.804  20.466  0.00  0.00    +0.000 A 
ATOM     10  C   UNL     1       1.507   6.485  20.814  0.00  0.00    +0.000 A 
ATOM     11  C   UNL     1       2.420   5.697  20.062  0.00  0.00    +0.000 A 
ENDROOT
BRANCH   9  12
ATOM     12  N   UNL     1       0.317   8.526  21.292  0.00  0.00    +0.000 N 
ATOM     13  C   UNL     1       0.670   9.341  22.357  0.00  0.00    +0.000 C 
ATOM     14  O   UNL     1       1.815   9.529  22.771  0.00  0.00    +0.000 OA
ATOM     15  H   UNL     1      -0.669   8.329  21.173  0.00  0.00    +0.000 HD
BRANCH  13  16
ATOM     16  C   UNL     1      -0.510  10.012  23.043  0.00  0.00    +0.000 C 
BRANCH  16  17
ATOM     17  C   UNL     1      -0.804  11.408  22.542  0.00  0.00    +0.000 A 
ATOM     18  C   UNL     1      -1.755  12.218  23.184  0.00  0.00    +0.000 A 
ATOM     19  C   UNL     1      -1.972  13.534  22.764  0.00  0.00    +0.000 A 
ATOM     20  C   UNL     1      -1.232  14.053  21.706  0.00  0.00    +0.000 A 
ATOM     21 CL   UNL     1      -1.474  15.682  21.206  0.00  0.00    +0.000 Cl
ATOM     22  C   UNL     1      -0.285  13.263  21.056  0.00  0.00    +0.000 A 
ATOM     23  C   UNL     1      -0.072  11.945  21.472  0.00  0.00    +0.000 A 
ENDBRANCH  16  17
ENDBRANCH  13  16
ENDBRANCH   9  12
BRANCH   4  24
ATOM     24  N   UNL     1       5.255   3.615  17.783  0.00  0.00    +0.000 N 
ATOM     25  H   UNL     1       5.133   2.615  17.872  0.00  0.00    +0.000 HD
BRANCH  24  26
ATOM     26  C   UNL     1       5.841   4.030  16.571  0.00  0.00    +0.000 A 
ATOM     27  C   UNL     1       6.957   4.880  16.577  0.00  0.00    +0.000 A 
ATOM     28  C   UNL     1       7.531   5.331  15.389  0.00  0.00    +0.000 A 
ATOM     29  C   UNL     1       6.993   4.934  14.170  0.00  0.00    +0.000 A 
ATOM     30  C   UNL     1       5.896   4.073  14.149  0.00  0.00    +0.000 A 
ATOM     31 CL   UNL     1       5.225   3.594  12.638  0.00  0.00    +0.000 Cl
ATOM     32  C   UNL     1       5.327   3.611  15.340  0.00  0.00    +0.000 A 
ENDBRANCH  24  26
ENDBRANCH   4  24
TORSDOF 5
ENDMDL
MODEL 4
REMARK VINA RESULT:      -8.5      1.133      1.430
REMARK  Name = 
REMARK  6 active torsions:
REMARK  status: ('A' for Active; 'I' for Inactive)
REMARK    1  A    between atoms: C_1  and  C_2
REMARK    2  A    between atoms: C_4  and  N_5
REMARK    3  A    between atoms: N_5  and  C_6
REMARK    4  A    between atoms: C_17  and  N_18
REMARK    5  A    between atoms: C_19  and  C_21
REMARK    6  A    between atoms: C_21  and  C_22
REMARK                            x       y       z     vdW  Elec       q    Type
REMARK                         _______ _______ _______ _____ _____    ______ ____
ROOT
ATOM      1  C   UNL     1      -0.006   9.509  23.028  0.00  0.00    +0.000 C 
ATOM      2  C   UNL     1      -0.138  10.078  21.642  0.00  0.00    +0.000 A 
ATOM      3  C   UNL     1      -0.963  11.189  21.445  0.00  0.00    +0.000 A 
ATOM      4  C   UNL     1      -1.124  11.715  20.169  0.00  0.00    +0.000 A 
ATOM      5  N   UNL     1      -0.478  11.185  19.110  0.00  0.00    +0.000 NA
ATOM      6  C   UNL     1       0.332  10.122  19.283  0.00  0.00    +0.000 A 
ATOM      7  C   UNL     1       0.998   9.597  18.184  0.00  0.00    +0.000 A 
ATOM      8  C   UNL     1       1.830   8.473  18.280  0.00  0.00    +0.000 A 
ATOM      9  C   UNL     1       2.010   7.836  19.503  0.00  0.00    +0.000 A 
ATOM     10  C   UNL     1       1.375   8.372  20.625  0.00  0.00    +0.000 A 
ATOM     11  C   UNL     1       0.532   9.514  20.537  0.00  0.00    +0.000 A 
ENDROOT
BRANCH   9  12
ATOM     12  N   UNL     1       2.801   6.676  19.678  0.00  0.00    +0.000 N 
ATOM     13  C   UNL     1       2.347   5.435  20.096  0.00  0.00    +0.000 C 
ATOM     14  O   UNL     1       1.190   5.163  20.420  0.00  0.00    +0.000 OA
ATOM     15  H   UNL     1       3.804   6.799  19.611  0.00  0.00    +0.000 HD
BRANCH  13  16
ATOM     16  C   UNL     1       3.429   4.368  20.161  0.00  0.00    +0.000 C 
BRANCH  16  17
ATOM     17  C   UNL     1       4.365   4.362  18.973  0.00  0.00    +0.000 A 
ATOM     18  C   UNL     1       3.915   3.961  17.704  0.00  0.00    +0.000 A 
ATOM     19  C   UNL     1       4.761   4.027  16.594  0.00  0.00    +0.000 A 
ATOM     20  C   UNL     1       6.060   4.505  16.741  0.00  0.00    +0.000 A 
ATOM     21 CL   UNL     1       7.095   4.617  15.371  0.00  0.00    +0.000 Cl
ATOM     22  C   UNL     1       6.524   4.906  17.993  0.00  0.00    +0.000 A 
ATOM     23  C   UNL     1       5.679   4.835  19.105  0.00  0.00    +0.000 A 
ENDBRANCH  16  17
ENDBRANCH  13  16
ENDBRANCH   9  12
BRANCH   4  24
ATOM     24  N   UNL     1      -2.023  12.795  20.013  0.00  0.00    +0.000 N 
ATOM     25  H   UNL     1      -1.795  13.353  19.201  0.00  0.00    +0.000 HD
BRANCH  24  26
ATOM     26  C   UNL     1      -3.389  12.783  20.356  0.00  0.00    +0.000 A 
ATOM     27  C   UNL     1      -4.333  12.211  19.490  0.00  0.00    +0.000 A 
ATOM     28  C   UNL     1      -5.693  12.219  19.794  0.00  0.00    +0.000 A 
ATOM     29  C   UNL     1      -6.132  12.803  20.977  0.00  0.00    +0.000 A 
ATOM     30  C   UNL     1      -5.202  13.357  21.856  0.00  0.00    +0.000 A 
ATOM     31 CL   UNL     1      -5.751  14.090  23.315  0.00  0.00    +0.000 Cl
ATOM     32  C   UNL     1      -3.836  13.339  21.559  0.00  0.00    +0.000 A 
ENDBRANCH  24  26
ENDBRANCH   4  24
TORSDOF 5
ENDMDL
MODEL 5
REMARK VINA RESULT:      -8.5      1.031      1.249
REMARK  Name = 
REMARK  6 active torsions:
REMARK  status: ('A' for Active; 'I' for Inactive)
REMARK    1  A    between atoms: C_1  and  C_2
REMARK    2  A    between atoms: C_4  and  N_5
REMARK    3  A    between atoms: N_5  and  C_6
REMARK    4  A    between atoms: C_17  and  N_18
REMARK    5  A    between atoms: C_19  and  C_21
REMARK    6  A    between atoms: C_21  and  C_22
REMARK                            x       y       z     vdW  Elec       q    Type
REMARK                         _______ _______ _______ _____ _____    ______ ____
ROOT
ATOM      1  C   UNL     1       0.768   9.105  22.837  0.00  0.00    +0.000 C 
ATOM      2  C   UNL     1       0.405   9.660  21.487  0.00  0.00    +0.000 A 
ATOM      3  C   UNL     1      -0.526  10.700  21.415  0.00  0.00    +0.000 A 
ATOM      4  C   UNL     1      -0.900  11.210  20.178  0.00  0.00    +0.000 A 
ATOM      5  N   UNL     1      -0.362  10.734  19.036  0.00  0.00    +0.000 NA
ATOM      6  C   UNL     1       0.548   9.742  19.088  0.00  0.00    +0.000 A 
ATOM      7  C   UNL     1       1.100   9.272  17.903  0.00  0.00    +0.000 A 
ATOM      8  C   UNL     1       2.026   8.220  17.875  0.00  0.00    +0.000 A 
ATOM      9  C   UNL     1       2.420   7.601  19.056  0.00  0.00    +0.000 A 
ATOM     10  C   UNL     1       1.900   8.083  20.259  0.00  0.00    +0.000 A 
ATOM     11  C   UNL     1       0.964   9.152  20.297  0.00  0.00    +0.000 A 
ENDROOT
BRANCH   9  12
ATOM     12  N   UNL     1       3.319   6.510  19.110  0.00  0.00    +0.000 N 
ATOM     13  C   UNL     1       2.977   5.181  19.307  0.00  0.00    +0.000 C 
ATOM     14  O   UNL     1       1.839   4.752  19.507  0.00  0.00    +0.000 OA
ATOM     15  H   UNL     1       4.306   6.738  19.132  0.00  0.00    +0.000 HD
BRANCH  13  16
ATOM     16  C   UNL     1       4.161   4.226  19.287  0.00  0.00    +0.000 C 
BRANCH  16  17
ATOM     17  C   UNL     1       4.996   4.302  18.029  0.00  0.00    +0.000 A 
ATOM     18  C   UNL     1       4.411   4.117  16.765  0.00  0.00    +0.000 A 
ATOM     19  C   UNL     1       5.171   4.260  15.600  0.00  0.00    +0.000 A 
ATOM     20  C   UNL     1       6.517   4.601  15.690  0.00  0.00    +0.000 A 
ATOM     21 CL   UNL     1       7.448   4.809  14.258  0.00  0.00    +0.000 Cl
ATOM     22  C   UNL     1       7.114   4.787  16.936  0.00  0.00    +0.000 A 
ATOM     23  C   UNL     1       6.356   4.638  18.101  0.00  0.00    +0.000 A 
ENDBRANCH  16  17
ENDBRANCH  13  16
ENDBRANCH   9  12
BRANCH   4  24
ATOM     24  N   UNL     1      -1.896  12.213  20.156  0.00  0.00    +0.000 N 
ATOM     25  H   UNL     1      -1.496  13.136  20.260  0.00  0.00    +0.000 HD
BRANCH  24  26
ATOM     26  C   UNL     1      -3.090  12.169  19.409  0.00  0.00    +0.000 A 
ATOM     27  C   UNL     1      -4.286  12.658  19.954  0.00  0.00    +0.000 A 
ATOM     28  C   UNL     1      -5.485  12.593  19.245  0.00  0.00    +0.000 A 
ATOM     29  C   UNL     1      -5.503  12.035  17.971  0.00  0.00    +0.000 A 
ATOM     30  C   UNL     1      -4.317  11.564  17.410  0.00  0.00    +0.000 A 
ATOM     31 CL   UNL     1      -4.346  10.862  15.838  0.00  0.00    +0.000 Cl
ATOM     32  C   UNL     1      -3.112  11.639  18.115  0.00  0.00    +0.000 A 
ENDBRANCH  24  26
ENDBRANCH   4  24
TORSDOF 5
ENDMDL
MODEL 6
REMARK VINA RESULT:      -8.5      2.856     10.554
REMARK  Name = 
REMARK  6 active torsions:
REMARK  status: ('A' for Active; 'I' for Inactive)
REMARK    1  A    between atoms: C_1  and  C_2
REMARK    2  A    between atoms: C_4  and  N_5
REMARK    3  A    between atoms: N_5  and  C_6
REMARK    4  A    between atoms: C_17  and  N_18
REMARK    5  A    between atoms: C_19  and  C_21
REMARK    6  A    between atoms: C_21  and  C_22
REMARK                            x       y       z     vdW  Elec       q    Type
REMARK                         _______ _______ _______ _____ _____    ______ ____
ROOT
ATOM      1  C   UNL     1       2.035   3.785  21.409  0.00  0.00    +0.000 C 
ATOM      2  C   UNL     1       2.405   4.488  20.132  0.00  0.00    +0.000 A 
ATOM      3  C   UNL     1       2.997   3.749  19.103  0.00  0.00    +0.000 A 
ATOM      4  C   UNL     1       3.375   4.381  17.925  0.00  0.00    +0.000 A 
ATOM      5  N   UNL     1       3.161   5.700  17.742  0.00  0.00    +0.000 NA
ATOM      6  C   UNL     1       2.578   6.425  18.717  0.00  0.00    +0.000 A 
ATOM      7  C   UNL     1       2.355   7.780  18.507  0.00  0.00    +0.000 A 
ATOM      8  C   UNL     1       1.786   8.605  19.487  0.00  0.00    +0.000 A 
ATOM      9  C   UNL     1       1.429   8.080  20.725  0.00  0.00    +0.000 A 
ATOM     10  C   UNL     1       1.615   6.714  20.940  0.00  0.00    +0.000 A 
ATOM     11  C   UNL     1       2.188   5.869  19.950  0.00  0.00    +0.000 A 
ENDROOT
BRANCH   9  12
ATOM     12  N   UNL     1       0.884   8.851  21.778  0.00  0.00    +0.000 N 
ATOM     13  C   UNL     1      -0.206   9.702  21.686  0.00  0.00    +0.000 C 
ATOM     14  O   UNL     1      -0.843   9.948  20.660  0.00  0.00    +0.000 OA
ATOM     15  H   UNL     1       1.415   8.878  22.640  0.00  0.00    +0.000 HD
BRANCH  13  16
ATOM     16  C   UNL     1      -0.580  10.377  22.997  0.00  0.00    +0.000 C 
BRANCH  16  17
ATOM     17  C   UNL     1      -1.266  11.715  22.830  0.00  0.00    +0.000 A 
ATOM     18  C   UNL     1      -2.596  11.898  23.243  0.00  0.00    +0.000 A 
ATOM     19  C   UNL     1      -3.203  13.154  23.155  0.00  0.00    +0.000 A 
ATOM     20  C   UNL     1      -2.481  14.239  22.666  0.00  0.00    +0.000 A 
ATOM     21 CL   UNL     1      -3.215  15.794  22.586  0.00  0.00    +0.000 Cl
ATOM     22  C   UNL     1      -1.161  14.075  22.251  0.00  0.00    +0.000 A 
ATOM     23  C   UNL     1      -0.556  12.817  22.333  0.00  0.00    +0.000 A 
ENDBRANCH  16  17
ENDBRANCH  13  16
ENDBRANCH   9  12
BRANCH   4  24
ATOM     24  N   UNL     1       4.032   3.603  16.944  0.00  0.00    +0.000 N 
ATOM     25  H   UNL     1       3.387   2.989  16.464  0.00  0.00    +0.000 HD
BRANCH  24  26
ATOM     26  C   UNL     1       5.138   4.013  16.176  0.00  0.00    +0.000 A 
ATOM     27  C   UNL     1       6.151   4.796  16.750  0.00  0.00    +0.000 A 
ATOM     28  C   UNL     1       7.237   5.241  15.999  0.00  0.00    +0.000 A 
ATOM     29  C   UNL     1       7.326   4.907  14.652  0.00  0.00    +0.000 A 
ATOM     30  C   UNL     1       6.337   4.113  14.073  0.00  0.00    +0.000 A 
ATOM     31 CL   UNL     1       6.445   3.712  12.402  0.00  0.00    +0.000 Cl
ATOM     32  C   UNL     1       5.254   3.655  14.828  0.00  0.00    +0.000 A 
ENDBRANCH  24  26
ENDBRANCH   4  24
TORSDOF 5
ENDMDL
MODEL 7
REMARK VINA RESULT:      -8.4      1.434      1.908
REMARK  Name = 
REMARK  6 active torsions:
REMARK  status: ('A' for Active; 'I' for Inactive)
REMARK    1  A    between atoms: C_1  and  C_2
REMARK    2  A    between atoms: C_4  and  N_5
REMARK    3  A    between atoms: N_5  and  C_6
REMARK    4  A    between atoms: C_17  and  N_18
REMARK    5  A    between atoms: C_19  and  C_21
REMARK    6  A    between atoms: C_21  and  C_22
REMARK                            x       y       z     vdW  Elec       q    Type
REMARK                         _______ _______ _______ _____ _____    ______ ____
ROOT
ATOM      1  C   UNL     1       0.227   9.334  23.230  0.00  0.00    +0.000 C 
ATOM      2  C   UNL     1       0.018   9.970  21.884  0.00  0.00    +0.000 A 
ATOM      3  C   UNL     1      -0.814  11.090  21.790  0.00  0.00    +0.000 A 
ATOM      4  C   UNL     1      -1.046  11.677  20.552  0.00  0.00    +0.000 A 
ATOM      5  N   UNL     1      -0.464  11.200  19.433  0.00  0.00    +0.000 NA
ATOM      6  C   UNL     1       0.352  10.130  19.508  0.00  0.00    +0.000 A 
ATOM      7  C   UNL     1       0.952   9.659  18.347  0.00  0.00    +0.000 A 
ATOM      8  C   UNL     1       1.785   8.531  18.340  0.00  0.00    +0.000 A 
ATOM      9  C   UNL     1       2.032   7.835  19.519  0.00  0.00    +0.000 A 
ATOM     10  C   UNL     1       1.464   8.316  20.700  0.00  0.00    +0.000 A 
ATOM     11  C   UNL     1       0.622   9.461  20.716  0.00  0.00    +0.000 A 
ENDROOT
BRANCH   9  12
ATOM     12  N   UNL     1       2.829   6.668  19.590  0.00  0.00    +0.000 N 
ATOM     13  C   UNL     1       2.407   5.418  20.016  0.00  0.00    +0.000 C 
ATOM     14  O   UNL     1       1.282   5.143  20.436  0.00  0.00    +0.000 OA
ATOM     15  H   UNL     1       3.823   6.789  19.437  0.00  0.00    +0.000 HD
BRANCH  13  16
ATOM     16  C   UNL     1       3.483   4.345  19.955  0.00  0.00    +0.000 C 
BRANCH  16  17
ATOM     17  C   UNL     1       4.387   4.444  18.747  0.00  0.00    +0.000 A 
ATOM     18  C   UNL     1       5.746   4.770  18.889  0.00  0.00    +0.000 A 
ATOM     19  C   UNL     1       6.595   4.789  17.779  0.00  0.00    +0.000 A 
ATOM     20  C   UNL     1       6.094   4.469  16.520  0.00  0.00    +0.000 A 
ATOM     21 CL   UNL     1       7.143   4.459  15.155  0.00  0.00    +0.000 Cl
ATOM     22  C   UNL     1       4.749   4.143  16.360  0.00  0.00    +0.000 A 
ATOM     23  C   UNL     1       3.898   4.131  17.470  0.00  0.00    +0.000 A 
ENDBRANCH  16  17
ENDBRANCH  13  16
ENDBRANCH   9  12
BRANCH   4  24
ATOM     24  N   UNL     1      -1.949  12.764  20.501  0.00  0.00    +0.000 N 
ATOM     25  H   UNL     1      -1.893  13.252  19.617  0.00  0.00    +0.000 HD
BRANCH  24  26
ATOM     26  C   UNL     1      -3.213  12.812  21.121  0.00  0.00    +0.000 A 
ATOM     27  C   UNL     1      -4.361  13.105  20.370  0.00  0.00    +0.000 A 
ATOM     28  C   UNL     1      -5.617  13.191  20.970  0.00  0.00    +0.000 A 
ATOM     29  C   UNL     1      -5.742  12.983  22.339  0.00  0.00    +0.000 A 
ATOM     30  C   UNL     1      -4.612  12.672  23.094  0.00  0.00    +0.000 A 
ATOM     31 CL   UNL     1      -4.769  12.428  24.791  0.00  0.00    +0.000 Cl
ATOM     32  C   UNL     1      -3.354  12.573  22.492  0.00  0.00    +0.000 A 
ENDBRANCH  24  26
ENDBRANCH   4  24
TORSDOF 5
ENDMDL
MODEL 8
REMARK VINA RESULT:      -8.4      2.498      3.715
REMARK  Name = 
REMARK  6 active torsions:
REMARK  status: ('A' for Active; 'I' for Inactive)
REMARK    1  A    between atoms: C_1  and  C_2
REMARK    2  A    between atoms: C_4  and  N_5
REMARK    3  A    between atoms: N_5  and  C_6
REMARK    4  A    between atoms: C_17  and  N_18
REMARK    5  A    between atoms: C_19  and  C_21
REMARK    6  A    between atoms: C_21  and  C_22
REMARK                            x       y       z     vdW  Elec       q    Type
REMARK                         _______ _______ _______ _____ _____    ______ ____
ROOT
ATOM      1  C   UNL     1      -3.099   9.924  16.350  0.00  0.00    +0.000 C 
ATOM      2  C   UNL     1      -2.834  10.699  17.612  0.00  0.00    +0.000 A 
ATOM      3  C   UNL     1      -3.847  11.512  18.128  0.00  0.00    +0.000 A 
ATOM      4  C   UNL     1      -3.618  12.260  19.275  0.00  0.00    +0.000 A 
ATOM      5  N   UNL     1      -2.434  12.202  19.920  0.00  0.00    +0.000 NA
ATOM      6  C   UNL     1      -1.451  11.413  19.445  0.00  0.00    +0.000 A 
ATOM      7  C   UNL     1      -0.243  11.356  20.128  0.00  0.00    +0.000 A 
ATOM      8  C   UNL     1       0.837  10.586  19.676  0.00  0.00    +0.000 A 
ATOM      9  C   UNL     1       0.728   9.847  18.502  0.00  0.00    +0.000 A 
ATOM     10  C   UNL     1      -0.491   9.865  17.822  0.00  0.00    +0.000 A 
ATOM     11  C   UNL     1      -1.592  10.641  18.276  0.00  0.00    +0.000 A 
ENDROOT
BRANCH   9  12
ATOM     12  N   UNL     1       1.781   9.074  17.959  0.00  0.00    +0.000 N 
ATOM     13  C   UNL     1       2.424   8.018  18.587  0.00  0.00    +0.000 C 
ATOM     14  O   UNL     1       2.203   7.617  19.731  0.00  0.00    +0.000 OA
ATOM     15  H   UNL     1       2.182   9.403  17.089  0.00  0.00    +0.000 HD
BRANCH  13  16
ATOM     16  C   UNL     1       3.502   7.357  17.741  0.00  0.00    +0.000 C 
BRANCH  16  17
ATOM     17  C   UNL     1       3.534   5.848  17.849  0.00  0.00    +0.000 A 
ATOM     18  C   UNL     1       4.725   5.175  18.164  0.00  0.00    +0.000 A 
ATOM     19  C   UNL     1       4.736   3.787  18.335  0.00  0.00    +0.000 A 
ATOM     20  C   UNL     1       3.554   3.065  18.203  0.00  0.00    +0.000 A 
ATOM     21 CL   UNL     1       3.557   1.361  18.444  0.00  0.00    +0.000 Cl
ATOM     22  C   UNL     1       2.363   3.717  17.889  0.00  0.00    +0.000 A 
ATOM     23  C   UNL     1       2.353   5.104  17.712  0.00  0.00    +0.000 A 
ENDBRANCH  16  17
ENDBRANCH  13  16
ENDBRANCH   9  12
BRANCH   4  24
ATOM     24  N   UNL     1      -4.651  13.119  19.717  0.00  0.00    +0.000 N 
ATOM     25  H   UNL     1      -5.525  12.918  19.250  0.00  0.00    +0.000 HD
BRANCH  24  26
ATOM     26  C   UNL     1      -4.784  13.642  21.018  0.00  0.00    +0.000 A 
ATOM     27  C   UNL     1      -4.976  15.017  21.214  0.00  0.00    +0.000 A 
ATOM     28  C   UNL     1      -5.077  15.560  22.494  0.00  0.00    +0.000 A 
ATOM     29  C   UNL     1      -4.987  14.728  23.604  0.00  0.00    +0.000 A 
ATOM     30  C   UNL     1      -4.816  13.356  23.424  0.00  0.00    +0.000 A 
ATOM     31 CL   UNL     1      -4.693  12.331  24.801  0.00  0.00    +0.000 Cl
ATOM     32  C   UNL     1      -4.728  12.808  22.140  0.00  0.00    +0.000 A 
ENDBRANCH  24  26
ENDBRANCH   4  24
TORSDOF 5
ENDMDL
MODEL 9
REMARK VINA RESULT:      -8.4      3.206     10.223
REMARK  Name = 
REMARK  6 active torsions:
REMARK  status: ('A' for Active; 'I' for Inactive)
REMARK    1  A    between atoms: C_1  and  C_2
REMARK    2  A    between atoms: C_4  and  N_5
REMARK    3  A    between atoms: N_5  and  C_6
REMARK    4  A    between atoms: C_17  and  N_18
REMARK    5  A    between atoms: C_19  and  C_21
REMARK    6  A    between atoms: C_21  and  C_22
REMARK                            x       y       z     vdW  Elec       q    Type
REMARK                         _______ _______ _______ _____ _____    ______ ____
ROOT
ATOM      1  C   UNL     1       0.001  10.946  18.324  0.00  0.00    +0.000 C 
ATOM      2  C   UNL     1       0.536   9.956  19.322  0.00  0.00    +0.000 A 
ATOM      3  C   UNL     1       1.389   8.943  18.874  0.00  0.00    +0.000 A 
ATOM      4  C   UNL     1       1.873   7.999  19.770  0.00  0.00    +0.000 A 
ATOM      5  N   UNL     1       1.553   8.053  21.080  0.00  0.00    +0.000 NA
ATOM      6  C   UNL     1       0.744   9.031  21.532  0.00  0.00    +0.000 A 
ATOM      7  C   UNL     1       0.434   9.077  22.885  0.00  0.00    +0.000 A 
ATOM      8  C   UNL     1      -0.427  10.043  23.422  0.00  0.00    +0.000 A 
ATOM      9  C   UNL     1      -1.013  10.997  22.597  0.00  0.00    +0.000 A 
ATOM     10  C   UNL     1      -0.685  10.986  21.240  0.00  0.00    +0.000 A 
ATOM     11  C   UNL     1       0.191  10.012  20.687  0.00  0.00    +0.000 A 
ENDROOT
BRANCH   9  12
ATOM     12  N   UNL     1      -1.921  11.982  23.054  0.00  0.00    +0.000 N 
ATOM     13  C   UNL     1      -1.594  13.270  23.450  0.00  0.00    +0.000 C 
ATOM     14  O   UNL     1      -0.457  13.740  23.504  0.00  0.00    +0.000 OA
ATOM     15  H   UNL     1      -2.871  11.677  23.223  0.00  0.00    +0.000 HD
BRANCH  13  16
ATOM     16  C   UNL     1      -2.790  14.113  23.865  0.00  0.00    +0.000 C 
BRANCH  16  17
ATOM     17  C   UNL     1      -4.044  13.844  23.064  0.00  0.00    +0.000 A 
ATOM     18  C   UNL     1      -4.061  14.023  21.671  0.00  0.00    +0.000 A 
ATOM     19  C   UNL     1      -5.199  13.704  20.925  0.00  0.00    +0.000 A 
ATOM     20  C   UNL     1      -6.325  13.192  21.564  0.00  0.00    +0.000 A 
ATOM     21 CL   UNL     1      -7.717  12.768  20.645  0.00  0.00    +0.000 Cl
ATOM     22  C   UNL     1      -6.326  13.009  22.946  0.00  0.00    +0.000 A 
ATOM     23  C   UNL     1      -5.190  13.334  23.693  0.00  0.00    +0.000 A 
ENDBRANCH  16  17
ENDBRANCH  13  16
ENDBRANCH   9  12
BRANCH   4  24
ATOM     24  N   UNL     1       2.676   6.955  19.255  0.00  0.00    +0.000 N 
ATOM     25  H   UNL     1       3.657   7.116  19.440  0.00  0.00    +0.000 HD
BRANCH  24  26
ATOM     26  C   UNL     1       2.306   5.599  19.173  0.00  0.00    +0.000 A 
ATOM     27  C   UNL     1       2.157   4.979  17.923  0.00  0.00    +0.000 A 
ATOM     28  C   UNL     1       1.758   3.647  17.819  0.00  0.00    +0.000 A 
ATOM     29  C   UNL     1       1.503   2.911  18.971  0.00  0.00    +0.000 A 
ATOM     30  C   UNL     1       1.667   3.510  20.220  0.00  0.00    +0.000 A 
ATOM     31 CL   UNL     1       1.338   2.599  21.643  0.00  0.00    +0.000 Cl
ATOM     32  C   UNL     1       2.079   4.842  20.327  0.00  0.00    +0.000 A 
ENDBRANCH  24  26
ENDBRANCH   4  24
TORSDOF 5
ENDMDL
