MODEL 1
REMARK VINA RESULT:      -5.9      0.000      0.000
REMARK  Name = 
REMARK  4 active torsions:
REMARK  status: ('A' for Active; 'I' for Inactive)
REMARK    1  A    between atoms: N_1  and  C_2
REMARK    2  A    between atoms: C_8  and  N_9
REMARK    3  A    between atoms: N_12  and  C_13
REMARK    4  A    between atoms: C_19  and  N_20
REMARK                            x       y       z     vdW  Elec       q    Type
REMARK                         _______ _______ _______ _____ _____    ______ ____
ROOT
ATOM      1  N   UNL     1       1.243   9.507  18.992  0.00  0.00    +0.000 N 
ATOM      2  C   UNL     1       1.573   8.945  17.664  0.00  0.00    +0.000 C 
ATOM      3  C   UNL     1       2.814   8.012  17.824  0.00  0.00    +0.000 C 
ATOM      4  N   UNL     1       2.486   6.991  18.840  0.00  0.00    +0.000 N 
ATOM      5  C   UNL     1       2.179   7.581  20.163  0.00  0.00    +0.000 C 
ATOM      6  C   UNL     1       0.916   8.449  19.983  0.00  0.00    +0.000 C 
ENDROOT
BRANCH   1  13
ATOM      7  C   UNL     1       0.881  11.863  18.800  0.00  0.00    +0.000 A 
ATOM      8  C   UNL     1      -0.033  12.893  18.932  0.00  0.00    +0.000 A 
ATOM      9 CL   UNL     1       0.450  14.536  18.748  0.00  0.00    +0.000 Cl
ATOM     10  N   UNL     1      -1.351  12.739  19.150  0.00  0.00    +0.000 NA
ATOM     11  C   UNL     1      -1.746  11.469  19.280  0.00  0.00    +0.000 A 
ATOM     12  N   UNL     1      -0.964  10.375  19.234  0.00  0.00    +0.000 NA
ATOM     13  C   UNL     1       0.348  10.586  19.037  0.00  0.00    +0.000 A 
BRANCH   7  14
ATOM     14  N   UNL     1       2.280  12.051  18.634  0.00  0.00    +0.000 N 
ATOM     15  H   UNL     1       2.808  11.831  19.479  0.00  0.00    +0.000 HD
ATOM     16  H   UNL     1       2.447  12.999  18.291  0.00  0.00    +0.000 HD
ENDBRANCH   7  14
ENDBRANCH   1  13
BRANCH   4  17
ATOM     17  C   UNL     1       3.210   5.802  18.857  0.00  0.00    +0.000 A 
ATOM     18  N   UNL     1       4.458   5.784  19.367  0.00  0.00    +0.000 NA
ATOM     19  C   UNL     1       5.108   4.609  19.333  0.00  0.00    +0.000 A 
ATOM     20  N   UNL     1       4.646   3.459  18.841  0.00  0.00    +0.000 NA
ATOM     21  C   UNL     1       3.412   3.532  18.319  0.00  0.00    +0.000 A 
ATOM     22 CL   UNL     1       2.861   2.046  17.640  0.00  0.00    +0.000 Cl
ATOM     23  C   UNL     1       2.642   4.678  18.236  0.00  0.00    +0.000 A 
BRANCH  23  24
ATOM     24  N   UNL     1       1.316   4.707  17.724  0.00  0.00    +0.000 N 
ATOM     25  H   UNL     1       1.273   4.462  16.737  0.00  0.00    +0.000 HD
ATOM     26  H   UNL     1       0.902   5.615  17.919  0.00  0.00    +0.000 HD
ENDBRANCH  23  24
ENDBRANCH   4  17
TORSDOF 4
ENDMDL
MODEL 2
REMARK VINA RESULT:      -5.8      0.407      7.873
REMARK  Name = 
REMARK  4 active torsions:
REMARK  status: ('A' for Active; 'I' for Inactive)
REMARK    1  A    between atoms: N_1  and  C_2
REMARK    2  A    between atoms: C_8  and  N_9
REMARK    3  A    between atoms: N_12  and  C_13
REMARK    4  A    between atoms: C_19  and  N_20
REMARK                            x       y       z     vdW  Elec       q    Type
REMARK                         _______ _______ _______ _____ _____    ______ ____
ROOT
ATOM      1  N   UNL     1       2.431   6.903  18.799  0.00  0.00    +0.000 N 
ATOM      2  C   UNL     1       2.701   7.973  17.815  0.00  0.00    +0.000 C 
ATOM      3  C   UNL     1       1.479   8.944  17.803  0.00  0.00    +0.000 C 
ATOM      4  N   UNL     1       1.277   9.437  19.180  0.00  0.00    +0.000 N 
ATOM      5  C   UNL     1       0.990   8.345  20.139  0.00  0.00    +0.000 C 
ATOM      6  C   UNL     1       2.238   7.439  20.171  0.00  0.00    +0.000 C 
ENDROOT
BRANCH   1  13
ATOM      7  C   UNL     1       2.725   4.608  18.193  0.00  0.00    +0.000 A 
ATOM      8  C   UNL     1       3.558   3.506  18.262  0.00  0.00    +0.000 A 
ATOM      9 CL   UNL     1       3.049   1.971  17.669  0.00  0.00    +0.000 Cl
ATOM     10  N   UNL     1       4.821   3.515  18.724  0.00  0.00    +0.000 NA
ATOM     11  C   UNL     1       5.238   4.701  19.175  0.00  0.00    +0.000 A 
ATOM     12  N   UNL     1       4.522   5.840  19.223  0.00  0.00    +0.000 NA
ATOM     13  C   UNL     1       3.259   5.771  18.771  0.00  0.00    +0.000 A 
BRANCH   7  14
ATOM     14  N   UNL     1       1.373   4.562  17.761  0.00  0.00    +0.000 N 
ATOM     15  H   UNL     1       1.274   4.179  16.820  0.00  0.00    +0.000 HD
ATOM     16  H   UNL     1       0.962   5.493  17.861  0.00  0.00    +0.000 HD
ENDBRANCH   7  14
ENDBRANCH   1  13
BRANCH   4  17
ATOM     17  C   UNL     1       0.569  10.620  19.375  0.00  0.00    +0.000 A 
ATOM     18  N   UNL     1      -0.630  10.591  19.989  0.00  0.00    +0.000 NA
ATOM     19  C   UNL     1      -1.268  11.765  20.126  0.00  0.00    +0.000 A 
ATOM     20  N   UNL     1      -0.838  12.957  19.710  0.00  0.00    +0.000 NA
ATOM     21  C   UNL     1       0.346  12.932  19.078  0.00  0.00    +0.000 A 
ATOM     22 CL   UNL     1       0.852  14.476  18.501  0.00  0.00    +0.000 Cl
ATOM     23  C   UNL     1       1.094  11.798  18.818  0.00  0.00    +0.000 A 
BRANCH  23  24
ATOM     24  N   UNL     1       2.371  11.816  18.194  0.00  0.00    +0.000 N 
ATOM     25  H   UNL     1       2.893  12.666  18.397  0.00  0.00    +0.000 HD
ATOM     26  H   UNL     1       2.257  11.658  17.195  0.00  0.00    +0.000 HD
ENDBRANCH  23  24
ENDBRANCH   4  17
TORSDOF 4
ENDMDL
MODEL 3
REMARK VINA RESULT:      -5.7      2.069      7.512
REMARK  Name = 
REMARK  4 active torsions:
REMARK  status: ('A' for Active; 'I' for Inactive)
REMARK    1  A    between atoms: N_1  and  C_2
REMARK    2  A    between atoms: C_8  and  N_9
REMARK    3  A    between atoms: N_12  and  C_13
REMARK    4  A    between atoms: C_19  and  N_20
REMARK                            x       y       z     vdW  Elec       q    Type
REMARK                         _______ _______ _______ _____ _____    ______ ____
ROOT
ATOM      1  N   UNL     1       3.076   6.868  18.427  0.00  0.00    +0.000 N 
ATOM      2  C   UNL     1       2.175   6.618  19.572  0.00  0.00    +0.000 C 
ATOM      3  C   UNL     1       1.904   7.980  20.286  0.00  0.00    +0.000 C 
ATOM      4  N   UNL     1       1.352   8.914  19.285  0.00  0.00    +0.000 N 
ATOM      5  C   UNL     1       2.283   9.161  18.161  0.00  0.00    +0.000 C 
ATOM      6  C   UNL     1       2.483   7.810  17.442  0.00  0.00    +0.000 C 
ENDROOT
BRANCH   1  13
ATOM      7  C   UNL     1       5.014   5.902  17.411  0.00  0.00    +0.000 A 
ATOM      8  C   UNL     1       5.529   4.801  16.751  0.00  0.00    +0.000 A 
ATOM      9 CL   UNL     1       7.129   4.818  16.113  0.00  0.00    +0.000 Cl
ATOM     10  N   UNL     1       4.895   3.627  16.589  0.00  0.00    +0.000 NA
ATOM     11  C   UNL     1       3.658   3.591  17.090  0.00  0.00    +0.000 A 
ATOM     12  N   UNL     1       3.009   4.598  17.703  0.00  0.00    +0.000 NA
ATOM     13  C   UNL     1       3.679   5.757  17.818  0.00  0.00    +0.000 A 
BRANCH   7  14
ATOM     14  N   UNL     1       5.676   7.155  17.514  0.00  0.00    +0.000 N 
ATOM     15  H   UNL     1       6.541   7.098  18.054  0.00  0.00    +0.000 HD
ATOM     16  H   UNL     1       5.019   7.847  17.879  0.00  0.00    +0.000 HD
ENDBRANCH   7  14
ENDBRANCH   1  13
BRANCH   4  17
ATOM     17  C   UNL     1       0.622  10.017  19.724  0.00  0.00    +0.000 A 
ATOM     18  N   UNL     1       0.910  10.580  20.914  0.00  0.00    +0.000 NA
ATOM     19  C   UNL     1       0.153  11.627  21.285  0.00  0.00    +0.000 A 
ATOM     20  N   UNL     1      -0.857  12.162  20.599  0.00  0.00    +0.000 NA
ATOM     21  C   UNL     1      -1.125  11.549  19.435  0.00  0.00    +0.000 A 
ATOM     22 CL   UNL     1      -2.471  12.224  18.594  0.00  0.00    +0.000 Cl
ATOM     23  C   UNL     1      -0.469  10.434  18.944  0.00  0.00    +0.000 A 
BRANCH  23  24
ATOM     24  N   UNL     1      -0.745   9.844  17.681  0.00  0.00    +0.000 N 
ATOM     25  H   UNL     1      -0.442   8.873  17.629  0.00  0.00    +0.000 HD
ATOM     26  H   UNL     1      -0.338  10.419  16.947  0.00  0.00    +0.000 HD
ENDBRANCH  23  24
ENDBRANCH   4  17
TORSDOF 4
ENDMDL
MODEL 4
REMARK VINA RESULT:      -5.5      1.098      1.098
REMARK  Name = 
REMARK  4 active torsions:
REMARK  status: ('A' for Active; 'I' for Inactive)
REMARK    1  A    between atoms: N_1  and  C_2
REMARK    2  A    between atoms: C_8  and  N_9
REMARK    3  A    between atoms: N_12  and  C_13
REMARK    4  A    between atoms: C_19  and  N_20
REMARK                            x       y       z     vdW  Elec       q    Type
REMARK                         _______ _______ _______ _____ _____    ______ ____
ROOT
ATOM      1  N   UNL     1       1.046   9.773  19.144  0.00  0.00    +0.000 N 
ATOM      2  C   UNL     1       1.300   9.072  17.867  0.00  0.00    +0.000 C 
ATOM      3  C   UNL     1       2.551   8.157  18.052  0.00  0.00    +0.000 C 
ATOM      4  N   UNL     1       2.287   7.252  19.188  0.00  0.00    +0.000 N 
ATOM      5  C   UNL     1       2.056   7.981  20.457  0.00  0.00    +0.000 C 
ATOM      6  C   UNL     1       0.781   8.828  20.260  0.00  0.00    +0.000 C 
ENDROOT
BRANCH   1  13
ATOM      7  C   UNL     1       0.698  12.126  18.895  0.00  0.00    +0.000 A 
ATOM      8  C   UNL     1      -0.220  13.159  18.964  0.00  0.00    +0.000 A 
ATOM      9 CL   UNL     1       0.275  14.798  18.778  0.00  0.00    +0.000 Cl
ATOM     10  N   UNL     1      -1.547  13.009  19.118  0.00  0.00    +0.000 NA
ATOM     11  C   UNL     1      -1.950  11.742  19.249  0.00  0.00    +0.000 A 
ATOM     12  N   UNL     1      -1.168  10.647  19.260  0.00  0.00    +0.000 NA
ATOM     13  C   UNL     1       0.152  10.854  19.126  0.00  0.00    +0.000 A 
BRANCH   7  14
ATOM     14  N   UNL     1       2.104  12.310  18.797  0.00  0.00    +0.000 N 
ATOM     15  H   UNL     1       2.547  12.435  19.708  0.00  0.00    +0.000 HD
ATOM     16  H   UNL     1       2.292  13.079  18.150  0.00  0.00    +0.000 HD
ENDBRANCH   7  14
ENDBRANCH   1  13
BRANCH   4  17
ATOM     17  C   UNL     1       3.015   6.069  19.290  0.00  0.00    +0.000 A 
ATOM     18  N   UNL     1       4.242   5.988  18.739  0.00  0.00    +0.000 NA
ATOM     19  C   UNL     1       4.880   4.811  18.856  0.00  0.00    +0.000 A 
ATOM     20  N   UNL     1       4.420   3.713  19.457  0.00  0.00    +0.000 NA
ATOM     21  C   UNL     1       3.183   3.833  19.964  0.00  0.00    +0.000 A 
ATOM     22 CL   UNL     1       2.591   2.383  20.685  0.00  0.00    +0.000 Cl
ATOM     23  C   UNL     1       2.385   4.959  19.878  0.00  0.00    +0.000 A 
BRANCH  23  24
ATOM     24  N   UNL     1       1.100   5.068  20.475  0.00  0.00    +0.000 N 
ATOM     25  H   UNL     1       0.947   5.976  20.909  0.00  0.00    +0.000 HD
ATOM     26  H   UNL     1       0.966   4.297  21.125  0.00  0.00    +0.000 HD
ENDBRANCH  23  24
ENDBRANCH   4  17
TORSDOF 4
ENDMDL
MODEL 5
REMARK VINA RESULT:      -5.5      2.430      3.170
REMARK  Name = 
REMARK  4 active torsions:
REMARK  status: ('A' for Active; 'I' for Inactive)
REMARK    1  A    between atoms: N_1  and  C_2
REMARK    2  A    between atoms: C_8  and  N_9
REMARK    3  A    between atoms: N_12  and  C_13
REMARK    4  A    between atoms: C_19  and  N_20
REMARK                            x       y       z     vdW  Elec       q    Type
REMARK                         _______ _______ _______ _____ _____    ______ ____
ROOT
ATOM      1  N   UNL     1       1.242   8.885  19.739  0.00  0.00    +0.000 N 
ATOM      2  C   UNL     1       1.981   7.942  20.605  0.00  0.00    +0.000 C 
ATOM      3  C   UNL     1       2.079   6.572  19.863  0.00  0.00    +0.000 C 
ATOM      4  N   UNL     1       2.720   6.809  18.555  0.00  0.00    +0.000 N 
ATOM      5  C   UNL     1       1.948   7.741  17.702  0.00  0.00    +0.000 C 
ATOM      6  C   UNL     1       1.921   9.099  18.435  0.00  0.00    +0.000 C 
ENDROOT
BRANCH   1  13
ATOM      7  C   UNL     1      -0.074   9.967  21.418  0.00  0.00    +0.000 A 
ATOM      8  C   UNL     1      -0.544  11.176  21.896  0.00  0.00    +0.000 A 
ATOM      9 CL   UNL     1      -1.671  11.237  23.199  0.00  0.00    +0.000 Cl
ATOM     10  N   UNL     1      -0.155  12.388  21.463  0.00  0.00    +0.000 NA
ATOM     11  C   UNL     1       0.729  12.361  20.463  0.00  0.00    +0.000 A 
ATOM     12  N   UNL     1       1.229  11.265  19.861  0.00  0.00    +0.000 NA
ATOM     13  C   UNL     1       0.790  10.081  20.317  0.00  0.00    +0.000 A 
BRANCH   7  14
ATOM     14  N   UNL     1      -0.547   8.698  21.846  0.00  0.00    +0.000 N 
ATOM     15  H   UNL     1       0.122   7.948  21.665  0.00  0.00    +0.000 HD
ATOM     16  H   UNL     1      -1.464   8.529  21.428  0.00  0.00    +0.000 HD
ENDBRANCH   7  14
ENDBRANCH   1  13
BRANCH   4  17
ATOM     17  C   UNL     1       3.322   5.740  17.897  0.00  0.00    +0.000 A 
ATOM     18  N   UNL     1       2.699   4.545  17.848  0.00  0.00    +0.000 NA
ATOM     19  C   UNL     1       3.346   3.552  17.216  0.00  0.00    +0.000 A 
ATOM     20  N   UNL     1       4.545   3.625  16.636  0.00  0.00    +0.000 NA
ATOM     21  C   UNL     1       5.139   4.825  16.736  0.00  0.00    +0.000 A 
ATOM     22 CL   UNL     1       6.710   4.877  16.028  0.00  0.00    +0.000 Cl
ATOM     23  C   UNL     1       4.622   5.925  17.397  0.00  0.00    +0.000 A 
BRANCH  23  24
ATOM     24  N   UNL     1       5.256   7.196  17.436  0.00  0.00    +0.000 N 
ATOM     25  H   UNL     1       5.887   7.342  16.650  0.00  0.00    +0.000 HD
ATOM     26  H   UNL     1       5.718   7.312  18.335  0.00  0.00    +0.000 HD
ENDBRANCH  23  24
ENDBRANCH   4  17
TORSDOF 4
ENDMDL
MODEL 6
REMARK VINA RESULT:      -5.4      2.305      7.510
REMARK  Name = 
REMARK  4 active torsions:
REMARK  status: ('A' for Active; 'I' for Inactive)
REMARK    1  A    between atoms: N_1  and  C_2
REMARK    2  A    between atoms: C_8  and  N_9
REMARK    3  A    between atoms: N_12  and  C_13
REMARK    4  A    between atoms: C_19  and  N_20
REMARK                            x       y       z     vdW  Elec       q    Type
REMARK                         _______ _______ _______ _____ _____    ______ ____
ROOT
ATOM      1  N   UNL     1       2.589   6.836  18.725  0.00  0.00    +0.000 N 
ATOM      2  C   UNL     1       1.959   6.701  20.056  0.00  0.00    +0.000 C 
ATOM      3  C   UNL     1       1.935   8.109  20.729  0.00  0.00    +0.000 C 
ATOM      4  N   UNL     1       1.223   9.033  19.823  0.00  0.00    +0.000 N 
ATOM      5  C   UNL     1       1.887   9.163  18.506  0.00  0.00    +0.000 C 
ATOM      6  C   UNL     1       1.842   7.770  17.843  0.00  0.00    +0.000 C 
ENDROOT
BRANCH   1  13
ATOM      7  C   UNL     1       4.243   5.653  17.466  0.00  0.00    +0.000 A 
ATOM      8  C   UNL     1       4.534   4.495  16.768  0.00  0.00    +0.000 A 
ATOM      9 CL   UNL     1       6.017   4.329  15.906  0.00  0.00    +0.000 Cl
ATOM     10  N   UNL     1       3.761   3.396  16.728  0.00  0.00    +0.000 NA
ATOM     11  C   UNL     1       2.613   3.502  17.403  0.00  0.00    +0.000 A 
ATOM     12  N   UNL     1       2.173   4.580  18.077  0.00  0.00    +0.000 NA
ATOM     13  C   UNL     1       2.973   5.659  18.065  0.00  0.00    +0.000 A 
BRANCH   7  14
ATOM     14  N   UNL     1       5.044   6.826  17.441  0.00  0.00    +0.000 N 
ATOM     15  H   UNL     1       5.572   6.958  18.304  0.00  0.00    +0.000 HD
ATOM     16  H   UNL     1       4.452   7.625  17.205  0.00  0.00    +0.000 HD
ENDBRANCH   7  14
ENDBRANCH   1  13
BRANCH   4  17
ATOM     17  C   UNL     1       0.677  10.202  20.347  0.00  0.00    +0.000 A 
ATOM     18  N   UNL     1       1.067  11.399  19.866  0.00  0.00    +0.000 NA
ATOM     19  C   UNL     1       0.515  12.486  20.431  0.00  0.00    +0.000 A 
ATOM     20  N   UNL     1      -0.375  12.502  21.423  0.00  0.00    +0.000 NA
ATOM     21  C   UNL     1      -0.711  11.288  21.889  0.00  0.00    +0.000 A 
ATOM     22 CL   UNL     1      -1.820  11.339  23.209  0.00  0.00    +0.000 Cl
ATOM     23  C   UNL     1      -0.192  10.086  21.445  0.00  0.00    +0.000 A 
BRANCH  23  24
ATOM     24  N   UNL     1      -0.611   8.816  21.925  0.00  0.00    +0.000 N 
ATOM     25  H   UNL     1       0.171   8.196  22.127  0.00  0.00    +0.000 HD
ATOM     26  H   UNL     1      -1.270   8.409  21.265  0.00  0.00    +0.000 HD
ENDBRANCH  23  24
ENDBRANCH   4  17
TORSDOF 4
ENDMDL
MODEL 7
REMARK VINA RESULT:      -5.4      1.324      7.868
REMARK  Name = 
REMARK  4 active torsions:
REMARK  status: ('A' for Active; 'I' for Inactive)
REMARK    1  A    between atoms: N_1  and  C_2
REMARK    2  A    between atoms: C_8  and  N_9
REMARK    3  A    between atoms: N_12  and  C_13
REMARK    4  A    between atoms: C_19  and  N_20
REMARK                            x       y       z     vdW  Elec       q    Type
REMARK                         _______ _______ _______ _____ _____    ______ ____
ROOT
ATOM      1  N   UNL     1       2.575   6.778  18.825  0.00  0.00    +0.000 N 
ATOM      2  C   UNL     1       2.923   7.946  17.988  0.00  0.00    +0.000 C 
ATOM      3  C   UNL     1       1.663   8.861  17.878  0.00  0.00    +0.000 C 
ATOM      4  N   UNL     1       1.238   9.213  19.248  0.00  0.00    +0.000 N 
ATOM      5  C   UNL     1       0.877   8.026  20.056  0.00  0.00    +0.000 C 
ATOM      6  C   UNL     1       2.157   7.174  20.195  0.00  0.00    +0.000 C 
ENDROOT
BRANCH   1  13
ATOM      7  C   UNL     1       2.969   4.473  18.324  0.00  0.00    +0.000 A 
ATOM      8  C   UNL     1       3.862   3.420  18.417  0.00  0.00    +0.000 A 
ATOM      9 CL   UNL     1       3.415   1.832  17.922  0.00  0.00    +0.000 Cl
ATOM     10  N   UNL     1       5.138   3.518  18.830  0.00  0.00    +0.000 NA
ATOM     11  C   UNL     1       5.506   4.746  19.204  0.00  0.00    +0.000 A 
ATOM     12  N   UNL     1       4.733   5.847  19.223  0.00  0.00    +0.000 NA
ATOM     13  C   UNL     1       3.460   5.690  18.823  0.00  0.00    +0.000 A 
BRANCH   7  14
ATOM     14  N   UNL     1       1.606   4.335  17.947  0.00  0.00    +0.000 N 
ATOM     15  H   UNL     1       1.031   5.115  18.266  0.00  0.00    +0.000 HD
ATOM     16  H   UNL     1       1.265   3.426  18.267  0.00  0.00    +0.000 HD
ENDBRANCH   7  14
ENDBRANCH   1  13
BRANCH   4  17
ATOM     17  C   UNL     1       0.444  10.342  19.437  0.00  0.00    +0.000 A 
ATOM     18  N   UNL     1      -0.204  10.889  18.390  0.00  0.00    +0.000 NA
ATOM     19  C   UNL     1      -0.935  11.988  18.639  0.00  0.00    +0.000 A 
ATOM     20  N   UNL     1      -1.080  12.597  19.816  0.00  0.00    +0.000 NA
ATOM     21  C   UNL     1      -0.394  12.034  20.822  0.00  0.00    +0.000 A 
ATOM     22 CL   UNL     1      -0.553  12.872  22.321  0.00  0.00    +0.000 Cl
ATOM     23  C   UNL     1       0.438  10.934  20.711  0.00  0.00    +0.000 A 
BRANCH  23  24
ATOM     24  N   UNL     1       1.108  10.332  21.810  0.00  0.00    +0.000 N 
ATOM     25  H   UNL     1       2.112  10.253  21.660  0.00  0.00    +0.000 HD
ATOM     26  H   UNL     1       0.673   9.435  22.017  0.00  0.00    +0.000 HD
ENDBRANCH  23  24
ENDBRANCH   4  17
TORSDOF 4
ENDMDL
MODEL 8
REMARK VINA RESULT:      -5.3      1.799      7.750
REMARK  Name = 
REMARK  4 active torsions:
REMARK  status: ('A' for Active; 'I' for Inactive)
REMARK    1  A    between atoms: N_1  and  C_2
REMARK    2  A    between atoms: C_8  and  N_9
REMARK    3  A    between atoms: N_12  and  C_13
REMARK    4  A    between atoms: C_19  and  N_20
REMARK                            x       y       z     vdW  Elec       q    Type
REMARK                         _______ _______ _______ _____ _____    ______ ____
ROOT
ATOM      1  N   UNL     1       2.249   7.063  18.590  0.00  0.00    +0.000 N 
ATOM      2  C   UNL     1       2.170   8.384  17.930  0.00  0.00    +0.000 C 
ATOM      3  C   UNL     1       1.025   9.200  18.607  0.00  0.00    +0.000 C 
ATOM      4  N   UNL     1       1.313   9.273  20.053  0.00  0.00    +0.000 N 
ATOM      5  C   UNL     1       1.367   7.937  20.691  0.00  0.00    +0.000 C 
ATOM      6  C   UNL     1       2.543   7.179  20.042  0.00  0.00    +0.000 C 
ENDROOT
BRANCH   1  13
ATOM      7  C   UNL     1       2.521   4.751  18.039  0.00  0.00    +0.000 A 
ATOM      8  C   UNL     1       3.350   3.804  17.467  0.00  0.00    +0.000 A 
ATOM      9 CL   UNL     1       2.954   2.128  17.526  0.00  0.00    +0.000 Cl
ATOM     10  N   UNL     1       4.476   4.069  16.781  0.00  0.00    +0.000 NA
ATOM     11  C   UNL     1       4.790   5.365  16.713  0.00  0.00    +0.000 A 
ATOM     12  N   UNL     1       4.113   6.387  17.268  0.00  0.00    +0.000 NA
ATOM     13  C   UNL     1       3.009   6.065  17.962  0.00  0.00    +0.000 A 
BRANCH   7  14
ATOM     14  N   UNL     1       1.371   4.445  18.815  0.00  0.00    +0.000 N 
ATOM     15  H   UNL     1       0.729   5.235  18.894  0.00  0.00    +0.000 HD
ATOM     16  H   UNL     1       1.671   4.079  19.721  0.00  0.00    +0.000 HD
ENDBRANCH   7  14
ENDBRANCH   1  13
BRANCH   4  17
ATOM     17  C   UNL     1       0.724  10.284  20.807  0.00  0.00    +0.000 A 
ATOM     18  N   UNL     1      -0.096   9.967  21.829  0.00  0.00    +0.000 NA
ATOM     19  C   UNL     1      -0.648  10.992  22.501  0.00  0.00    +0.000 A 
ATOM     20  N   UNL     1      -0.471  12.291  22.256  0.00  0.00    +0.000 NA
ATOM     21  C   UNL     1       0.329  12.556  21.212  0.00  0.00    +0.000 A 
ATOM     22 CL   UNL     1       0.496  14.241  20.882  0.00  0.00    +0.000 Cl
ATOM     23  C   UNL     1       0.927  11.612  20.397  0.00  0.00    +0.000 A 
BRANCH  23  24
ATOM     24  N   UNL     1       1.812  11.930  19.332  0.00  0.00    +0.000 N 
ATOM     25  H   UNL     1       2.189  11.101  18.877  0.00  0.00    +0.000 HD
ATOM     26  H   UNL     1       2.541  12.552  19.676  0.00  0.00    +0.000 HD
ENDBRANCH  23  24
ENDBRANCH   4  17
TORSDOF 4
ENDMDL
MODEL 9
REMARK VINA RESULT:      -5.3      1.191      1.191
REMARK  Name = 
REMARK  4 active torsions:
REMARK  status: ('A' for Active; 'I' for Inactive)
REMARK    1  A    between atoms: N_1  and  C_2
REMARK    2  A    between atoms: C_8  and  N_9
REMARK    3  A    between atoms: N_12  and  C_13
REMARK    4  A    between atoms: C_19  and  N_20
REMARK                            x       y       z     vdW  Elec       q    Type
REMARK                         _______ _______ _______ _____ _____    ______ ____
ROOT
ATOM      1  N   UNL     1       1.506   9.279  19.264  0.00  0.00    +0.000 N 
ATOM      2  C   UNL     1       1.408   8.953  17.825  0.00  0.00    +0.000 C 
ATOM      3  C   UNL     1       2.611   8.032  17.450  0.00  0.00    +0.000 C 
ATOM      4  N   UNL     1       2.570   6.850  18.334  0.00  0.00    +0.000 N 
ATOM      5  C   UNL     1       2.690   7.205  19.767  0.00  0.00    +0.000 C 
ATOM      6  C   UNL     1       1.458   8.064  20.119  0.00  0.00    +0.000 C 
ENDROOT
BRANCH   1  13
ATOM      7  C   UNL     1       0.865  11.581  19.165  0.00  0.00    +0.000 A 
ATOM      8  C   UNL     1       0.097  12.579  19.738  0.00  0.00    +0.000 A 
ATOM      9 CL   UNL     1       0.218  14.210  19.198  0.00  0.00    +0.000 Cl
ATOM     10  N   UNL     1      -0.828  12.393  20.695  0.00  0.00    +0.000 NA
ATOM     11  C   UNL     1      -0.945  11.131  21.115  0.00  0.00    +0.000 A 
ATOM     12  N   UNL     1      -0.229  10.073  20.693  0.00  0.00    +0.000 NA
ATOM     13  C   UNL     1       0.699  10.317  19.753  0.00  0.00    +0.000 A 
BRANCH   7  14
ATOM     14  N   UNL     1       1.883  11.809  18.200  0.00  0.00    +0.000 N 
ATOM     15  H   UNL     1       1.795  11.201  17.386  0.00  0.00    +0.000 HD
ATOM     16  H   UNL     1       2.794  11.738  18.659  0.00  0.00    +0.000 HD
ENDBRANCH   7  14
ENDBRANCH   1  13
BRANCH   4  17
ATOM     17  C   UNL     1       3.230   5.690  17.937  0.00  0.00    +0.000 A 
ATOM     18  N   UNL     1       4.353   5.777  17.197  0.00  0.00    +0.000 NA
ATOM     19  C   UNL     1       4.927   4.618  16.831  0.00  0.00    +0.000 A 
ATOM     20  N   UNL     1       4.496   3.391  17.121  0.00  0.00    +0.000 NA
ATOM     21  C   UNL     1       3.359   3.354  17.834  0.00  0.00    +0.000 A 
ATOM     22 CL   UNL     1       2.793   1.756  18.147  0.00  0.00    +0.000 Cl
ATOM     23  C   UNL     1       2.629   4.457  18.239  0.00  0.00    +0.000 A 
BRANCH  23  24
ATOM     24  N   UNL     1       1.458   4.381  19.040  0.00  0.00    +0.000 N 
ATOM     25  H   UNL     1       0.792   3.692  18.696  0.00  0.00    +0.000 HD
ATOM     26  H   UNL     1       1.049   5.310  19.125  0.00  0.00    +0.000 HD
ENDBRANCH  23  24
ENDBRANCH   4  17
TORSDOF 4
ENDMDL
