MODEL 1
REMARK VINA RESULT:      -7.8      0.000      0.000
REMARK  Name = 
REMARK  14 active torsions:
REMARK  status: ('A' for Active; 'I' for Inactive)
REMARK    1  A    between atoms: C_1  and  C_2
REMARK    2  A    between atoms: C_2  and  O_3
REMARK    3  A    between atoms: C_2  and  C_4
REMARK    4  A    between atoms: C_4  and  N_5
REMARK    5  A    between atoms: C_4  and  C_13
REMARK    6  A    between atoms: C_6  and  O_8
REMARK    7  A    between atoms: O_8  and  C_9
REMARK    8  A    between atoms: C_9  and  C_10
REMARK    9  A    between atoms: C_9  and  C_11
REMARK   10  A    between atoms: C_9  and  C_12
REMARK   11  A    between atoms: N_15  and  C_16
REMARK   12  A    between atoms: C_20  and  O_21
REMARK   13  A    between atoms: O_21  and  C_22
REMARK   14  A    between atoms: C_22  and  C_23
REMARK                            x       y       z     vdW  Elec       q    Type
REMARK                         _______ _______ _______ _____ _____    ______ ____
ROOT
ATOM      1  C   UNL     1       6.092   4.255  17.909  0.00  0.00    +0.000 C 
ATOM      2  O   UNL     1       5.972   4.568  19.096  0.00  0.00    +0.000 OA
ATOM      3  N   UNL     1       5.256   3.358  17.276  0.00  0.00    +0.000 N 
ATOM      4  H   UNL     1       5.181   3.501  16.265  0.00  0.00    +0.000 HD
ENDROOT
BRANCH   3   5
ATOM      5  C   UNL     1       4.090   2.700  17.887  0.00  0.00    +0.000 C 
ATOM      6  C   UNL     1       4.295   2.117  19.285  0.00  0.00    +0.000 C 
ATOM      7  O   UNL     1       3.729   3.012  20.254  0.00  0.00    +0.000 OA
ATOM      8  C   UNL     1       2.890   3.964  19.570  0.00  0.00    +0.000 C 
ATOM      9  C   UNL     1       1.431   3.799  19.998  0.00  0.00    +0.000 C 
ATOM     10  C   UNL     1       0.716   3.564  18.672  0.00  0.00    +0.000 C 
ATOM     11  O   UNL     1       1.669   2.934  17.816  0.00  0.00    +0.000 OA
ATOM     12  C   UNL     1       2.907   3.622  18.087  0.00  0.00    +0.000 C 
BRANCH   9  13
ATOM     13  O   UNL     1       0.962   4.974  20.663  0.00  0.00    +0.000 OA
BRANCH  13  14
ATOM     14  C   UNL     1       2.002   5.914  20.927  0.00  0.00    +0.000 C 
BRANCH  14  15
ATOM     15  C   UNL     1       1.753   7.204  20.185  0.00  0.00    +0.000 A 
ATOM     16  C   UNL     1       1.044   8.237  20.813  0.00  0.00    +0.000 A 
ATOM     17  C   UNL     1       0.811   9.444  20.153  0.00  0.00    +0.000 A 
ATOM     18  C   UNL     1       1.297   9.636  18.860  0.00  0.00    +0.000 A 
ATOM     19  C   UNL     1       2.021   8.625  18.233  0.00  0.00    +0.000 A 
ATOM     20  C   UNL     1       2.254   7.418  18.893  0.00  0.00    +0.000 A 
ENDBRANCH  14  15
ENDBRANCH  13  14
ENDBRANCH   9  13
ENDBRANCH   3   5
BRANCH   1  21
ATOM     21  C   UNL     1       7.151   4.919  16.993  0.00  0.00    +0.000 C 
BRANCH  21  22
ATOM     22  N   UNL     1       7.246   4.173  15.736  0.00  0.00    +0.000 N 
ATOM     23  C   UNL     1       6.328   4.212  14.744  0.00  0.00    +0.000 C 
ATOM     24  O   UNL     1       5.356   4.951  14.755  0.00  0.00    +0.000 OA
ATOM     25  H   UNL     1       7.999   3.504  15.629  0.00  0.00    +0.000 HD
BRANCH  23  26
ATOM     26  O   UNL     1       6.673   3.331  13.774  0.00  0.00    +0.000 OA
BRANCH  26  27
ATOM     27  C   UNL     1       6.461   3.660  12.377  0.00  0.00    +0.000 C 
ATOM     28  C   UNL     1       7.248   4.919  11.998  0.00  0.00    +0.000 C 
ATOM     29  C   UNL     1       7.025   2.474  11.576  0.00  0.00    +0.000 C 
ATOM     30  C   UNL     1       4.968   3.785  12.055  0.00  0.00    +0.000 C 
ENDBRANCH  26  27
ENDBRANCH  23  26
ENDBRANCH  21  22
BRANCH  21  32
ATOM     31  C   UNL     1       7.611   7.463  17.305  0.00  0.00    +0.000 C 
ATOM     32  C   UNL     1       6.775   6.380  16.641  0.00  0.00    +0.000 C 
BRANCH  32  33
ATOM     33  O   UNL     1       5.388   6.622  16.922  0.00  0.00    +0.000 OA
ATOM     34  H   UNL     1       4.879   5.987  16.373  0.00  0.00    +0.000 HD
ENDBRANCH  32  33
ENDBRANCH  21  32
ENDBRANCH   1  21
TORSDOF 10
ENDMDL
MODEL 2
REMARK VINA RESULT:      -7.7      1.569      3.765
REMARK  Name = 
REMARK  14 active torsions:
REMARK  status: ('A' for Active; 'I' for Inactive)
REMARK    1  A    between atoms: C_1  and  C_2
REMARK    2  A    between atoms: C_2  and  O_3
REMARK    3  A    between atoms: C_2  and  C_4
REMARK    4  A    between atoms: C_4  and  N_5
REMARK    5  A    between atoms: C_4  and  C_13
REMARK    6  A    between atoms: C_6  and  O_8
REMARK    7  A    between atoms: O_8  and  C_9
REMARK    8  A    between atoms: C_9  and  C_10
REMARK    9  A    between atoms: C_9  and  C_11
REMARK   10  A    between atoms: C_9  and  C_12
REMARK   11  A    between atoms: N_15  and  C_16
REMARK   12  A    between atoms: C_20  and  O_21
REMARK   13  A    between atoms: O_21  and  C_22
REMARK   14  A    between atoms: C_22  and  C_23
REMARK                            x       y       z     vdW  Elec       q    Type
REMARK                         _______ _______ _______ _____ _____    ______ ____
ROOT
ATOM      1  C   UNL     1       5.156   3.817  15.571  0.00  0.00    +0.000 C 
ATOM      2  O   UNL     1       5.422   2.613  15.618  0.00  0.00    +0.000 OA
ATOM      3  N   UNL     1       4.418   4.466  16.538  0.00  0.00    +0.000 N 
ATOM      4  H   UNL     1       4.621   5.466  16.616  0.00  0.00    +0.000 HD
ENDROOT
BRANCH   3   5
ATOM      5  C   UNL     1       3.896   3.852  17.770  0.00  0.00    +0.000 C 
ATOM      6  C   UNL     1       4.825   3.871  18.983  0.00  0.00    +0.000 C 
ATOM      7  O   UNL     1       4.415   4.921  19.871  0.00  0.00    +0.000 OA
ATOM      8  C   UNL     1       3.100   5.368  19.484  0.00  0.00    +0.000 C 
ATOM      9  C   UNL     1       2.086   5.078  20.590  0.00  0.00    +0.000 C 
ATOM     10  C   UNL     1       1.036   4.238  19.872  0.00  0.00    +0.000 C 
ATOM     11  O   UNL     1       1.727   3.547  18.831  0.00  0.00    +0.000 OA
ATOM     12  C   UNL     1       2.648   4.523  18.302  0.00  0.00    +0.000 C 
BRANCH   9  13
ATOM     13  O   UNL     1       1.541   6.293  21.111  0.00  0.00    +0.000 OA
BRANCH  13  14
ATOM     14  C   UNL     1       1.725   7.403  20.234  0.00  0.00    +0.000 C 
BRANCH  14  15
ATOM     15  C   UNL     1       0.989   8.615  20.749  0.00  0.00    +0.000 A 
ATOM     16  C   UNL     1       0.311   8.544  21.973  0.00  0.00    +0.000 A 
ATOM     17  C   UNL     1      -0.369   9.655  22.476  0.00  0.00    +0.000 A 
ATOM     18  C   UNL     1      -0.367  10.853  21.764  0.00  0.00    +0.000 A 
ATOM     19  C   UNL     1       0.321  10.943  20.556  0.00  0.00    +0.000 A 
ATOM     20  C   UNL     1       1.000   9.833  20.053  0.00  0.00    +0.000 A 
ENDBRANCH  14  15
ENDBRANCH  13  14
ENDBRANCH   9  13
ENDBRANCH   3   5
BRANCH   1  21
ATOM     21  C   UNL     1       5.713   4.731  14.451  0.00  0.00    +0.000 C 
BRANCH  21  22
ATOM     22  N   UNL     1       6.500   5.813  15.050  0.00  0.00    +0.000 N 
ATOM     23  C   UNL     1       7.435   5.646  16.012  0.00  0.00    +0.000 C 
ATOM     24  O   UNL     1       7.788   4.553  16.425  0.00  0.00    +0.000 OA
ATOM     25  H   UNL     1       6.270   6.768  14.803  0.00  0.00    +0.000 HD
BRANCH  23  26
ATOM     26  O   UNL     1       7.895   6.857  16.409  0.00  0.00    +0.000 OA
BRANCH  26  27
ATOM     27  C   UNL     1       7.468   7.424  17.674  0.00  0.00    +0.000 C 
ATOM     28  C   UNL     1       8.054   6.626  18.844  0.00  0.00    +0.000 C 
ATOM     29  C   UNL     1       8.050   8.847  17.715  0.00  0.00    +0.000 C 
ATOM     30  C   UNL     1       5.941   7.533  17.748  0.00  0.00    +0.000 C 
ENDBRANCH  26  27
ENDBRANCH  23  26
ENDBRANCH  21  22
BRANCH  21  32
ATOM     31  C   UNL     1       7.419   4.803  12.485  0.00  0.00    +0.000 C 
ATOM     32  C   UNL     1       6.645   3.958  13.485  0.00  0.00    +0.000 C 
BRANCH  32  33
ATOM     33  O   UNL     1       5.907   2.952  12.774  0.00  0.00    +0.000 OA
ATOM     34  H   UNL     1       5.418   2.437  13.451  0.00  0.00    +0.000 HD
ENDBRANCH  32  33
ENDBRANCH  21  32
ENDBRANCH   1  21
TORSDOF 10
ENDMDL
MODEL 3
REMARK VINA RESULT:      -7.6      3.615      9.164
REMARK  Name = 
REMARK  14 active torsions:
REMARK  status: ('A' for Active; 'I' for Inactive)
REMARK    1  A    between atoms: C_1  and  C_2
REMARK    2  A    between atoms: C_2  and  O_3
REMARK    3  A    between atoms: C_2  and  C_4
REMARK    4  A    between atoms: C_4  and  N_5
REMARK    5  A    between atoms: C_4  and  C_13
REMARK    6  A    between atoms: C_6  and  O_8
REMARK    7  A    between atoms: O_8  and  C_9
REMARK    8  A    between atoms: C_9  and  C_10
REMARK    9  A    between atoms: C_9  and  C_11
REMARK   10  A    between atoms: C_9  and  C_12
REMARK   11  A    between atoms: N_15  and  C_16
REMARK   12  A    between atoms: C_20  and  O_21
REMARK   13  A    between atoms: O_21  and  C_22
REMARK   14  A    between atoms: C_22  and  C_23
REMARK                            x       y       z     vdW  Elec       q    Type
REMARK                         _______ _______ _______ _____ _____    ______ ____
ROOT
ATOM      1  C   UNL     1       1.370   8.574  19.998  0.00  0.00    +0.000 C 
ATOM      2  O   UNL     1       0.953   8.229  21.106  0.00  0.00    +0.000 OA
ATOM      3  N   UNL     1       2.225   7.803  19.239  0.00  0.00    +0.000 N 
ATOM      4  H   UNL     1       2.156   7.972  18.231  0.00  0.00    +0.000 HD
ENDROOT
BRANCH   3   5
ATOM      5  C   UNL     1       2.713   6.461  19.599  0.00  0.00    +0.000 C 
ATOM      6  C   UNL     1       1.797   5.290  19.252  0.00  0.00    +0.000 C 
ATOM      7  O   UNL     1       2.281   4.651  18.062  0.00  0.00    +0.000 OA
ATOM      8  C   UNL     1       3.620   5.118  17.799  0.00  0.00    +0.000 C 
ATOM      9  C   UNL     1       4.621   3.966  17.905  0.00  0.00    +0.000 C 
ATOM     10  C   UNL     1       5.608   4.474  18.950  0.00  0.00    +0.000 C 
ATOM     11  O   UNL     1       4.865   5.343  19.806  0.00  0.00    +0.000 OA
ATOM     12  C   UNL     1       4.007   6.080  18.911  0.00  0.00    +0.000 C 
BRANCH   9  13
ATOM     13  O   UNL     1       5.248   3.722  16.644  0.00  0.00    +0.000 OA
BRANCH  13  14
ATOM     14  C   UNL     1       5.027   4.771  15.703  0.00  0.00    +0.000 C 
BRANCH  14  15
ATOM     15  C   UNL     1       5.746   4.483  14.407  0.00  0.00    +0.000 A 
ATOM     16  C   UNL     1       7.002   5.058  14.171  0.00  0.00    +0.000 A 
ATOM     17  C   UNL     1       7.692   4.798  12.986  0.00  0.00    +0.000 A 
ATOM     18  C   UNL     1       7.138   3.950  12.029  0.00  0.00    +0.000 A 
ATOM     19  C   UNL     1       5.899   3.356  12.261  0.00  0.00    +0.000 A 
ATOM     20  C   UNL     1       5.209   3.615  13.445  0.00  0.00    +0.000 A 
ENDBRANCH  14  15
ENDBRANCH  13  14
ENDBRANCH   9  13
ENDBRANCH   3   5
BRANCH   1  21
ATOM     21  C   UNL     1       0.890   9.880  19.316  0.00  0.00    +0.000 C 
BRANCH  21  22
ATOM     22  N   UNL     1       0.502  10.852  20.342  0.00  0.00    +0.000 N 
ATOM     23  C   UNL     1      -0.648  11.564  20.335  0.00  0.00    +0.000 C 
ATOM     24  O   UNL     1      -1.534  11.404  19.511  0.00  0.00    +0.000 OA
ATOM     25  H   UNL     1       1.176  11.086  21.061  0.00  0.00    +0.000 HD
BRANCH  23  26
ATOM     26  O   UNL     1      -0.642  12.439  21.371  0.00  0.00    +0.000 OA
BRANCH  26  27
ATOM     27  C   UNL     1      -1.540  12.249  22.494  0.00  0.00    +0.000 C 
ATOM     28  C   UNL     1      -1.266  10.906  23.178  0.00  0.00    +0.000 C 
ATOM     29  C   UNL     1      -1.215  13.378  23.487  0.00  0.00    +0.000 C 
ATOM     30  C   UNL     1      -3.005  12.399  22.067  0.00  0.00    +0.000 C 
ENDBRANCH  26  27
ENDBRANCH  23  26
ENDBRANCH  21  22
BRANCH  21  32
ATOM     31  C   UNL     1       1.939  12.040  18.309  0.00  0.00    +0.000 C 
ATOM     32  C   UNL     1       2.006  10.528  18.459  0.00  0.00    +0.000 C 
BRANCH  32  33
ATOM     33  O   UNL     1       2.047   9.930  17.154  0.00  0.00    +0.000 OA
ATOM     34  H   UNL     1       2.751  10.399  16.656  0.00  0.00    +0.000 HD
ENDBRANCH  32  33
ENDBRANCH  21  32
ENDBRANCH   1  21
TORSDOF 10
ENDMDL
MODEL 4
REMARK VINA RESULT:      -7.6      3.627      8.870
REMARK  Name = 
REMARK  14 active torsions:
REMARK  status: ('A' for Active; 'I' for Inactive)
REMARK    1  A    between atoms: C_1  and  C_2
REMARK    2  A    between atoms: C_2  and  O_3
REMARK    3  A    between atoms: C_2  and  C_4
REMARK    4  A    between atoms: C_4  and  N_5
REMARK    5  A    between atoms: C_4  and  C_13
REMARK    6  A    between atoms: C_6  and  O_8
REMARK    7  A    between atoms: O_8  and  C_9
REMARK    8  A    between atoms: C_9  and  C_10
REMARK    9  A    between atoms: C_9  and  C_11
REMARK   10  A    between atoms: C_9  and  C_12
REMARK   11  A    between atoms: N_15  and  C_16
REMARK   12  A    between atoms: C_20  and  O_21
REMARK   13  A    between atoms: O_21  and  C_22
REMARK   14  A    between atoms: C_22  and  C_23
REMARK                            x       y       z     vdW  Elec       q    Type
REMARK                         _______ _______ _______ _____ _____    ______ ____
ROOT
ATOM      1  C   UNL     1       1.282   8.266  20.366  0.00  0.00    +0.000 C 
ATOM      2  O   UNL     1       1.001   7.827  21.484  0.00  0.00    +0.000 OA
ATOM      3  N   UNL     1       2.137   7.624  19.495  0.00  0.00    +0.000 N 
ATOM      4  H   UNL     1       1.963   7.834  18.509  0.00  0.00    +0.000 HD
ENDROOT
BRANCH   3   5
ATOM      5  C   UNL     1       2.783   6.323  19.736  0.00  0.00    +0.000 C 
ATOM      6  C   UNL     1       1.913   5.085  19.529  0.00  0.00    +0.000 C 
ATOM      7  O   UNL     1       2.228   4.496  18.259  0.00  0.00    +0.000 OA
ATOM      8  C   UNL     1       3.460   5.070  17.776  0.00  0.00    +0.000 C 
ATOM      9  C   UNL     1       4.549   4.001  17.680  0.00  0.00    +0.000 C 
ATOM     10  C   UNL     1       5.663   4.577  18.548  0.00  0.00    +0.000 C 
ATOM     11  O   UNL     1       5.017   5.378  19.539  0.00  0.00    +0.000 OA
ATOM     12  C   UNL     1       3.961   6.052  18.824  0.00  0.00    +0.000 C 
BRANCH   9  13
ATOM     13  O   UNL     1       4.962   3.817  16.324  0.00  0.00    +0.000 OA
BRANCH  13  14
ATOM     14  C   UNL     1       5.979   4.734  15.926  0.00  0.00    +0.000 C 
BRANCH  14  15
ATOM     15  C   UNL     1       6.369   4.503  14.486  0.00  0.00    +0.000 A 
ATOM     16  C   UNL     1       5.651   3.579  13.715  0.00  0.00    +0.000 A 
ATOM     17  C   UNL     1       5.985   3.356  12.379  0.00  0.00    +0.000 A 
ATOM     18  C   UNL     1       7.034   4.065  11.795  0.00  0.00    +0.000 A 
ATOM     19  C   UNL     1       7.741   5.002  12.544  0.00  0.00    +0.000 A 
ATOM     20  C   UNL     1       7.408   5.225  13.881  0.00  0.00    +0.000 A 
ENDBRANCH  14  15
ENDBRANCH  13  14
ENDBRANCH   9  13
ENDBRANCH   3   5
BRANCH   1  21
ATOM     21  C   UNL     1       0.619   9.549  19.804  0.00  0.00    +0.000 C 
BRANCH  21  22
ATOM     22  N   UNL     1       1.067  10.710  20.578  0.00  0.00    +0.000 N 
ATOM     23  C   UNL     1       0.252  11.675  21.061  0.00  0.00    +0.000 C 
ATOM     24  O   UNL     1      -0.965  11.633  20.978  0.00  0.00    +0.000 OA
ATOM     25  H   UNL     1       2.062  10.862  20.684  0.00  0.00    +0.000 HD
BRANCH  23  26
ATOM     26  O   UNL     1       0.999  12.647  21.639  0.00  0.00    +0.000 OA
BRANCH  26  27
ATOM     27  C   UNL     1       1.295  13.869  20.917  0.00  0.00    +0.000 C 
ATOM     28  C   UNL     1       2.756  13.877  20.454  0.00  0.00    +0.000 C 
ATOM     29  C   UNL     1       0.390  13.853  19.673  0.00  0.00    +0.000 C 
ATOM     30  C   UNL     1       0.939  15.107  21.748  0.00  0.00    +0.000 C 
ENDBRANCH  26  27
ENDBRANCH  23  26
ENDBRANCH  21  22
BRANCH  21  32
ATOM     31  C   UNL     1       2.115  10.813  18.087  0.00  0.00    +0.000 C 
ATOM     32  C   UNL     1       1.007   9.798  18.325  0.00  0.00    +0.000 C 
BRANCH  32  33
ATOM     33  O   UNL     1      -0.148  10.179  17.560  0.00  0.00    +0.000 OA
ATOM     34  H   UNL     1      -0.338   9.431  16.954  0.00  0.00    +0.000 HD
ENDBRANCH  32  33
ENDBRANCH  21  32
ENDBRANCH   1  21
TORSDOF 10
ENDMDL
MODEL 5
REMARK VINA RESULT:      -7.5      3.611      8.950
REMARK  Name = 
REMARK  14 active torsions:
REMARK  status: ('A' for Active; 'I' for Inactive)
REMARK    1  A    between atoms: C_1  and  C_2
REMARK    2  A    between atoms: C_2  and  O_3
REMARK    3  A    between atoms: C_2  and  C_4
REMARK    4  A    between atoms: C_4  and  N_5
REMARK    5  A    between atoms: C_4  and  C_13
REMARK    6  A    between atoms: C_6  and  O_8
REMARK    7  A    between atoms: O_8  and  C_9
REMARK    8  A    between atoms: C_9  and  C_10
REMARK    9  A    between atoms: C_9  and  C_11
REMARK   10  A    between atoms: C_9  and  C_12
REMARK   11  A    between atoms: N_15  and  C_16
REMARK   12  A    between atoms: C_20  and  O_21
REMARK   13  A    between atoms: O_21  and  C_22
REMARK   14  A    between atoms: C_22  and  C_23
REMARK                            x       y       z     vdW  Elec       q    Type
REMARK                         _______ _______ _______ _____ _____    ______ ____
ROOT
ATOM      1  C   UNL     1       1.504   8.219  20.344  0.00  0.00    +0.000 C 
ATOM      2  O   UNL     1       1.617   8.023  21.556  0.00  0.00    +0.000 OA
ATOM      3  N   UNL     1       2.008   7.362  19.389  0.00  0.00    +0.000 N 
ATOM      4  H   UNL     1       1.510   7.393  18.495  0.00  0.00    +0.000 HD
ENDROOT
BRANCH   3   5
ATOM      5  C   UNL     1       2.692   6.087  19.662  0.00  0.00    +0.000 C 
ATOM      6  C   UNL     1       1.996   4.823  19.158  0.00  0.00    +0.000 C 
ATOM      7  O   UNL     1       2.634   4.386  17.949  0.00  0.00    +0.000 OA
ATOM      8  C   UNL     1       3.889   5.081  17.811  0.00  0.00    +0.000 C 
ATOM      9  C   UNL     1       5.059   4.098  17.879  0.00  0.00    +0.000 C 
ATOM     10  C   UNL     1       5.899   4.653  19.023  0.00  0.00    +0.000 C 
ATOM     11  O   UNL     1       4.985   5.308  19.903  0.00  0.00    +0.000 OA
ATOM     12  C   UNL     1       4.061   5.983  19.024  0.00  0.00    +0.000 C 
BRANCH   9  13
ATOM     13  O   UNL     1       5.776   4.078  16.643  0.00  0.00    +0.000 OA
BRANCH  13  14
ATOM     14  C   UNL     1       4.980   4.491  15.533  0.00  0.00    +0.000 C 
BRANCH  14  15
ATOM     15  C   UNL     1       5.755   4.360  14.245  0.00  0.00    +0.000 A 
ATOM     16  C   UNL     1       6.966   5.049  14.093  0.00  0.00    +0.000 A 
ATOM     17  C   UNL     1       7.706   4.935  12.915  0.00  0.00    +0.000 A 
ATOM     18  C   UNL     1       7.249   4.120  11.881  0.00  0.00    +0.000 A 
ATOM     19  C   UNL     1       6.058   3.413  12.028  0.00  0.00    +0.000 A 
ATOM     20  C   UNL     1       5.317   3.527  13.205  0.00  0.00    +0.000 A 
ENDBRANCH  14  15
ENDBRANCH  13  14
ENDBRANCH   9  13
ENDBRANCH   3   5
BRANCH   1  21
ATOM     21  C   UNL     1       0.694   9.417  19.784  0.00  0.00    +0.000 C 
BRANCH  21  22
ATOM     22  N   UNL     1       0.988  10.616  20.573  0.00  0.00    +0.000 N 
ATOM     23  C   UNL     1       0.058  11.479  21.041  0.00  0.00    +0.000 C 
ATOM     24  O   UNL     1      -1.144  11.299  20.929  0.00  0.00    +0.000 OA
ATOM     25  H   UNL     1       1.957  10.881  20.703  0.00  0.00    +0.000 HD
BRANCH  23  26
ATOM     26  O   UNL     1       0.675  12.526  21.640  0.00  0.00    +0.000 OA
BRANCH  26  27
ATOM     27  C   UNL     1       0.569  13.858  21.076  0.00  0.00    +0.000 C 
ATOM     28  C   UNL     1      -0.609  14.613  21.701  0.00  0.00    +0.000 C 
ATOM     29  C   UNL     1       1.871  14.582  21.461  0.00  0.00    +0.000 C 
ATOM     30  C   UNL     1       0.487  13.810  19.546  0.00  0.00    +0.000 C 
ENDBRANCH  26  27
ENDBRANCH  23  26
ENDBRANCH  21  22
BRANCH  21  32
ATOM     31  C   UNL     1       2.160  10.760  18.102  0.00  0.00    +0.000 C 
ATOM     32  C   UNL     1       1.065   9.726  18.312  0.00  0.00    +0.000 C 
BRANCH  32  33
ATOM     33  O   UNL     1      -0.101  10.124  17.574  0.00  0.00    +0.000 OA
ATOM     34  H   UNL     1      -0.417  10.957  17.984  0.00  0.00    +0.000 HD
ENDBRANCH  32  33
ENDBRANCH  21  32
ENDBRANCH   1  21
TORSDOF 10
ENDMDL
MODEL 6
REMARK VINA RESULT:      -7.5      3.515      8.603
REMARK  Name = 
REMARK  14 active torsions:
REMARK  status: ('A' for Active; 'I' for Inactive)
REMARK    1  A    between atoms: C_1  and  C_2
REMARK    2  A    between atoms: C_2  and  O_3
REMARK    3  A    between atoms: C_2  and  C_4
REMARK    4  A    between atoms: C_4  and  N_5
REMARK    5  A    between atoms: C_4  and  C_13
REMARK    6  A    between atoms: C_6  and  O_8
REMARK    7  A    between atoms: O_8  and  C_9
REMARK    8  A    between atoms: C_9  and  C_10
REMARK    9  A    between atoms: C_9  and  C_11
REMARK   10  A    between atoms: C_9  and  C_12
REMARK   11  A    between atoms: N_15  and  C_16
REMARK   12  A    between atoms: C_20  and  O_21
REMARK   13  A    between atoms: O_21  and  C_22
REMARK   14  A    between atoms: C_22  and  C_23
REMARK                            x       y       z     vdW  Elec       q    Type
REMARK                         _______ _______ _______ _____ _____    ______ ____
ROOT
ATOM      1  C   UNL     1       1.490   8.564  21.002  0.00  0.00    +0.000 C 
ATOM      2  O   UNL     1       1.862   8.254  22.136  0.00  0.00    +0.000 OA
ATOM      3  N   UNL     1       1.749   7.797  19.886  0.00  0.00    +0.000 N 
ATOM      4  H   UNL     1       1.068   7.915  19.131  0.00  0.00    +0.000 HD
ENDROOT
BRANCH   3   5
ATOM      5  C   UNL     1       2.440   6.497  19.884  0.00  0.00    +0.000 C 
ATOM      6  C   UNL     1       1.622   5.294  19.415  0.00  0.00    +0.000 C 
ATOM      7  O   UNL     1       1.984   4.978  18.063  0.00  0.00    +0.000 OA
ATOM      8  C   UNL     1       3.202   5.677  17.735  0.00  0.00    +0.000 C 
ATOM      9  C   UNL     1       4.333   4.685  17.461  0.00  0.00    +0.000 C 
ATOM     10  C   UNL     1       5.407   5.117  18.453  0.00  0.00    +0.000 C 
ATOM     11  O   UNL     1       4.712   5.685  19.565  0.00  0.00    +0.000 OA
ATOM     12  C   UNL     1       3.645   6.450  18.968  0.00  0.00    +0.000 C 
BRANCH   9  13
ATOM     13  O   UNL     1       4.779   4.786  16.107  0.00  0.00    +0.000 OA
BRANCH  13  14
ATOM     14  C   UNL     1       5.799   3.842  15.787  0.00  0.00    +0.000 C 
BRANCH  14  15
ATOM     15  C   UNL     1       6.312   4.066  14.386  0.00  0.00    +0.000 A 
ATOM     16  C   UNL     1       7.289   5.044  14.156  0.00  0.00    +0.000 A 
ATOM     17  C   UNL     1       7.787   5.264  12.871  0.00  0.00    +0.000 A 
ATOM     18  C   UNL     1       7.323   4.497  11.804  0.00  0.00    +0.000 A 
ATOM     19  C   UNL     1       6.367   3.507  12.023  0.00  0.00    +0.000 A 
ATOM     20  C   UNL     1       5.868   3.288  13.307  0.00  0.00    +0.000 A 
ENDBRANCH  14  15
ENDBRANCH  13  14
ENDBRANCH   9  13
ENDBRANCH   3   5
BRANCH   1  21
ATOM     21  C   UNL     1       0.612   9.815  20.745  0.00  0.00    +0.000 C 
BRANCH  21  22
ATOM     22  N   UNL     1      -0.182   9.613  19.530  0.00  0.00    +0.000 N 
ATOM     23  C   UNL     1      -0.213  10.462  18.478  0.00  0.00    +0.000 C 
ATOM     24  O   UNL     1       0.495  11.453  18.392  0.00  0.00    +0.000 OA
ATOM     25  H   UNL     1      -0.831   8.835  19.503  0.00  0.00    +0.000 HD
BRANCH  23  26
ATOM     26  O   UNL     1      -1.122  10.026  17.573  0.00  0.00    +0.000 OA
BRANCH  26  27
ATOM     27  C   UNL     1      -2.418  10.667  17.469  0.00  0.00    +0.000 C 
ATOM     28  C   UNL     1      -2.658  11.165  16.040  0.00  0.00    +0.000 C 
ATOM     29  C   UNL     1      -3.454   9.575  17.785  0.00  0.00    +0.000 C 
ATOM     30  C   UNL     1      -2.572  11.782  18.510  0.00  0.00    +0.000 C 
ENDBRANCH  26  27
ENDBRANCH  23  26
ENDBRANCH  21  22
BRANCH  21  32
ATOM     31  C   UNL     1      -1.199  11.350  21.815  0.00  0.00    +0.000 C 
ATOM     32  C   UNL     1      -0.376  10.074  21.910  0.00  0.00    +0.000 C 
BRANCH  32  33
ATOM     33  O   UNL     1       0.315  10.057  23.168  0.00  0.00    +0.000 OA
ATOM     34  H   UNL     1       0.000   9.259  23.646  0.00  0.00    +0.000 HD
ENDBRANCH  32  33
ENDBRANCH  21  32
ENDBRANCH   1  21
TORSDOF 10
ENDMDL
MODEL 7
REMARK VINA RESULT:      -7.3      3.322      8.281
REMARK  Name = 
REMARK  14 active torsions:
REMARK  status: ('A' for Active; 'I' for Inactive)
REMARK    1  A    between atoms: C_1  and  C_2
REMARK    2  A    between atoms: C_2  and  O_3
REMARK    3  A    between atoms: C_2  and  C_4
REMARK    4  A    between atoms: C_4  and  N_5
REMARK    5  A    between atoms: C_4  and  C_13
REMARK    6  A    between atoms: C_6  and  O_8
REMARK    7  A    between atoms: O_8  and  C_9
REMARK    8  A    between atoms: C_9  and  C_10
REMARK    9  A    between atoms: C_9  and  C_11
REMARK   10  A    between atoms: C_9  and  C_12
REMARK   11  A    between atoms: N_15  and  C_16
REMARK   12  A    between atoms: C_20  and  O_21
REMARK   13  A    between atoms: O_21  and  C_22
REMARK   14  A    between atoms: C_22  and  C_23
REMARK                            x       y       z     vdW  Elec       q    Type
REMARK                         _______ _______ _______ _____ _____    ______ ____
ROOT
ATOM      1  C   UNL     1       1.467   8.002  20.635  0.00  0.00    +0.000 C 
ATOM      2  O   UNL     1       0.945   7.431  21.596  0.00  0.00    +0.000 OA
ATOM      3  N   UNL     1       2.417   7.411  19.830  0.00  0.00    +0.000 N 
ATOM      4  H   UNL     1       2.450   7.787  18.878  0.00  0.00    +0.000 HD
ENDROOT
BRANCH   3   5
ATOM      5  C   UNL     1       2.900   6.026  19.954  0.00  0.00    +0.000 C 
ATOM      6  C   UNL     1       1.885   4.924  19.655  0.00  0.00    +0.000 C 
ATOM      7  O   UNL     1       2.124   4.410  18.337  0.00  0.00    +0.000 OA
ATOM      8  C   UNL     1       3.416   4.868  17.889  0.00  0.00    +0.000 C 
ATOM      9  C   UNL     1       4.366   3.687  17.692  0.00  0.00    +0.000 C 
ATOM     10  C   UNL     1       5.543   4.049  18.591  0.00  0.00    +0.000 C 
ATOM     11  O   UNL     1       5.002   4.836  19.652  0.00  0.00    +0.000 OA
ATOM     12  C   UNL     1       4.035   5.690  19.009  0.00  0.00    +0.000 C 
BRANCH   9  13
ATOM     13  O   UNL     1       4.751   3.568  16.321  0.00  0.00    +0.000 OA
BRANCH  13  14
ATOM     14  C   UNL     1       5.144   4.813  15.746  0.00  0.00    +0.000 C 
BRANCH  14  15
ATOM     15  C   UNL     1       5.878   4.591  14.446  0.00  0.00    +0.000 A 
ATOM     16  C   UNL     1       5.307   3.775  13.460  0.00  0.00    +0.000 A 
ATOM     17  C   UNL     1       5.961   3.563  12.246  0.00  0.00    +0.000 A 
ATOM     18  C   UNL     1       7.189   4.176  12.000  0.00  0.00    +0.000 A 
ATOM     19  C   UNL     1       7.757   5.006  12.963  0.00  0.00    +0.000 A 
ATOM     20  C   UNL     1       7.104   5.218  14.178  0.00  0.00    +0.000 A 
ENDBRANCH  14  15
ENDBRANCH  13  14
ENDBRANCH   9  13
ENDBRANCH   3   5
BRANCH   1  21
ATOM     21  C   UNL     1       1.027   9.421  20.192  0.00  0.00    +0.000 C 
BRANCH  21  22
ATOM     22  N   UNL     1       0.012   9.311  19.141  0.00  0.00    +0.000 N 
ATOM     23  C   UNL     1      -0.119  10.167  18.102  0.00  0.00    +0.000 C 
ATOM     24  O   UNL     1       0.660  11.080  17.880  0.00  0.00    +0.000 OA
ATOM     25  H   UNL     1      -0.708   8.605  19.239  0.00  0.00    +0.000 HD
BRANCH  23  26
ATOM     26  O   UNL     1      -1.215   9.833  17.378  0.00  0.00    +0.000 OA
BRANCH  26  27
ATOM     27  C   UNL     1      -2.379  10.699  17.372  0.00  0.00    +0.000 C 
ATOM     28  C   UNL     1      -2.624  11.256  15.966  0.00  0.00    +0.000 C 
ATOM     29  C   UNL     1      -3.570   9.804  17.756  0.00  0.00    +0.000 C 
ATOM     30  C   UNL     1      -2.256  11.805  18.426  0.00  0.00    +0.000 C 
ENDBRANCH  26  27
ENDBRANCH  23  26
ENDBRANCH  21  22
BRANCH  21  32
ATOM     31  C   UNL     1       0.342  11.731  21.181  0.00  0.00    +0.000 C 
ATOM     32  C   UNL     1       0.401  10.222  21.362  0.00  0.00    +0.000 C 
BRANCH  32  33
ATOM     33  O   UNL     1       1.079   9.925  22.592  0.00  0.00    +0.000 OA
ATOM     34  H   UNL     1       0.382   9.694  23.244  0.00  0.00    +0.000 HD
ENDBRANCH  32  33
ENDBRANCH  21  32
ENDBRANCH   1  21
TORSDOF 10
ENDMDL
MODEL 8
REMARK VINA RESULT:      -7.3      0.420      1.252
REMARK  Name = 
REMARK  14 active torsions:
REMARK  status: ('A' for Active; 'I' for Inactive)
REMARK    1  A    between atoms: C_1  and  C_2
REMARK    2  A    between atoms: C_2  and  O_3
REMARK    3  A    between atoms: C_2  and  C_4
REMARK    4  A    between atoms: C_4  and  N_5
REMARK    5  A    between atoms: C_4  and  C_13
REMARK    6  A    between atoms: C_6  and  O_8
REMARK    7  A    between atoms: O_8  and  C_9
REMARK    8  A    between atoms: C_9  and  C_10
REMARK    9  A    between atoms: C_9  and  C_11
REMARK   10  A    between atoms: C_9  and  C_12
REMARK   11  A    between atoms: N_15  and  C_16
REMARK   12  A    between atoms: C_20  and  O_21
REMARK   13  A    between atoms: O_21  and  C_22
REMARK   14  A    between atoms: C_22  and  C_23
REMARK                            x       y       z     vdW  Elec       q    Type
REMARK                         _______ _______ _______ _____ _____    ______ ____
ROOT
ATOM      1  C   UNL     1       6.058   4.151  17.994  0.00  0.00    +0.000 C 
ATOM      2  O   UNL     1       6.012   4.464  19.186  0.00  0.00    +0.000 OA
ATOM      3  N   UNL     1       5.152   3.296  17.402  0.00  0.00    +0.000 N 
ATOM      4  H   UNL     1       5.033   3.446  16.397  0.00  0.00    +0.000 HD
ENDROOT
BRANCH   3   5
ATOM      5  C   UNL     1       3.990   2.687  18.070  0.00  0.00    +0.000 C 
ATOM      6  C   UNL     1       4.202   2.217  19.508  0.00  0.00    +0.000 C 
ATOM      7  O   UNL     1       3.642   3.185  20.406  0.00  0.00    +0.000 OA
ATOM      8  C   UNL     1       2.798   4.080  19.654  0.00  0.00    +0.000 C 
ATOM      9  C   UNL     1       1.342   3.950  20.102  0.00  0.00    +0.000 C 
ATOM     10  C   UNL     1       0.619   3.612  18.803  0.00  0.00    +0.000 C 
ATOM     11  O   UNL     1       1.568   2.916  17.994  0.00  0.00    +0.000 OA
ATOM     12  C   UNL     1       2.807   3.623  18.203  0.00  0.00    +0.000 C 
BRANCH   9  13
ATOM     13  O   UNL     1       0.876   5.174  20.675  0.00  0.00    +0.000 OA
BRANCH  13  14
ATOM     14  C   UNL     1       1.907   6.151  20.808  0.00  0.00    +0.000 C 
BRANCH  14  15
ATOM     15  C   UNL     1       1.368   7.534  20.531  0.00  0.00    +0.000 A 
ATOM     16  C   UNL     1       1.798   8.228  19.393  0.00  0.00    +0.000 A 
ATOM     17  C   UNL     1       1.306   9.503  19.109  0.00  0.00    +0.000 A 
ATOM     18  C   UNL     1       0.369  10.092  19.956  0.00  0.00    +0.000 A 
ATOM     19  C   UNL     1      -0.083   9.404  21.080  0.00  0.00    +0.000 A 
ATOM     20  C   UNL     1       0.409   8.129  21.364  0.00  0.00    +0.000 A 
ENDBRANCH  14  15
ENDBRANCH  13  14
ENDBRANCH   9  13
ENDBRANCH   3   5
BRANCH   1  21
ATOM     21  C   UNL     1       7.099   4.770  17.028  0.00  0.00    +0.000 C 
BRANCH  21  22
ATOM     22  N   UNL     1       7.117   4.008  15.776  0.00  0.00    +0.000 N 
ATOM     23  C   UNL     1       6.204   4.129  14.786  0.00  0.00    +0.000 C 
ATOM     24  O   UNL     1       5.309   4.958  14.793  0.00  0.00    +0.000 OA
ATOM     25  H   UNL     1       7.802   3.269  15.673  0.00  0.00    +0.000 HD
BRANCH  23  26
ATOM     26  O   UNL     1       6.460   3.211  13.822  0.00  0.00    +0.000 OA
BRANCH  26  27
ATOM     27  C   UNL     1       6.483   3.602  12.426  0.00  0.00    +0.000 C 
ATOM     28  C   UNL     1       7.130   2.506  11.573  0.00  0.00    +0.000 C 
ATOM     29  C   UNL     1       5.011   3.742  12.004  0.00  0.00    +0.000 C 
ATOM     30  C   UNL     1       7.162   4.964  12.241  0.00  0.00    +0.000 C 
ENDBRANCH  26  27
ENDBRANCH  23  26
ENDBRANCH  21  22
BRANCH  21  32
ATOM     31  C   UNL     1       7.653   7.301  17.290  0.00  0.00    +0.000 C 
ATOM     32  C   UNL     1       6.756   6.239  16.674  0.00  0.00    +0.000 C 
BRANCH  32  33
ATOM     33  O   UNL     1       5.390   6.529  17.009  0.00  0.00    +0.000 OA
ATOM     34  H   UNL     1       4.883   6.483  16.170  0.00  0.00    +0.000 HD
ENDBRANCH  32  33
ENDBRANCH  21  32
ENDBRANCH   1  21
TORSDOF 10
ENDMDL
MODEL 9
REMARK VINA RESULT:      -7.3      4.216      6.847
REMARK  Name = 
REMARK  14 active torsions:
REMARK  status: ('A' for Active; 'I' for Inactive)
REMARK    1  A    between atoms: C_1  and  C_2
REMARK    2  A    between atoms: C_2  and  O_3
REMARK    3  A    between atoms: C_2  and  C_4
REMARK    4  A    between atoms: C_4  and  N_5
REMARK    5  A    between atoms: C_4  and  C_13
REMARK    6  A    between atoms: C_6  and  O_8
REMARK    7  A    between atoms: O_8  and  C_9
REMARK    8  A    between atoms: C_9  and  C_10
REMARK    9  A    between atoms: C_9  and  C_11
REMARK   10  A    between atoms: C_9  and  C_12
REMARK   11  A    between atoms: N_15  and  C_16
REMARK   12  A    between atoms: C_20  and  O_21
REMARK   13  A    between atoms: O_21  and  C_22
REMARK   14  A    between atoms: C_22  and  C_23
REMARK                            x       y       z     vdW  Elec       q    Type
REMARK                         _______ _______ _______ _____ _____    ______ ____
ROOT
ATOM      1  C   UNL     1       2.460   6.930  18.598  0.00  0.00    +0.000 C 
ATOM      2  O   UNL     1       3.400   7.408  17.957  0.00  0.00    +0.000 OA
ATOM      3  N   UNL     1       1.608   7.690  19.370  0.00  0.00    +0.000 N 
ATOM      4  H   UNL     1       0.676   7.282  19.489  0.00  0.00    +0.000 HD
ENDROOT
BRANCH   3   5
ATOM      5  C   UNL     1       1.651   9.156  19.500  0.00  0.00    +0.000 C 
ATOM      6  C   UNL     1       1.316   9.959  18.244  0.00  0.00    +0.000 C 
ATOM      7  O   UNL     1      -0.031  10.443  18.341  0.00  0.00    +0.000 OA
ATOM      8  C   UNL     1      -0.480  10.290  19.703  0.00  0.00    +0.000 C 
ATOM      9  C   UNL     1      -0.756  11.655  20.334  0.00  0.00    +0.000 C 
ATOM     10  C   UNL     1       0.137  11.641  21.569  0.00  0.00    +0.000 C 
ATOM     11  O   UNL     1       1.248  10.805  21.244  0.00  0.00    +0.000 OA
ATOM     12  C   UNL     1       0.668   9.706  20.511  0.00  0.00    +0.000 C 
BRANCH   9  13
ATOM     13  O   UNL     1      -2.139  11.789  20.670  0.00  0.00    +0.000 OA
BRANCH  13  14
ATOM     14  C   UNL     1      -2.448  13.055  21.250  0.00  0.00    +0.000 C 
BRANCH  14  15
ATOM     15  C   UNL     1      -3.532  12.913  22.290  0.00  0.00    +0.000 A 
ATOM     16  C   UNL     1      -4.870  13.123  21.928  0.00  0.00    +0.000 A 
ATOM     17  C   UNL     1      -5.891  12.986  22.869  0.00  0.00    +0.000 A 
ATOM     18  C   UNL     1      -5.586  12.625  24.180  0.00  0.00    +0.000 A 
ATOM     19  C   UNL     1      -4.263  12.393  24.548  0.00  0.00    +0.000 A 
ATOM     20  C   UNL     1      -3.241  12.530  23.607  0.00  0.00    +0.000 A 
ENDBRANCH  14  15
ENDBRANCH  13  14
ENDBRANCH   9  13
ENDBRANCH   3   5
BRANCH   1  21
ATOM     21  C   UNL     1       2.100   5.425  18.516  0.00  0.00    +0.000 C 
BRANCH  21  22
ATOM     22  N   UNL     1       2.962   4.769  17.529  0.00  0.00    +0.000 N 
ATOM     23  C   UNL     1       4.239   4.384  17.755  0.00  0.00    +0.000 C 
ATOM     24  O   UNL     1       4.783   4.464  18.845  0.00  0.00    +0.000 OA
ATOM     25  H   UNL     1       2.623   4.678  16.579  0.00  0.00    +0.000 HD
BRANCH  23  26
ATOM     26  O   UNL     1       4.776   3.905  16.607  0.00  0.00    +0.000 OA
BRANCH  26  27
ATOM     27  C   UNL     1       5.914   4.567  15.999  0.00  0.00    +0.000 C 
ATOM     28  C   UNL     1       6.230   3.945  14.634  0.00  0.00    +0.000 C 
ATOM     29  C   UNL     1       5.485   6.028  15.781  0.00  0.00    +0.000 C 
ATOM     30  C   UNL     1       7.126   4.563  16.937  0.00  0.00    +0.000 C 
ENDBRANCH  26  27
ENDBRANCH  23  26
ENDBRANCH  21  22
BRANCH  21  32
ATOM     31  C   UNL     1       1.095   4.004  20.453  0.00  0.00    +0.000 C 
ATOM     32  C   UNL     1       2.312   4.706  19.871  0.00  0.00    +0.000 C 
BRANCH  32  33
ATOM     33  O   UNL     1       2.836   5.620  20.847  0.00  0.00    +0.000 OA
ATOM     34  H   UNL     1       3.814   5.561  20.786  0.00  0.00    +0.000 HD
ENDBRANCH  32  33
ENDBRANCH  21  32
ENDBRANCH   1  21
TORSDOF 10
ENDMDL
