MODEL 1
REMARK VINA RESULT:      -6.8      0.000      0.000
REMARK  Name = 
REMARK  4 active torsions:
REMARK  status: ('A' for Active; 'I' for Inactive)
REMARK    1  A    between atoms: C_1  and  C_2
REMARK    2  A    between atoms: C_7  and  N_8
REMARK    3  A    between atoms: C_9  and  C_11
REMARK    4  A    between atoms: C_11  and  N_12
REMARK                            x       y       z     vdW  Elec       q    Type
REMARK                         _______ _______ _______ _____ _____    ______ ____
ROOT
ATOM      1  N   UNL     1       4.473   3.418  18.517  0.00  0.00    +0.000 N 
ATOM      2  C   UNL     1       5.366   4.479  18.617  0.00  0.00    +0.000 C 
ATOM      3  O   UNL     1       5.236   5.438  19.377  0.00  0.00    +0.000 OA
ATOM      4  H   UNL     1       4.471   2.924  17.633  0.00  0.00    +0.000 HD
ENDROOT
BRANCH   1  11
ATOM      5  C   UNL     1       1.786   4.350  17.678  0.00  0.00    +0.000 C 
ATOM      6  C   UNL     1       2.074   3.718  19.008  0.00  0.00    +0.000 A 
ATOM      7  C   UNL     1       1.014   3.599  19.931  0.00  0.00    +0.000 A 
ATOM      8  C   UNL     1       1.208   3.033  21.191  0.00  0.00    +0.000 A 
ATOM      9  C   UNL     1       2.461   2.553  21.540  0.00  0.00    +0.000 A 
ATOM     10  C   UNL     1       3.522   2.667  20.641  0.00  0.00    +0.000 A 
ATOM     11  C   UNL     1       3.357   3.273  19.386  0.00  0.00    +0.000 A 
ENDBRANCH   1  11
BRANCH   2  12
ATOM     12  C   UNL     1       6.594   4.408  17.701  0.00  0.00    +0.000 C 
BRANCH  12  13
ATOM     13  N   UNL     1       6.571   5.380  16.582  0.00  0.00    +0.000 NA
ATOM     14  C   UNL     1       5.209   5.429  16.001  0.00  0.00    +0.000 C 
ATOM     15  C   UNL     1       5.186   4.396  14.888  0.00  0.00    +0.000 C 
ATOM     16  C   UNL     1       6.581   4.481  14.313  0.00  0.00    +0.000 C 
ATOM     17  C   UNL     1       7.452   4.988  15.458  0.00  0.00    +0.000 C 
ENDBRANCH  12  13
ENDBRANCH   2  12
TORSDOF 3
ENDMDL
MODEL 2
REMARK VINA RESULT:      -6.6      2.028      5.577
REMARK  Name = 
REMARK  4 active torsions:
REMARK  status: ('A' for Active; 'I' for Inactive)
REMARK    1  A    between atoms: C_1  and  C_2
REMARK    2  A    between atoms: C_7  and  N_8
REMARK    3  A    between atoms: C_9  and  C_11
REMARK    4  A    between atoms: C_11  and  N_12
REMARK                            x       y       z     vdW  Elec       q    Type
REMARK                         _______ _______ _______ _____ _____    ______ ____
ROOT
ATOM      1  N   UNL     1       4.012   5.069  18.057  0.00  0.00    +0.000 N 
ATOM      2  C   UNL     1       3.768   3.861  17.413  0.00  0.00    +0.000 C 
ATOM      3  O   UNL     1       4.614   3.207  16.804  0.00  0.00    +0.000 OA
ATOM      4  H   UNL     1       3.211   5.679  18.171  0.00  0.00    +0.000 HD
ENDROOT
BRANCH   1  11
ATOM      5  C   UNL     1       5.044   6.953  16.013  0.00  0.00    +0.000 C 
ATOM      6  C   UNL     1       5.828   6.511  17.214  0.00  0.00    +0.000 A 
ATOM      7  C   UNL     1       7.148   6.986  17.358  0.00  0.00    +0.000 A 
ATOM      8  C   UNL     1       7.941   6.609  18.442  0.00  0.00    +0.000 A 
ATOM      9  C   UNL     1       7.418   5.772  19.415  0.00  0.00    +0.000 A 
ATOM     10  C   UNL     1       6.115   5.290  19.286  0.00  0.00    +0.000 A 
ATOM     11  C   UNL     1       5.316   5.622  18.180  0.00  0.00    +0.000 A 
ENDBRANCH   1  11
BRANCH   2  12
ATOM     12  C   UNL     1       2.330   3.338  17.495  0.00  0.00    +0.000 C 
BRANCH  12  13
ATOM     13  N   UNL     1       2.121   2.302  18.535  0.00  0.00    +0.000 NA
ATOM     14  C   UNL     1       0.781   2.478  19.142  0.00  0.00    +0.000 C 
ATOM     15  C   UNL     1       0.975   3.400  20.334  0.00  0.00    +0.000 C 
ATOM     16  C   UNL     1       2.328   2.992  20.867  0.00  0.00    +0.000 C 
ATOM     17  C   UNL     1       3.072   2.417  19.665  0.00  0.00    +0.000 C 
ENDBRANCH  12  13
ENDBRANCH   2  12
TORSDOF 3
ENDMDL
MODEL 3
REMARK VINA RESULT:      -6.5      1.579      5.654
REMARK  Name = 
REMARK  4 active torsions:
REMARK  status: ('A' for Active; 'I' for Inactive)
REMARK    1  A    between atoms: C_1  and  C_2
REMARK    2  A    between atoms: C_7  and  N_8
REMARK    3  A    between atoms: C_9  and  C_11
REMARK    4  A    between atoms: C_11  and  N_12
REMARK                            x       y       z     vdW  Elec       q    Type
REMARK                         _______ _______ _______ _____ _____    ______ ____
ROOT
ATOM      1  N   UNL     1       4.205   3.245  17.796  0.00  0.00    +0.000 N 
ATOM      2  C   UNL     1       4.623   3.178  19.121  0.00  0.00    +0.000 C 
ATOM      3  O   UNL     1       5.635   3.719  19.566  0.00  0.00    +0.000 OA
ATOM      4  H   UNL     1       3.622   2.480  17.478  0.00  0.00    +0.000 HD
ENDROOT
BRANCH   1  11
ATOM      5  C   UNL     1       3.654   6.156  17.665  0.00  0.00    +0.000 C 
ATOM      6  C   UNL     1       4.599   5.442  16.745  0.00  0.00    +0.000 A 
ATOM      7  C   UNL     1       5.231   6.190  15.730  0.00  0.00    +0.000 A 
ATOM      8  C   UNL     1       6.113   5.594  14.829  0.00  0.00    +0.000 A 
ATOM      9  C   UNL     1       6.400   4.242  14.945  0.00  0.00    +0.000 A 
ATOM     10  C   UNL     1       5.780   3.486  15.940  0.00  0.00    +0.000 A 
ATOM     11  C   UNL     1       4.855   4.059  16.828  0.00  0.00    +0.000 A 
ENDBRANCH   1  11
BRANCH   2  12
ATOM     12  C   UNL     1       3.728   2.368  20.064  0.00  0.00    +0.000 C 
BRANCH  12  13
ATOM     13  N   UNL     1       3.023   3.185  21.081  0.00  0.00    +0.000 NA
ATOM     14  C   UNL     1       1.714   2.562  21.390  0.00  0.00    +0.000 C 
ATOM     15  C   UNL     1       0.712   3.186  20.434  0.00  0.00    +0.000 C 
ATOM     16  C   UNL     1       1.199   4.611  20.309  0.00  0.00    +0.000 C 
ATOM     17  C   UNL     1       2.695   4.547  20.602  0.00  0.00    +0.000 C 
ENDBRANCH  12  13
ENDBRANCH   2  12
TORSDOF 3
ENDMDL
MODEL 4
REMARK VINA RESULT:      -6.4      1.472      5.835
REMARK  Name = 
REMARK  4 active torsions:
REMARK  status: ('A' for Active; 'I' for Inactive)
REMARK    1  A    between atoms: C_1  and  C_2
REMARK    2  A    between atoms: C_7  and  N_8
REMARK    3  A    between atoms: C_9  and  C_11
REMARK    4  A    between atoms: C_11  and  N_12
REMARK                            x       y       z     vdW  Elec       q    Type
REMARK                         _______ _______ _______ _____ _____    ______ ____
ROOT
ATOM      1  N   UNL     1       4.777   4.393  18.287  0.00  0.00    +0.000 N 
ATOM      2  C   UNL     1       3.911   5.397  18.707  0.00  0.00    +0.000 C 
ATOM      3  O   UNL     1       3.764   6.479  18.139  0.00  0.00    +0.000 OA
ATOM      4  H   UNL     1       5.095   3.755  19.007  0.00  0.00    +0.000 HD
ENDROOT
BRANCH   1  11
ATOM      5  C   UNL     1       7.615   5.253  18.288  0.00  0.00    +0.000 C 
ATOM      6  C   UNL     1       6.853   4.886  17.049  0.00  0.00    +0.000 A 
ATOM      7  C   UNL     1       7.512   4.997  15.807  0.00  0.00    +0.000 A 
ATOM      8  C   UNL     1       6.864   4.685  14.611  0.00  0.00    +0.000 A 
ATOM      9  C   UNL     1       5.555   4.231  14.639  0.00  0.00    +0.000 A 
ATOM     10  C   UNL     1       4.887   4.119  15.859  0.00  0.00    +0.000 A 
ATOM     11  C   UNL     1       5.507   4.471  17.069  0.00  0.00    +0.000 A 
ENDBRANCH   1  11
BRANCH   2  12
ATOM     12  C   UNL     1       3.094   5.093  19.967  0.00  0.00    +0.000 C 
BRANCH  12  13
ATOM     13  N   UNL     1       1.680   4.738  19.701  0.00  0.00    +0.000 NA
ATOM     14  C   UNL     1       1.212   3.780  20.731  0.00  0.00    +0.000 C 
ATOM     15  C   UNL     1       1.491   2.394  20.177  0.00  0.00    +0.000 C 
ATOM     16  C   UNL     1       1.237   2.558  18.696  0.00  0.00    +0.000 C 
ATOM     17  C   UNL     1       1.492   4.035  18.411  0.00  0.00    +0.000 C 
ENDBRANCH  12  13
ENDBRANCH   2  12
TORSDOF 3
ENDMDL
MODEL 5
REMARK VINA RESULT:      -6.3      1.729      5.794
REMARK  Name = 
REMARK  4 active torsions:
REMARK  status: ('A' for Active; 'I' for Inactive)
REMARK    1  A    between atoms: C_1  and  C_2
REMARK    2  A    between atoms: C_7  and  N_8
REMARK    3  A    between atoms: C_9  and  C_11
REMARK    4  A    between atoms: C_11  and  N_12
REMARK                            x       y       z     vdW  Elec       q    Type
REMARK                         _______ _______ _______ _____ _____    ______ ____
ROOT
ATOM      1  N   UNL     1       5.005   3.669  18.183  0.00  0.00    +0.000 N 
ATOM      2  C   UNL     1       3.841   2.947  18.420  0.00  0.00    +0.000 C 
ATOM      3  O   UNL     1       2.924   2.807  17.610  0.00  0.00    +0.000 OA
ATOM      4  H   UNL     1       5.474   4.032  19.004  0.00  0.00    +0.000 HD
ENDROOT
BRANCH   1  11
ATOM      5  C   UNL     1       4.378   6.510  17.608  0.00  0.00    +0.000 C 
ATOM      6  C   UNL     1       5.014   5.578  16.619  0.00  0.00    +0.000 A 
ATOM      7  C   UNL     1       5.291   6.068  15.327  0.00  0.00    +0.000 A 
ATOM      8  C   UNL     1       5.869   5.257  14.350  0.00  0.00    +0.000 A 
ATOM      9  C   UNL     1       6.206   3.948  14.659  0.00  0.00    +0.000 A 
ATOM     10  C   UNL     1       5.935   3.445  15.932  0.00  0.00    +0.000 A 
ATOM     11  C   UNL     1       5.312   4.233  16.914  0.00  0.00    +0.000 A 
ENDBRANCH   1  11
BRANCH   2  12
ATOM     12  C   UNL     1       3.732   2.286  19.798  0.00  0.00    +0.000 C 
BRANCH  12  13
ATOM     13  N   UNL     1       3.222   3.184  20.862  0.00  0.00    +0.000 NA
ATOM     14  C   UNL     1       2.022   2.576  21.484  0.00  0.00    +0.000 C 
ATOM     15  C   UNL     1       0.830   3.098  20.701  0.00  0.00    +0.000 C 
ATOM     16  C   UNL     1       1.237   4.512  20.357  0.00  0.00    +0.000 C 
ATOM     17  C   UNL     1       2.763   4.493  20.343  0.00  0.00    +0.000 C 
ENDBRANCH  12  13
ENDBRANCH   2  12
TORSDOF 3
ENDMDL
MODEL 6
REMARK VINA RESULT:      -6.2      1.345      6.063
REMARK  Name = 
REMARK  4 active torsions:
REMARK  status: ('A' for Active; 'I' for Inactive)
REMARK    1  A    between atoms: C_1  and  C_2
REMARK    2  A    between atoms: C_7  and  N_8
REMARK    3  A    between atoms: C_9  and  C_11
REMARK    4  A    between atoms: C_11  and  N_12
REMARK                            x       y       z     vdW  Elec       q    Type
REMARK                         _______ _______ _______ _____ _____    ______ ____
ROOT
ATOM      1  N   UNL     1       5.048   4.427  18.232  0.00  0.00    +0.000 N 
ATOM      2  C   UNL     1       4.000   5.259  18.611  0.00  0.00    +0.000 C 
ATOM      3  O   UNL     1       3.606   6.230  17.967  0.00  0.00    +0.000 OA
ATOM      4  H   UNL     1       5.518   3.938  18.984  0.00  0.00    +0.000 HD
ENDROOT
BRANCH   1  11
ATOM      5  C   UNL     1       7.560   5.987  17.997  0.00  0.00    +0.000 C 
ATOM      6  C   UNL     1       6.895   5.293  16.844  0.00  0.00    +0.000 A 
ATOM      7  C   UNL     1       7.475   5.425  15.566  0.00  0.00    +0.000 A 
ATOM      8  C   UNL     1       6.908   4.819  14.444  0.00  0.00    +0.000 A 
ATOM      9  C   UNL     1       5.766   4.047  14.588  0.00  0.00    +0.000 A 
ATOM     10  C   UNL     1       5.176   3.910  15.845  0.00  0.00    +0.000 A 
ATOM     11  C   UNL     1       5.707   4.549  16.977  0.00  0.00    +0.000 A 
ENDBRANCH   1  11
BRANCH   2  12
ATOM     12  C   UNL     1       3.307   4.901  19.931  0.00  0.00    +0.000 C 
BRANCH  12  13
ATOM     13  N   UNL     1       3.114   3.447  20.139  0.00  0.00    +0.000 NA
ATOM     14  C   UNL     1       2.034   2.962  19.248  0.00  0.00    +0.000 C 
ATOM     15  C   UNL     1       0.745   3.079  20.044  0.00  0.00    +0.000 C 
ATOM     16  C   UNL     1       1.180   2.746  21.452  0.00  0.00    +0.000 C 
ATOM     17  C   UNL     1       2.659   3.114  21.509  0.00  0.00    +0.000 C 
ENDBRANCH  12  13
ENDBRANCH   2  12
TORSDOF 3
ENDMDL
MODEL 7
REMARK VINA RESULT:      -6.2      1.905      5.440
REMARK  Name = 
REMARK  4 active torsions:
REMARK  status: ('A' for Active; 'I' for Inactive)
REMARK    1  A    between atoms: C_1  and  C_2
REMARK    2  A    between atoms: C_7  and  N_8
REMARK    3  A    between atoms: C_9  and  C_11
REMARK    4  A    between atoms: C_11  and  N_12
REMARK                            x       y       z     vdW  Elec       q    Type
REMARK                         _______ _______ _______ _____ _____    ______ ____
ROOT
ATOM      1  N   UNL     1       5.865   4.103  18.547  0.00  0.00    +0.000 N 
ATOM      2  C   UNL     1       4.707   4.017  19.312  0.00  0.00    +0.000 C 
ATOM      3  O   UNL     1       4.185   4.961  19.904  0.00  0.00    +0.000 OA
ATOM      4  H   UNL     1       6.393   3.244  18.447  0.00  0.00    +0.000 HD
ENDROOT
BRANCH   1  11
ATOM      5  C   UNL     1       5.021   5.753  16.231  0.00  0.00    +0.000 C 
ATOM      6  C   UNL     1       6.130   6.133  17.170  0.00  0.00    +0.000 A 
ATOM      7  C   UNL     1       6.841   7.323  16.911  0.00  0.00    +0.000 A 
ATOM      8  C   UNL     1       7.891   7.734  17.732  0.00  0.00    +0.000 A 
ATOM      9  C   UNL     1       8.230   6.976  18.841  0.00  0.00    +0.000 A 
ATOM     10  C   UNL     1       7.540   5.793  19.109  0.00  0.00    +0.000 A 
ATOM     11  C   UNL     1       6.510   5.339  18.270  0.00  0.00    +0.000 A 
ENDBRANCH   1  11
BRANCH   2  12
ATOM     12  C   UNL     1       4.060   2.630  19.393  0.00  0.00    +0.000 C 
BRANCH  12  13
ATOM     13  N   UNL     1       3.133   2.327  18.277  0.00  0.00    +0.000 NA
ATOM     14  C   UNL     1       2.582   3.594  17.739  0.00  0.00    +0.000 C 
ATOM     15  C   UNL     1       1.301   3.859  18.512  0.00  0.00    +0.000 C 
ATOM     16  C   UNL     1       0.740   2.473  18.731  0.00  0.00    +0.000 C 
ATOM     17  C   UNL     1       1.950   1.545  18.702  0.00  0.00    +0.000 C 
ENDBRANCH  12  13
ENDBRANCH   2  12
TORSDOF 3
ENDMDL
MODEL 8
REMARK VINA RESULT:      -6.2      0.915      1.533
REMARK  Name = 
REMARK  4 active torsions:
REMARK  status: ('A' for Active; 'I' for Inactive)
REMARK    1  A    between atoms: C_1  and  C_2
REMARK    2  A    between atoms: C_7  and  N_8
REMARK    3  A    between atoms: C_9  and  C_11
REMARK    4  A    between atoms: C_11  and  N_12
REMARK                            x       y       z     vdW  Elec       q    Type
REMARK                         _______ _______ _______ _____ _____    ______ ____
ROOT
ATOM      1  N   UNL     1       4.556   3.337  18.768  0.00  0.00    +0.000 N 
ATOM      2  C   UNL     1       5.408   4.426  18.918  0.00  0.00    +0.000 C 
ATOM      3  O   UNL     1       5.178   5.405  19.627  0.00  0.00    +0.000 OA
ATOM      4  H   UNL     1       4.655   2.815  17.905  0.00  0.00    +0.000 HD
ENDROOT
BRANCH   1  11
ATOM      5  C   UNL     1       1.944   4.162  17.632  0.00  0.00    +0.000 C 
ATOM      6  C   UNL     1       2.113   3.583  19.007  0.00  0.00    +0.000 A 
ATOM      7  C   UNL     1       0.969   3.464  19.823  0.00  0.00    +0.000 A 
ATOM      8  C   UNL     1       1.051   2.947  21.116  0.00  0.00    +0.000 A 
ATOM      9  C   UNL     1       2.273   2.514  21.605  0.00  0.00    +0.000 A 
ATOM     10  C   UNL     1       3.416   2.629  20.812  0.00  0.00    +0.000 A 
ATOM     11  C   UNL     1       3.362   3.188  19.525  0.00  0.00    +0.000 A 
ENDBRANCH   1  11
BRANCH   2  12
ATOM     12  C   UNL     1       6.722   4.360  18.131  0.00  0.00    +0.000 C 
BRANCH  12  13
ATOM     13  N   UNL     1       6.642   4.936  16.768  0.00  0.00    +0.000 NA
ATOM     14  C   UNL     1       7.263   6.282  16.766  0.00  0.00    +0.000 C 
ATOM     15  C   UNL     1       6.144   7.264  17.068  0.00  0.00    +0.000 C 
ATOM     16  C   UNL     1       4.952   6.652  16.370  0.00  0.00    +0.000 C 
ATOM     17  C   UNL     1       5.249   5.157  16.314  0.00  0.00    +0.000 C 
ENDBRANCH  12  13
ENDBRANCH   2  12
TORSDOF 3
ENDMDL
MODEL 9
REMARK VINA RESULT:      -6.2      1.514      2.037
REMARK  Name = 
REMARK  4 active torsions:
REMARK  status: ('A' for Active; 'I' for Inactive)
REMARK    1  A    between atoms: C_1  and  C_2
REMARK    2  A    between atoms: C_7  and  N_8
REMARK    3  A    between atoms: C_9  and  C_11
REMARK    4  A    between atoms: C_11  and  N_12
REMARK                            x       y       z     vdW  Elec       q    Type
REMARK                         _______ _______ _______ _____ _____    ______ ____
ROOT
ATOM      1  N   UNL     1       3.979   5.094  18.872  0.00  0.00    +0.000 N 
ATOM      2  C   UNL     1       5.270   4.647  19.136  0.00  0.00    +0.000 C 
ATOM      3  O   UNL     1       5.552   3.526  19.557  0.00  0.00    +0.000 OA
ATOM      4  H   UNL     1       3.842   6.097  18.914  0.00  0.00    +0.000 HD
ENDROOT
BRANCH   1  11
ATOM      5  C   UNL     1       1.796   5.682  20.792  0.00  0.00    +0.000 C 
ATOM      6  C   UNL     1       1.800   4.501  19.866  0.00  0.00    +0.000 A 
ATOM      7  C   UNL     1       0.724   3.593  19.942  0.00  0.00    +0.000 A 
ATOM      8  C   UNL     1       0.664   2.466  19.122  0.00  0.00    +0.000 A 
ATOM      9  C   UNL     1       1.668   2.242  18.193  0.00  0.00    +0.000 A 
ATOM     10  C   UNL     1       2.743   3.128  18.107  0.00  0.00    +0.000 A 
ATOM     11  C   UNL     1       2.843   4.243  18.954  0.00  0.00    +0.000 A 
ENDBRANCH   1  11
BRANCH   2  12
ATOM     12  C   UNL     1       6.394   5.652  18.861  0.00  0.00    +0.000 C 
BRANCH  12  13
ATOM     13  N   UNL     1       6.975   5.555  17.501  0.00  0.00    +0.000 NA
ATOM     14  C   UNL     1       6.661   6.790  16.744  0.00  0.00    +0.000 C 
ATOM     15  C   UNL     1       5.350   6.523  16.024  0.00  0.00    +0.000 C 
ATOM     16  C   UNL     1       5.450   5.060  15.660  0.00  0.00    +0.000 C 
ATOM     17  C   UNL     1       6.390   4.456  16.699  0.00  0.00    +0.000 C 
ENDBRANCH  12  13
ENDBRANCH   2  12
TORSDOF 3
ENDMDL
