MODEL 1
REMARK VINA RESULT:      -7.7      0.000      0.000
REMARK  Name = 
REMARK  2 active torsions:
REMARK  status: ('A' for Active; 'I' for Inactive)
REMARK    1  A    between atoms: C_2  and  OXT_3
REMARK    2  A    between atoms: C_2  and  CA_4
REMARK                            x       y       z     vdW  Elec       q    Type
REMARK                         _______ _______ _______ _____ _____    ______ ____
ROOT
ATOM      1  CA  UNL     1       5.846   5.040  15.069  0.00  0.00    +0.000 A 
ATOM      2  C   UNL     1       5.633   6.399  15.260  0.00  0.00    +0.000 A 
ATOM      3  C   UNL     1       4.817   6.792  16.318  0.00  0.00    +0.000 A 
ATOM      4  C   UNL     1       4.259   5.819  17.152  0.00  0.00    +0.000 A 
ATOM      5  C   UNL     1       4.542   4.488  16.905  0.00  0.00    +0.000 A 
ATOM      6  N   UNL     1       5.320   4.069  15.866  0.00  0.00    +0.000 NA
ATOM      7  C   UNL     1       4.013   3.431  17.801  0.00  0.00    +0.000 C 
ATOM      8  O   UNL     1       4.344   2.265  17.632  0.00  0.00    +0.000 OA
ATOM      9  C   UNL     1       3.100   3.856  18.876  0.00  0.00    +0.000 C 
ATOM     10  C   UNL     1       2.788   5.136  19.108  0.00  0.00    +0.000 C 
ATOM     11  N   UNL     1       1.910   5.579  20.078  0.00  0.00    +0.000 N 
ATOM     12  C   UNL     1       1.079   4.769  20.793  0.00  0.00    +0.000 C 
ATOM     13  C   UNL     1       1.149   3.436  20.811  0.00  0.00    +0.000 C 
ATOM     14  S   UNL     1       2.437   2.660  19.936  0.00  0.00    +0.000 S 
ATOM     15  O   UNL     1       3.450   2.307  20.914  0.00  0.00    +0.000 OA
ATOM     16  O   UNL     1       1.796   1.626  19.144  0.00  0.00    +0.000 OA
ATOM     17  C   UNL     1       3.383   6.207  18.259  0.00  0.00    +0.000 C 
ATOM     18  O   UNL     1       3.118   7.386  18.471  0.00  0.00    +0.000 OA
ATOM     19  H   UNL     1       1.740   6.590  20.087  0.00  0.00    +0.000 HD
ENDROOT
BRANCH   1  21
ATOM     20  O   UNL     1       7.572   5.235  13.417  0.00  0.00    +0.000 OA
ATOM     21  C   UNL     1       6.692   4.572  13.933  0.00  0.00    +0.000 C 
BRANCH  21  22
ATOM     22  OXT UNL     1       6.341   3.324  13.547  0.00  0.00    +0.000 OA
ATOM     23  HXT UNL     1       5.921   2.836  14.295  0.00  0.00    +0.000 HD
ENDBRANCH  21  22
ENDBRANCH   1  21
TORSDOF 2
ENDMDL
MODEL 2
REMARK VINA RESULT:      -7.4      1.570      1.704
REMARK  Name = 
REMARK  2 active torsions:
REMARK  status: ('A' for Active; 'I' for Inactive)
REMARK    1  A    between atoms: C_2  and  OXT_3
REMARK    2  A    between atoms: C_2  and  CA_4
REMARK                            x       y       z     vdW  Elec       q    Type
REMARK                         _______ _______ _______ _____ _____    ______ ____
ROOT
ATOM      1  CA  UNL     1       6.416   4.556  15.083  0.00  0.00    +0.000 A 
ATOM      2  C   UNL     1       7.264   5.183  15.986  0.00  0.00    +0.000 A 
ATOM      3  C   UNL     1       6.831   5.324  17.302  0.00  0.00    +0.000 A 
ATOM      4  C   UNL     1       5.580   4.821  17.671  0.00  0.00    +0.000 A 
ATOM      5  C   UNL     1       4.808   4.189  16.713  0.00  0.00    +0.000 A 
ATOM      6  N   UNL     1       5.193   4.052  15.412  0.00  0.00    +0.000 NA
ATOM      7  C   UNL     1       3.499   3.594  17.078  0.00  0.00    +0.000 C 
ATOM      8  O   UNL     1       2.866   2.955  16.249  0.00  0.00    +0.000 OA
ATOM      9  C   UNL     1       3.026   3.807  18.457  0.00  0.00    +0.000 C 
ATOM     10  C   UNL     1       3.745   4.446  19.387  0.00  0.00    +0.000 C 
ATOM     11  N   UNL     1       3.328   4.702  20.678  0.00  0.00    +0.000 N 
ATOM     12  C   UNL     1       2.052   4.529  21.125  0.00  0.00    +0.000 C 
ATOM     13  C   UNL     1       1.091   3.894  20.451  0.00  0.00    +0.000 C 
ATOM     14  S   UNL     1       1.495   3.153  18.929  0.00  0.00    +0.000 S 
ATOM     15  O   UNL     1       1.667   1.736  19.190  0.00  0.00    +0.000 OA
ATOM     16  O   UNL     1       0.478   3.606  17.999  0.00  0.00    +0.000 OA
ATOM     17  C   UNL     1       5.095   4.974  19.043  0.00  0.00    +0.000 C 
ATOM     18  O   UNL     1       5.771   5.548  19.891  0.00  0.00    +0.000 OA
ATOM     19  H   UNL     1       3.979   5.253  21.248  0.00  0.00    +0.000 HD
ENDROOT
BRANCH   1  21
ATOM     20  O   UNL     1       7.518   5.209  13.056  0.00  0.00    +0.000 OA
ATOM     21  C   UNL     1       6.827   4.406  13.657  0.00  0.00    +0.000 C 
BRANCH  21  22
ATOM     22  OXT UNL     1       6.320   3.272  13.121  0.00  0.00    +0.000 OA
ATOM     23  HXT UNL     1       7.025   2.765  12.655  0.00  0.00    +0.000 HD
ENDBRANCH  21  22
ENDBRANCH   1  21
TORSDOF 2
ENDMDL
MODEL 3
REMARK VINA RESULT:      -7.1      2.967      5.706
REMARK  Name = 
REMARK  2 active torsions:
REMARK  status: ('A' for Active; 'I' for Inactive)
REMARK    1  A    between atoms: C_2  and  OXT_3
REMARK    2  A    between atoms: C_2  and  CA_4
REMARK                            x       y       z     vdW  Elec       q    Type
REMARK                         _______ _______ _______ _____ _____    ______ ____
ROOT
ATOM      1  CA  UNL     1       1.611   3.652  18.826  0.00  0.00    +0.000 A 
ATOM      2  C   UNL     1       1.100   4.577  17.925  0.00  0.00    +0.000 A 
ATOM      3  C   UNL     1       1.968   5.532  17.401  0.00  0.00    +0.000 A 
ATOM      4  C   UNL     1       3.314   5.518  17.782  0.00  0.00    +0.000 A 
ATOM      5  C   UNL     1       3.745   4.546  18.667  0.00  0.00    +0.000 A 
ATOM      6  N   UNL     1       2.917   3.610  19.213  0.00  0.00    +0.000 NA
ATOM      7  C   UNL     1       5.176   4.465  19.051  0.00  0.00    +0.000 C 
ATOM      8  O   UNL     1       5.566   3.547  19.759  0.00  0.00    +0.000 OA
ATOM      9  C   UNL     1       6.069   5.519  18.541  0.00  0.00    +0.000 C 
ATOM     10  C   UNL     1       5.661   6.486  17.711  0.00  0.00    +0.000 C 
ATOM     11  N   UNL     1       6.452   7.515  17.238  0.00  0.00    +0.000 N 
ATOM     12  C   UNL     1       7.695   7.812  17.710  0.00  0.00    +0.000 C 
ATOM     13  C   UNL     1       8.401   7.032  18.532  0.00  0.00    +0.000 C 
ATOM     14  S   UNL     1       7.743   5.484  18.977  0.00  0.00    +0.000 S 
ATOM     15  O   UNL     1       8.409   4.496  18.148  0.00  0.00    +0.000 OA
ATOM     16  O   UNL     1       7.856   5.419  20.423  0.00  0.00    +0.000 OA
ATOM     17  C   UNL     1       4.241   6.522  17.260  0.00  0.00    +0.000 C 
ATOM     18  O   UNL     1       3.858   7.394  16.487  0.00  0.00    +0.000 OA
ATOM     19  H   UNL     1       5.969   8.206  16.653  0.00  0.00    +0.000 HD
ENDROOT
BRANCH   1  21
ATOM     20  O   UNL     1       0.120   1.776  18.797  0.00  0.00    +0.000 OA
ATOM     21  C   UNL     1       0.712   2.629  19.433  0.00  0.00    +0.000 C 
BRANCH  21  22
ATOM     22  OXT UNL     1       0.634   2.783  20.774  0.00  0.00    +0.000 OA
ATOM     23  HXT UNL     1       1.468   3.173  21.126  0.00  0.00    +0.000 HD
ENDBRANCH  21  22
ENDBRANCH   1  21
TORSDOF 2
ENDMDL
MODEL 4
REMARK VINA RESULT:      -7.0      2.449      6.554
REMARK  Name = 
REMARK  2 active torsions:
REMARK  status: ('A' for Active; 'I' for Inactive)
REMARK    1  A    between atoms: C_2  and  OXT_3
REMARK    2  A    between atoms: C_2  and  CA_4
REMARK                            x       y       z     vdW  Elec       q    Type
REMARK                         _______ _______ _______ _____ _____    ______ ____
ROOT
ATOM      1  CA  UNL     1       1.738   6.691  20.579  0.00  0.00    +0.000 A 
ATOM      2  C   UNL     1       1.578   5.365  20.956  0.00  0.00    +0.000 A 
ATOM      3  C   UNL     1       2.276   4.392  20.246  0.00  0.00    +0.000 A 
ATOM      4  C   UNL     1       3.119   4.779  19.199  0.00  0.00    +0.000 A 
ATOM      5  C   UNL     1       3.239   6.125  18.904  0.00  0.00    +0.000 A 
ATOM      6  N   UNL     1       2.554   7.101  19.567  0.00  0.00    +0.000 NA
ATOM      7  C   UNL     1       4.165   6.579  17.837  0.00  0.00    +0.000 C 
ATOM      8  O   UNL     1       4.337   7.774  17.646  0.00  0.00    +0.000 OA
ATOM      9  C   UNL     1       4.847   5.536  17.052  0.00  0.00    +0.000 C 
ATOM     10  C   UNL     1       4.715   4.228  17.301  0.00  0.00    +0.000 C 
ATOM     11  N   UNL     1       5.304   3.215  16.570  0.00  0.00    +0.000 N 
ATOM     12  C   UNL     1       5.928   3.392  15.371  0.00  0.00    +0.000 C 
ATOM     13  C   UNL     1       6.243   4.578  14.847  0.00  0.00    +0.000 C 
ATOM     14  S   UNL     1       5.921   6.011  15.781  0.00  0.00    +0.000 S 
ATOM     15  O   UNL     1       7.183   6.410  16.377  0.00  0.00    +0.000 OA
ATOM     16  O   UNL     1       5.223   6.908  14.880  0.00  0.00    +0.000 OA
ATOM     17  C   UNL     1       3.849   3.774  18.425  0.00  0.00    +0.000 C 
ATOM     18  O   UNL     1       3.732   2.578  18.674  0.00  0.00    +0.000 OA
ATOM     19  H   UNL     1       5.057   2.263  16.861  0.00  0.00    +0.000 HD
ENDROOT
BRANCH   1  21
ATOM     20  O   UNL     1      -0.220   7.897  21.256  0.00  0.00    +0.000 OA
ATOM     21  C   UNL     1       0.989   7.765  21.295  0.00  0.00    +0.000 C 
BRANCH  21  22
ATOM     22  OXT UNL     1       1.832   8.574  21.977  0.00  0.00    +0.000 OA
ATOM     23  HXT UNL     1       2.414   9.070  21.355  0.00  0.00    +0.000 HD
ENDBRANCH  21  22
ENDBRANCH   1  21
TORSDOF 2
ENDMDL
MODEL 5
REMARK VINA RESULT:      -7.0      2.665      4.863
REMARK  Name = 
REMARK  2 active torsions:
REMARK  status: ('A' for Active; 'I' for Inactive)
REMARK    1  A    between atoms: C_2  and  OXT_3
REMARK    2  A    between atoms: C_2  and  CA_4
REMARK                            x       y       z     vdW  Elec       q    Type
REMARK                         _______ _______ _______ _____ _____    ______ ____
ROOT
ATOM      1  CA  UNL     1       2.290   8.535  18.259  0.00  0.00    +0.000 A 
ATOM      2  C   UNL     1       3.360   8.419  17.380  0.00  0.00    +0.000 A 
ATOM      3  C   UNL     1       4.095   7.237  17.394  0.00  0.00    +0.000 A 
ATOM      4  C   UNL     1       3.728   6.210  18.270  0.00  0.00    +0.000 A 
ATOM      5  C   UNL     1       2.634   6.399  19.095  0.00  0.00    +0.000 A 
ATOM      6  N   UNL     1       1.905   7.552  19.120  0.00  0.00    +0.000 NA
ATOM      7  C   UNL     1       2.180   5.313  19.998  0.00  0.00    +0.000 C 
ATOM      8  O   UNL     1       1.158   5.452  20.655  0.00  0.00    +0.000 OA
ATOM      9  C   UNL     1       3.005   4.094  20.050  0.00  0.00    +0.000 C 
ATOM     10  C   UNL     1       4.086   3.909  19.283  0.00  0.00    +0.000 C 
ATOM     11  N   UNL     1       4.910   2.801  19.323  0.00  0.00    +0.000 N 
ATOM     12  C   UNL     1       4.863   1.840  20.288  0.00  0.00    +0.000 C 
ATOM     13  C   UNL     1       3.891   1.721  21.194  0.00  0.00    +0.000 C 
ATOM     14  S   UNL     1       2.533   2.805  21.103  0.00  0.00    +0.000 S 
ATOM     15  O   UNL     1       1.456   2.069  20.466  0.00  0.00    +0.000 OA
ATOM     16  O   UNL     1       2.366   3.327  22.447  0.00  0.00    +0.000 OA
ATOM     17  C   UNL     1       4.496   4.966  18.317  0.00  0.00    +0.000 C 
ATOM     18  O   UNL     1       5.476   4.802  17.597  0.00  0.00    +0.000 OA
ATOM     19  H   UNL     1       5.729   2.841  18.707  0.00  0.00    +0.000 HD
ENDROOT
BRANCH   1  21
ATOM     20  O   UNL     1       0.496   9.951  18.981  0.00  0.00    +0.000 OA
ATOM     21  C   UNL     1       1.491   9.793  18.297  0.00  0.00    +0.000 C 
BRANCH  21  22
ATOM     22  OXT UNL     1       2.009  10.724  17.464  0.00  0.00    +0.000 OA
ATOM     23  HXT UNL     1       2.167  11.569  17.946  0.00  0.00    +0.000 HD
ENDBRANCH  21  22
ENDBRANCH   1  21
TORSDOF 2
ENDMDL
MODEL 6
REMARK VINA RESULT:      -6.9      3.680      5.251
REMARK  Name = 
REMARK  2 active torsions:
REMARK  status: ('A' for Active; 'I' for Inactive)
REMARK    1  A    between atoms: C_2  and  OXT_3
REMARK    2  A    between atoms: C_2  and  CA_4
REMARK                            x       y       z     vdW  Elec       q    Type
REMARK                         _______ _______ _______ _____ _____    ______ ____
ROOT
ATOM      1  CA  UNL     1       3.874   5.017  18.312  0.00  0.00    +0.000 A 
ATOM      2  C   UNL     1       4.189   5.798  17.208  0.00  0.00    +0.000 A 
ATOM      3  C   UNL     1       3.661   7.085  17.142  0.00  0.00    +0.000 A 
ATOM      4  C   UNL     1       2.852   7.549  18.184  0.00  0.00    +0.000 A 
ATOM      5  C   UNL     1       2.607   6.714  19.259  0.00  0.00    +0.000 A 
ATOM      6  N   UNL     1       3.093   5.442  19.345  0.00  0.00    +0.000 NA
ATOM      7  C   UNL     1       1.800   7.190  20.409  0.00  0.00    +0.000 C 
ATOM      8  O   UNL     1       1.666   6.481  21.396  0.00  0.00    +0.000 OA
ATOM      9  C   UNL     1       1.194   8.528  20.295  0.00  0.00    +0.000 C 
ATOM     10  C   UNL     1       1.393   9.336  19.247  0.00  0.00    +0.000 C 
ATOM     11  N   UNL     1       0.818  10.580  19.081  0.00  0.00    +0.000 N 
ATOM     12  C   UNL     1      -0.194  11.072  19.851  0.00  0.00    +0.000 C 
ATOM     13  C   UNL     1      -0.616  10.520  20.991  0.00  0.00    +0.000 C 
ATOM     14  S   UNL     1       0.224   9.123  21.599  0.00  0.00    +0.000 S 
ATOM     15  O   UNL     1       1.111   9.596  22.647  0.00  0.00    +0.000 OA
ATOM     16  O   UNL     1      -0.811   8.153  21.902  0.00  0.00    +0.000 OA
ATOM     17  C   UNL     1       2.270   8.890  18.128  0.00  0.00    +0.000 C 
ATOM     18  O   UNL     1       2.473   9.627  17.168  0.00  0.00    +0.000 OA
ATOM     19  H   UNL     1       1.032  11.047  18.193  0.00  0.00    +0.000 HD
ENDROOT
BRANCH   1  21
ATOM     20  O   UNL     1       3.760   2.631  18.109  0.00  0.00    +0.000 OA
ATOM     21  C   UNL     1       4.396   3.624  18.413  0.00  0.00    +0.000 C 
BRANCH  21  22
ATOM     22  OXT UNL     1       5.659   3.611  18.897  0.00  0.00    +0.000 OA
ATOM     23  HXT UNL     1       5.875   4.475  19.321  0.00  0.00    +0.000 HD
ENDBRANCH  21  22
ENDBRANCH   1  21
TORSDOF 2
ENDMDL
MODEL 7
REMARK VINA RESULT:      -6.8      3.215      6.558
REMARK  Name = 
REMARK  2 active torsions:
REMARK  status: ('A' for Active; 'I' for Inactive)
REMARK    1  A    between atoms: C_2  and  OXT_3
REMARK    2  A    between atoms: C_2  and  CA_4
REMARK                            x       y       z     vdW  Elec       q    Type
REMARK                         _______ _______ _______ _____ _____    ______ ____
ROOT
ATOM      1  CA  UNL     1       0.641   8.931  21.287  0.00  0.00    +0.000 A 
ATOM      2  C   UNL     1       0.784   9.858  20.263  0.00  0.00    +0.000 A 
ATOM      3  C   UNL     1       1.506   9.481  19.134  0.00  0.00    +0.000 A 
ATOM      4  C   UNL     1       2.044   8.193  19.062  0.00  0.00    +0.000 A 
ATOM      5  C   UNL     1       1.834   7.323  20.117  0.00  0.00    +0.000 A 
ATOM      6  N   UNL     1       1.149   7.667  21.245  0.00  0.00    +0.000 NA
ATOM      7  C   UNL     1       2.342   5.931  20.053  0.00  0.00    +0.000 C 
ATOM      8  O   UNL     1       2.072   5.141  20.947  0.00  0.00    +0.000 OA
ATOM      9  C   UNL     1       3.159   5.567  18.883  0.00  0.00    +0.000 C 
ATOM     10  C   UNL     1       3.400   6.406  17.869  0.00  0.00    +0.000 C 
ATOM     11  N   UNL     1       4.189   6.123  16.771  0.00  0.00    +0.000 N 
ATOM     12  C   UNL     1       5.001   5.032  16.666  0.00  0.00    +0.000 C 
ATOM     13  C   UNL     1       4.984   3.991  17.500  0.00  0.00    +0.000 C 
ATOM     14  S   UNL     1       3.794   3.961  18.769  0.00  0.00    +0.000 S 
ATOM     15  O   UNL     1       2.730   3.082  18.320  0.00  0.00    +0.000 OA
ATOM     16  O   UNL     1       4.531   3.656  19.981  0.00  0.00    +0.000 OA
ATOM     17  C   UNL     1       2.823   7.780  17.894  0.00  0.00    +0.000 C 
ATOM     18  O   UNL     1       3.024   8.554  16.963  0.00  0.00    +0.000 OA
ATOM     19  H   UNL     1       4.316   6.897  16.111  0.00  0.00    +0.000 HD
ENDROOT
BRANCH   1  21
ATOM     20  O   UNL     1       0.103  10.311  23.172  0.00  0.00    +0.000 OA
ATOM     21  C   UNL     1      -0.102   9.299  22.527  0.00  0.00    +0.000 C 
BRANCH  21  22
ATOM     22  OXT UNL     1      -1.021   8.357  22.842  0.00  0.00    +0.000 OA
ATOM     23  HXT UNL     1      -1.755   8.753  23.367  0.00  0.00    +0.000 HD
ENDBRANCH  21  22
ENDBRANCH   1  21
TORSDOF 2
ENDMDL
MODEL 8
REMARK VINA RESULT:      -6.6      4.197      7.101
REMARK  Name = 
REMARK  2 active torsions:
REMARK  status: ('A' for Active; 'I' for Inactive)
REMARK    1  A    between atoms: C_2  and  OXT_3
REMARK    2  A    between atoms: C_2  and  CA_4
REMARK                            x       y       z     vdW  Elec       q    Type
REMARK                         _______ _______ _______ _____ _____    ______ ____
ROOT
ATOM      1  CA  UNL     1       1.958   4.964  20.433  0.00  0.00    +0.000 A 
ATOM      2  C   UNL     1       2.629   4.901  19.219  0.00  0.00    +0.000 A 
ATOM      3  C   UNL     1       2.741   6.070  18.470  0.00  0.00    +0.000 A 
ATOM      4  C   UNL     1       2.194   7.258  18.966  0.00  0.00    +0.000 A 
ATOM      5  C   UNL     1       1.562   7.237  20.196  0.00  0.00    +0.000 A 
ATOM      6  N   UNL     1       1.419   6.106  20.945  0.00  0.00    +0.000 NA
ATOM      7  C   UNL     1       1.019   8.488  20.781  0.00  0.00    +0.000 C 
ATOM      8  O   UNL     1       0.547   8.479  21.909  0.00  0.00    +0.000 OA
ATOM      9  C   UNL     1       1.086   9.701  19.949  0.00  0.00    +0.000 C 
ATOM     10  C   UNL     1       1.663   9.731  18.742  0.00  0.00    +0.000 C 
ATOM     11  N   UNL     1       1.717  10.834  17.913  0.00  0.00    +0.000 N 
ATOM     12  C   UNL     1       1.011  11.984  18.111  0.00  0.00    +0.000 C 
ATOM     13  C   UNL     1       0.348  12.283  19.230  0.00  0.00    +0.000 C 
ATOM     14  S   UNL     1       0.446  11.183  20.575  0.00  0.00    +0.000 S 
ATOM     15  O   UNL     1       1.416  11.743  21.499  0.00  0.00    +0.000 OA
ATOM     16  O   UNL     1      -0.925  10.967  20.997  0.00  0.00    +0.000 OA
ATOM     17  C   UNL     1       2.281   8.494  18.188  0.00  0.00    +0.000 C 
ATOM     18  O   UNL     1       2.827   8.512  17.090  0.00  0.00    +0.000 OA
ATOM     19  H   UNL     1       2.147  10.674  16.997  0.00  0.00    +0.000 HD
ENDROOT
BRANCH   1  21
ATOM     20  O   UNL     1       2.535   3.412  22.167  0.00  0.00    +0.000 OA
ATOM     21  C   UNL     1       1.792   3.732  21.257  0.00  0.00    +0.000 C 
BRANCH  21  22
ATOM     22  OXT UNL     1       0.720   3.015  20.850  0.00  0.00    +0.000 OA
ATOM     23  HXT UNL     1       0.804   2.075  21.135  0.00  0.00    +0.000 HD
ENDBRANCH  21  22
ENDBRANCH   1  21
TORSDOF 2
ENDMDL
MODEL 9
REMARK VINA RESULT:      -6.5      2.882      4.516
REMARK  Name = 
REMARK  2 active torsions:
REMARK  status: ('A' for Active; 'I' for Inactive)
REMARK    1  A    between atoms: C_2  and  OXT_3
REMARK    2  A    between atoms: C_2  and  CA_4
REMARK                            x       y       z     vdW  Elec       q    Type
REMARK                         _______ _______ _______ _____ _____    ______ ____
ROOT
ATOM      1  CA  UNL     1       5.427   4.718  17.235  0.00  0.00    +0.000 A 
ATOM      2  C   UNL     1       5.185   3.894  18.326  0.00  0.00    +0.000 A 
ATOM      3  C   UNL     1       4.260   4.319  19.277  0.00  0.00    +0.000 A 
ATOM      4  C   UNL     1       3.601   5.539  19.095  0.00  0.00    +0.000 A 
ATOM      5  C   UNL     1       3.884   6.287  17.967  0.00  0.00    +0.000 A 
ATOM      6  N   UNL     1       4.798   5.909  17.028  0.00  0.00    +0.000 NA
ATOM      7  C   UNL     1       3.165   7.559  17.712  0.00  0.00    +0.000 C 
ATOM      8  O   UNL     1       3.352   8.167  16.667  0.00  0.00    +0.000 OA
ATOM      9  C   UNL     1       2.238   8.028  18.756  0.00  0.00    +0.000 C 
ATOM     10  C   UNL     1       1.979   7.333  19.870  0.00  0.00    +0.000 C 
ATOM     11  N   UNL     1       1.148   7.748  20.892  0.00  0.00    +0.000 N 
ATOM     12  C   UNL     1       0.642   9.009  21.011  0.00  0.00    +0.000 C 
ATOM     13  C   UNL     1       0.701   9.942  20.059  0.00  0.00    +0.000 C 
ATOM     14  S   UNL     1       1.390   9.517  18.519  0.00  0.00    +0.000 S 
ATOM     15  O   UNL     1       0.277   9.269  17.620  0.00  0.00    +0.000 OA
ATOM     16  O   UNL     1       2.347  10.567  18.223  0.00  0.00    +0.000 OA
ATOM     17  C   UNL     1       2.639   6.015  20.090  0.00  0.00    +0.000 C 
ATOM     18  O   UNL     1       2.398   5.361  21.099  0.00  0.00    +0.000 OA
ATOM     19  H   UNL     1       1.101   7.121  21.702  0.00  0.00    +0.000 HD
ENDROOT
BRANCH   1  21
ATOM     20  O   UNL     1       7.445   4.938  15.961  0.00  0.00    +0.000 OA
ATOM     21  C   UNL     1       6.428   4.315  16.206  0.00  0.00    +0.000 C 
BRANCH  21  22
ATOM     22  OXT UNL     1       6.050   3.180  15.576  0.00  0.00    +0.000 OA
ATOM     23  HXT UNL     1       5.315   3.363  14.945  0.00  0.00    +0.000 HD
ENDBRANCH  21  22
ENDBRANCH   1  21
TORSDOF 2
ENDMDL
