MODEL 1
REMARK VINA RESULT:      -6.0      0.000      0.000
REMARK  Name = 
REMARK  6 active torsions:
REMARK  status: ('A' for Active; 'I' for Inactive)
REMARK    1  A    between atoms: C_1  and  C_2
REMARK    2  A    between atoms: C_2  and  C_3
REMARK    3  A    between atoms: C_4  and  C_5
REMARK    4  A    between atoms: C_5  and  N_6
REMARK    5  A    between atoms: C_8  and  C_9
REMARK    6  A    between atoms: C_21  and  C_22
REMARK                            x       y       z     vdW  Elec       q    Type
REMARK                         _______ _______ _______ _____ _____    ______ ____
ROOT
ATOM      1  N   UNL     1      -0.179  13.354  20.562  0.00  0.00    +0.000 NA
ATOM      2  C   UNL     1       0.876  12.380  20.910  0.00  0.00    +0.000 C 
ATOM      3  C   UNL     1       0.705  10.869  20.576  0.00  0.00    +0.000 C 
ATOM      4  C   UNL     1       0.041  10.043  21.692  0.00  0.00    +0.000 C 
ATOM      5  N   UNL     1       0.050  10.619  19.292  0.00  0.00    +0.000 N 
ATOM      6  C   UNL     1       0.493   9.802  18.232  0.00  0.00    +0.000 A 
ATOM      7  S   UNL     1       1.953   9.052  18.008  0.00  0.00    +0.000 S 
ATOM      8  N   UNL     1      -0.566   9.718  17.314  0.00  0.00    +0.000 N 
ATOM      9  C   UNL     1      -1.646  10.447  17.800  0.00  0.00    +0.000 A 
ATOM     10  C   UNL     1      -2.885  10.628  17.240  0.00  0.00    +0.000 A 
ATOM     11  C   UNL     1      -3.764  11.446  17.947  0.00  0.00    +0.000 A 
ATOM     12 CL   UNL     1      -5.361  11.681  17.342  0.00  0.00    +0.000 Cl
ATOM     13  C   UNL     1      -3.374  12.107  19.134  0.00  0.00    +0.000 A 
ATOM     14  C   UNL     1      -2.081  11.953  19.672  0.00  0.00    +0.000 A 
ATOM     15  C   UNL     1      -1.268  11.038  19.009  0.00  0.00    +0.000 A 
ATOM     16  C   UNL     1      -1.540  12.804  20.813  0.00  0.00    +0.000 C 
ATOM     17  C   UNL     1      -2.447  13.955  21.284  0.00  0.00    +0.000 C 
ATOM     18  H   UNL     1      -0.521   9.217  16.440  0.00  0.00    +0.000 HD
ENDROOT
BRANCH   1  19
ATOM     19  C   UNL     1      -0.013  13.928  19.214  0.00  0.00    +0.000 C 
BRANCH  19  23
ATOM     20  C   UNL     1       3.455  15.377  18.109  0.00  0.00    +0.000 C 
ATOM     21  C   UNL     1       2.363  14.383  18.402  0.00  0.00    +0.000 C 
ATOM     22  C   UNL     1       2.630  12.968  17.958  0.00  0.00    +0.000 C 
ATOM     23  C   UNL     1       1.225  14.771  19.016  0.00  0.00    +0.000 C 
ENDBRANCH  19  23
ENDBRANCH   1  19
TORSDOF 2
ENDMDL
MODEL 2
REMARK VINA RESULT:      -5.9      0.988      1.438
REMARK  Name = 
REMARK  6 active torsions:
REMARK  status: ('A' for Active; 'I' for Inactive)
REMARK    1  A    between atoms: C_1  and  C_2
REMARK    2  A    between atoms: C_2  and  C_3
REMARK    3  A    between atoms: C_4  and  C_5
REMARK    4  A    between atoms: C_5  and  N_6
REMARK    5  A    between atoms: C_8  and  C_9
REMARK    6  A    between atoms: C_21  and  C_22
REMARK                            x       y       z     vdW  Elec       q    Type
REMARK                         _______ _______ _______ _____ _____    ______ ____
ROOT
ATOM      1  N   UNL     1      -0.188  13.528  20.435  0.00  0.00    +0.000 NA
ATOM      2  C   UNL     1       0.903  12.593  20.781  0.00  0.00    +0.000 C 
ATOM      3  C   UNL     1       0.753  11.065  20.524  0.00  0.00    +0.000 C 
ATOM      4  C   UNL     1       0.155  10.278  21.703  0.00  0.00    +0.000 C 
ATOM      5  N   UNL     1       0.051  10.742  19.282  0.00  0.00    +0.000 N 
ATOM      6  C   UNL     1       0.468   9.887  18.242  0.00  0.00    +0.000 A 
ATOM      7  S   UNL     1       1.933   9.158  17.990  0.00  0.00    +0.000 S 
ATOM      8  N   UNL     1      -0.626   9.738  17.374  0.00  0.00    +0.000 N 
ATOM      9  C   UNL     1      -1.702  10.466  17.873  0.00  0.00    +0.000 A 
ATOM     10  C   UNL     1      -2.966  10.595  17.358  0.00  0.00    +0.000 A 
ATOM     11  C   UNL     1      -3.834  11.426  18.064  0.00  0.00    +0.000 A 
ATOM     12 CL   UNL     1      -5.460  11.599  17.517  0.00  0.00    +0.000 Cl
ATOM     13  C   UNL     1      -3.410  12.149  19.202  0.00  0.00    +0.000 A 
ATOM     14  C   UNL     1      -2.093  12.048  19.691  0.00  0.00    +0.000 A 
ATOM     15  C   UNL     1      -1.287  11.121  19.036  0.00  0.00    +0.000 A 
ATOM     16  C   UNL     1      -1.524  12.961  20.768  0.00  0.00    +0.000 C 
ATOM     17  C   UNL     1      -2.437  14.114  21.224  0.00  0.00    +0.000 C 
ATOM     18  H   UNL     1      -0.607   9.198  16.523  0.00  0.00    +0.000 HD
ENDROOT
BRANCH   1  19
ATOM     19  C   UNL     1      -0.091  14.042  19.056  0.00  0.00    +0.000 C 
BRANCH  19  23
ATOM     20  C   UNL     1       1.658  17.532  18.731  0.00  0.00    +0.000 C 
ATOM     21  C   UNL     1       0.577  16.485  18.745  0.00  0.00    +0.000 C 
ATOM     22  C   UNL     1      -0.835  17.002  18.642  0.00  0.00    +0.000 C 
ATOM     23  C   UNL     1       0.887  15.175  18.855  0.00  0.00    +0.000 C 
ENDBRANCH  19  23
ENDBRANCH   1  19
TORSDOF 2
ENDMDL
MODEL 3
REMARK VINA RESULT:      -5.9      9.192     11.292
REMARK  Name = 
REMARK  6 active torsions:
REMARK  status: ('A' for Active; 'I' for Inactive)
REMARK    1  A    between atoms: C_1  and  C_2
REMARK    2  A    between atoms: C_2  and  C_3
REMARK    3  A    between atoms: C_4  and  C_5
REMARK    4  A    between atoms: C_5  and  N_6
REMARK    5  A    between atoms: C_8  and  C_9
REMARK    6  A    between atoms: C_21  and  C_22
REMARK                            x       y       z     vdW  Elec       q    Type
REMARK                         _______ _______ _______ _____ _____    ______ ____
ROOT
ATOM      1  N   UNL     1      10.874  12.542  19.502  0.00  0.00    +0.000 NA
ATOM      2  C   UNL     1      12.122  13.194  19.054  0.00  0.00    +0.000 C 
ATOM      3  C   UNL     1      12.083  14.379  18.045  0.00  0.00    +0.000 C 
ATOM      4  C   UNL     1      12.167  13.959  16.567  0.00  0.00    +0.000 C 
ATOM      5  N   UNL     1      10.964  15.297  18.257  0.00  0.00    +0.000 N 
ATOM      6  C   UNL     1      11.002  16.699  18.404  0.00  0.00    +0.000 A 
ATOM      7  S   UNL     1      12.297  17.712  18.595  0.00  0.00    +0.000 S 
ATOM      8  N   UNL     1       9.671  17.146  18.372  0.00  0.00    +0.000 N 
ATOM      9  C   UNL     1       8.830  16.053  18.190  0.00  0.00    +0.000 A 
ATOM     10  C   UNL     1       7.462  16.027  18.089  0.00  0.00    +0.000 A 
ATOM     11  C   UNL     1       6.882  14.769  17.942  0.00  0.00    +0.000 A 
ATOM     12 CL   UNL     1       5.173  14.651  17.750  0.00  0.00    +0.000 Cl
ATOM     13  C   UNL     1       7.655  13.585  17.970  0.00  0.00    +0.000 A 
ATOM     14  C   UNL     1       9.054  13.623  18.127  0.00  0.00    +0.000 A 
ATOM     15  C   UNL     1       9.614  14.897  18.151  0.00  0.00    +0.000 A 
ATOM     16  C   UNL     1       9.904  12.386  18.383  0.00  0.00    +0.000 C 
ATOM     17  C   UNL     1       9.132  11.071  18.594  0.00  0.00    +0.000 C 
ATOM     18  H   UNL     1       9.393  18.109  18.483  0.00  0.00    +0.000 HD
ENDROOT
BRANCH   1  19
ATOM     19  C   UNL     1      10.295  13.169  20.704  0.00  0.00    +0.000 C 
BRANCH  19  23
ATOM     20  C   UNL     1       7.865  11.549  23.315  0.00  0.00    +0.000 C 
ATOM     21  C   UNL     1       8.668  12.591  22.583  0.00  0.00    +0.000 C 
ATOM     22  C   UNL     1       8.398  14.021  22.977  0.00  0.00    +0.000 C 
ATOM     23  C   UNL     1       9.557  12.233  21.631  0.00  0.00    +0.000 C 
ENDBRANCH  19  23
ENDBRANCH   1  19
TORSDOF 2
ENDMDL
MODEL 4
REMARK VINA RESULT:      -5.8      6.369      8.750
REMARK  Name = 
REMARK  6 active torsions:
REMARK  status: ('A' for Active; 'I' for Inactive)
REMARK    1  A    between atoms: C_1  and  C_2
REMARK    2  A    between atoms: C_2  and  C_3
REMARK    3  A    between atoms: C_4  and  C_5
REMARK    4  A    between atoms: C_5  and  N_6
REMARK    5  A    between atoms: C_8  and  C_9
REMARK    6  A    between atoms: C_21  and  C_22
REMARK                            x       y       z     vdW  Elec       q    Type
REMARK                         _______ _______ _______ _____ _____    ______ ____
ROOT
ATOM      1  N   UNL     1       1.920   6.358  18.843  0.00  0.00    +0.000 NA
ATOM      2  C   UNL     1       1.497   4.942  18.856  0.00  0.00    +0.000 C 
ATOM      3  C   UNL     1       2.476   3.815  18.416  0.00  0.00    +0.000 C 
ATOM      4  C   UNL     1       2.417   3.471  16.918  0.00  0.00    +0.000 C 
ATOM      5  N   UNL     1       3.859   4.038  18.838  0.00  0.00    +0.000 N 
ATOM      6  C   UNL     1       4.708   3.159  19.542  0.00  0.00    +0.000 A 
ATOM      7  S   UNL     1       4.365   1.720  20.286  0.00  0.00    +0.000 S 
ATOM      8  N   UNL     1       5.989   3.733  19.527  0.00  0.00    +0.000 N 
ATOM      9  C   UNL     1       5.942   4.927  18.816  0.00  0.00    +0.000 A 
ATOM     10  C   UNL     1       6.958   5.807  18.543  0.00  0.00    +0.000 A 
ATOM     11  C   UNL     1       6.605   6.950  17.829  0.00  0.00    +0.000 A 
ATOM     12 CL   UNL     1       7.832   8.080  17.393  0.00  0.00    +0.000 Cl
ATOM     13  C   UNL     1       5.263   7.220  17.473  0.00  0.00    +0.000 A 
ATOM     14  C   UNL     1       4.221   6.333  17.805  0.00  0.00    +0.000 A 
ATOM     15  C   UNL     1       4.622   5.146  18.412  0.00  0.00    +0.000 A 
ATOM     16  C   UNL     1       2.745   6.673  17.645  0.00  0.00    +0.000 C 
ATOM     17  C   UNL     1       2.431   8.116  17.209  0.00  0.00    +0.000 C 
ATOM     18  H   UNL     1       6.796   3.333  19.981  0.00  0.00    +0.000 HD
ENDROOT
BRANCH   1  19
ATOM     19  C   UNL     1       2.532   6.789  20.114  0.00  0.00    +0.000 C 
BRANCH  19  23
ATOM     20  C   UNL     1      -0.212   8.721  22.135  0.00  0.00    +0.000 C 
ATOM     21  C   UNL     1       0.854   8.433  21.112  0.00  0.00    +0.000 C 
ATOM     22  C   UNL     1       1.048   9.488  20.053  0.00  0.00    +0.000 C 
ATOM     23  C   UNL     1       1.565   7.286  21.163  0.00  0.00    +0.000 C 
ENDBRANCH  19  23
ENDBRANCH   1  19
TORSDOF 2
ENDMDL
MODEL 5
REMARK VINA RESULT:      -5.8      2.823      5.549
REMARK  Name = 
REMARK  6 active torsions:
REMARK  status: ('A' for Active; 'I' for Inactive)
REMARK    1  A    between atoms: C_1  and  C_2
REMARK    2  A    between atoms: C_2  and  C_3
REMARK    3  A    between atoms: C_4  and  C_5
REMARK    4  A    between atoms: C_5  and  N_6
REMARK    5  A    between atoms: C_8  and  C_9
REMARK    6  A    between atoms: C_21  and  C_22
REMARK                            x       y       z     vdW  Elec       q    Type
REMARK                         _______ _______ _______ _____ _____    ______ ____
ROOT
ATOM      1  N   UNL     1      -0.243   9.663  19.128  0.00  0.00    +0.000 NA
ATOM      2  C   UNL     1      -0.686   9.362  20.505  0.00  0.00    +0.000 C 
ATOM      3  C   UNL     1      -0.249  10.263  21.697  0.00  0.00    +0.000 C 
ATOM      4  C   UNL     1       1.058   9.824  22.379  0.00  0.00    +0.000 C 
ATOM      5  N   UNL     1      -0.206  11.689  21.373  0.00  0.00    +0.000 N 
ATOM      6  C   UNL     1      -0.818  12.758  22.059  0.00  0.00    +0.000 A 
ATOM      7  S   UNL     1      -1.927  12.733  23.288  0.00  0.00    +0.000 S 
ATOM      8  N   UNL     1      -0.318  13.942  21.495  0.00  0.00    +0.000 N 
ATOM      9  C   UNL     1       0.597  13.618  20.498  0.00  0.00    +0.000 A 
ATOM     10  C   UNL     1       1.332  14.457  19.699  0.00  0.00    +0.000 A 
ATOM     11  C   UNL     1       2.152  13.841  18.755  0.00  0.00    +0.000 A 
ATOM     12 CL   UNL     1       3.153  14.820  17.749  0.00  0.00    +0.000 Cl
ATOM     13  C   UNL     1       2.167  12.438  18.585  0.00  0.00    +0.000 A 
ATOM     14  C   UNL     1       1.368  11.591  19.377  0.00  0.00    +0.000 A 
ATOM     15  C   UNL     1       0.652  12.226  20.388  0.00  0.00    +0.000 A 
ATOM     16  C   UNL     1       1.178  10.107  19.093  0.00  0.00    +0.000 C 
ATOM     17  C   UNL     1       1.816   9.584  17.794  0.00  0.00    +0.000 C 
ATOM     18  H   UNL     1      -0.604  14.868  21.773  0.00  0.00    +0.000 HD
ENDROOT
BRANCH   1  19
ATOM     19  C   UNL     1      -1.162  10.565  18.409  0.00  0.00    +0.000 C 
BRANCH  19  23
ATOM     20  C   UNL     1      -3.178   9.953  15.106  0.00  0.00    +0.000 C 
ATOM     21  C   UNL     1      -2.836  10.446  16.487  0.00  0.00    +0.000 C 
ATOM     22  C   UNL     1      -3.810  11.423  17.093  0.00  0.00    +0.000 C 
ATOM     23  C   UNL     1      -1.714  10.026  17.111  0.00  0.00    +0.000 C 
ENDBRANCH  19  23
ENDBRANCH   1  19
TORSDOF 2
ENDMDL
MODEL 6
REMARK VINA RESULT:      -5.6      7.085      9.334
REMARK  Name = 
REMARK  6 active torsions:
REMARK  status: ('A' for Active; 'I' for Inactive)
REMARK    1  A    between atoms: C_1  and  C_2
REMARK    2  A    between atoms: C_2  and  C_3
REMARK    3  A    between atoms: C_4  and  C_5
REMARK    4  A    between atoms: C_5  and  N_6
REMARK    5  A    between atoms: C_8  and  C_9
REMARK    6  A    between atoms: C_21  and  C_22
REMARK                            x       y       z     vdW  Elec       q    Type
REMARK                         _______ _______ _______ _____ _____    ______ ____
ROOT
ATOM      1  N   UNL     1       6.322   5.468  16.383  0.00  0.00    +0.000 NA
ATOM      2  C   UNL     1       6.293   4.112  16.970  0.00  0.00    +0.000 C 
ATOM      3  C   UNL     1       5.254   3.742  18.069  0.00  0.00    +0.000 C 
ATOM      4  C   UNL     1       5.736   3.991  19.508  0.00  0.00    +0.000 C 
ATOM      5  N   UNL     1       3.935   4.339  17.857  0.00  0.00    +0.000 N 
ATOM      6  C   UNL     1       2.681   3.694  17.831  0.00  0.00    +0.000 A 
ATOM      7  S   UNL     1       2.318   2.079  17.816  0.00  0.00    +0.000 S 
ATOM      8  N   UNL     1       1.706   4.704  17.807  0.00  0.00    +0.000 N 
ATOM      9  C   UNL     1       2.337   5.944  17.839  0.00  0.00    +0.000 A 
ATOM     10  C   UNL     1       1.776   7.195  17.842  0.00  0.00    +0.000 A 
ATOM     11  C   UNL     1       2.666   8.267  17.843  0.00  0.00    +0.000 A 
ATOM     12 CL   UNL     1       2.045   9.874  17.906  0.00  0.00    +0.000 Cl
ATOM     13  C   UNL     1       4.065   8.072  17.770  0.00  0.00    +0.000 A 
ATOM     14  C   UNL     1       4.627   6.782  17.714  0.00  0.00    +0.000 A 
ATOM     15  C   UNL     1       3.719   5.733  17.836  0.00  0.00    +0.000 A 
ATOM     16  C   UNL     1       6.096   6.517  17.415  0.00  0.00    +0.000 C 
ATOM     17  C   UNL     1       6.939   7.750  17.042  0.00  0.00    +0.000 C 
ATOM     18  H   UNL     1       0.713   4.534  17.759  0.00  0.00    +0.000 HD
ENDROOT
BRANCH   1  19
ATOM     19  C   UNL     1       5.452   5.604  15.200  0.00  0.00    +0.000 C 
BRANCH  19  23
ATOM     20  C   UNL     1       6.394   2.887  12.540  0.00  0.00    +0.000 C 
ATOM     21  C   UNL     1       6.397   4.187  13.300  0.00  0.00    +0.000 C 
ATOM     22  C   UNL     1       7.493   5.154  12.938  0.00  0.00    +0.000 C 
ATOM     23  C   UNL     1       5.466   4.432  14.248  0.00  0.00    +0.000 C 
ENDBRANCH  19  23
ENDBRANCH   1  19
TORSDOF 2
ENDMDL
MODEL 7
REMARK VINA RESULT:      -5.6      3.482      5.165
REMARK  Name = 
REMARK  6 active torsions:
REMARK  status: ('A' for Active; 'I' for Inactive)
REMARK    1  A    between atoms: C_1  and  C_2
REMARK    2  A    between atoms: C_2  and  C_3
REMARK    3  A    between atoms: C_4  and  C_5
REMARK    4  A    between atoms: C_5  and  N_6
REMARK    5  A    between atoms: C_8  and  C_9
REMARK    6  A    between atoms: C_21  and  C_22
REMARK                            x       y       z     vdW  Elec       q    Type
REMARK                         _______ _______ _______ _____ _____    ______ ____
ROOT
ATOM      1  N   UNL     1      -1.244  12.824  22.641  0.00  0.00    +0.000 NA
ATOM      2  C   UNL     1      -2.183  13.668  23.409  0.00  0.00    +0.000 C 
ATOM      3  C   UNL     1      -3.453  14.263  22.732  0.00  0.00    +0.000 C 
ATOM      4  C   UNL     1      -3.246  15.651  22.102  0.00  0.00    +0.000 C 
ATOM      5  N   UNL     1      -4.094  13.355  21.780  0.00  0.00    +0.000 N 
ATOM      6  C   UNL     1      -5.445  12.956  21.730  0.00  0.00    +0.000 A 
ATOM      7  S   UNL     1      -6.666  13.203  22.822  0.00  0.00    +0.000 S 
ATOM      8  N   UNL     1      -5.617  12.254  20.527  0.00  0.00    +0.000 N 
ATOM      9  C   UNL     1      -4.409  12.235  19.837  0.00  0.00    +0.000 A 
ATOM     10  C   UNL     1      -4.122  11.672  18.620  0.00  0.00    +0.000 A 
ATOM     11  C   UNL     1      -2.801  11.782  18.189  0.00  0.00    +0.000 A 
ATOM     12 CL   UNL     1      -2.368  11.153  16.644  0.00  0.00    +0.000 Cl
ATOM     13  C   UNL     1      -1.803  12.374  18.996  0.00  0.00    +0.000 A 
ATOM     14  C   UNL     1      -2.100  12.902  20.268  0.00  0.00    +0.000 A 
ATOM     15  C   UNL     1      -3.448  12.884  20.617  0.00  0.00    +0.000 A 
ATOM     16  C   UNL     1      -1.037  13.347  21.262  0.00  0.00    +0.000 C 
ATOM     17  C   UNL     1       0.422  13.072  20.856  0.00  0.00    +0.000 C 
ATOM     18  H   UNL     1      -6.483  11.827  20.238  0.00  0.00    +0.000 HD
ENDROOT
BRANCH   1  19
ATOM     19  C   UNL     1      -1.587  11.391  22.685  0.00  0.00    +0.000 C 
BRANCH  19  23
ATOM     20  C   UNL     1       1.432   8.927  22.280  0.00  0.00    +0.000 C 
ATOM     21  C   UNL     1       0.165   9.679  21.969  0.00  0.00    +0.000 C 
ATOM     22  C   UNL     1      -0.367   9.513  20.570  0.00  0.00    +0.000 C 
ATOM     23  C   UNL     1      -0.425  10.453  22.907  0.00  0.00    +0.000 C 
ENDBRANCH  19  23
ENDBRANCH   1  19
TORSDOF 2
ENDMDL
MODEL 8
REMARK VINA RESULT:      -5.5      2.336      4.777
REMARK  Name = 
REMARK  6 active torsions:
REMARK  status: ('A' for Active; 'I' for Inactive)
REMARK    1  A    between atoms: C_1  and  C_2
REMARK    2  A    between atoms: C_2  and  C_3
REMARK    3  A    between atoms: C_4  and  C_5
REMARK    4  A    between atoms: C_5  and  N_6
REMARK    5  A    between atoms: C_8  and  C_9
REMARK    6  A    between atoms: C_21  and  C_22
REMARK                            x       y       z     vdW  Elec       q    Type
REMARK                         _______ _______ _______ _____ _____    ______ ____
ROOT
ATOM      1  N   UNL     1      -0.469  10.661  18.983  0.00  0.00    +0.000 NA
ATOM      2  C   UNL     1       0.442  11.746  19.402  0.00  0.00    +0.000 C 
ATOM      3  C   UNL     1      -0.102  13.175  19.692  0.00  0.00    +0.000 C 
ATOM      4  C   UNL     1      -0.113  14.110  18.470  0.00  0.00    +0.000 C 
ATOM      5  N   UNL     1      -1.404  13.186  20.359  0.00  0.00    +0.000 N 
ATOM      6  C   UNL     1      -1.772  13.865  21.539  0.00  0.00    +0.000 A 
ATOM      7  S   UNL     1      -0.832  14.671  22.638  0.00  0.00    +0.000 S 
ATOM      8  N   UNL     1      -3.165  13.739  21.661  0.00  0.00    +0.000 N 
ATOM      9  C   UNL     1      -3.652  13.019  20.575  0.00  0.00    +0.000 A 
ATOM     10  C   UNL     1      -4.947  12.672  20.283  0.00  0.00    +0.000 A 
ATOM     11  C   UNL     1      -5.133  11.910  19.131  0.00  0.00    +0.000 A 
ATOM     12 CL   UNL     1      -6.734  11.480  18.660  0.00  0.00    +0.000 Cl
ATOM     13  C   UNL     1      -4.042  11.461  18.352  0.00  0.00    +0.000 A 
ATOM     14  C   UNL     1      -2.713  11.781  18.692  0.00  0.00    +0.000 A 
ATOM     15  C   UNL     1      -2.568  12.641  19.778  0.00  0.00    +0.000 A 
ATOM     16  C   UNL     1      -1.499  11.148  18.025  0.00  0.00    +0.000 C 
ATOM     17  C   UNL     1      -1.796  10.021  17.020  0.00  0.00    +0.000 C 
ATOM     18  H   UNL     1      -3.703  14.107  22.431  0.00  0.00    +0.000 HD
ENDROOT
BRANCH   1  19
ATOM     19  C   UNL     1      -1.029   9.906  20.119  0.00  0.00    +0.000 C 
BRANCH  19  23
ATOM     20  C   UNL     1       0.803   9.272  23.523  0.00  0.00    +0.000 C 
ATOM     21  C   UNL     1      -0.156   9.849  22.516  0.00  0.00    +0.000 C 
ATOM     22  C   UNL     1      -1.223  10.755  23.073  0.00  0.00    +0.000 C 
ATOM     23  C   UNL     1      -0.043   9.544  21.205  0.00  0.00    +0.000 C 
ENDBRANCH  19  23
ENDBRANCH   1  19
TORSDOF 2
ENDMDL
MODEL 9
REMARK VINA RESULT:      -5.5      2.622      3.422
REMARK  Name = 
REMARK  6 active torsions:
REMARK  status: ('A' for Active; 'I' for Inactive)
REMARK    1  A    between atoms: C_1  and  C_2
REMARK    2  A    between atoms: C_2  and  C_3
REMARK    3  A    between atoms: C_4  and  C_5
REMARK    4  A    between atoms: C_5  and  N_6
REMARK    5  A    between atoms: C_8  and  C_9
REMARK    6  A    between atoms: C_21  and  C_22
REMARK                            x       y       z     vdW  Elec       q    Type
REMARK                         _______ _______ _______ _____ _____    ______ ____
ROOT
ATOM      1  N   UNL     1      -0.052  13.589  19.991  0.00  0.00    +0.000 NA
ATOM      2  C   UNL     1       0.337  12.580  18.984  0.00  0.00    +0.000 C 
ATOM      3  C   UNL     1      -0.607  11.390  18.643  0.00  0.00    +0.000 C 
ATOM      4  C   UNL     1      -0.381  10.133  19.501  0.00  0.00    +0.000 C 
ATOM      5  N   UNL     1      -2.025  11.750  18.622  0.00  0.00    +0.000 N 
ATOM      6  C   UNL     1      -2.967  11.520  17.599  0.00  0.00    +0.000 A 
ATOM      7  S   UNL     1      -2.742  10.980  16.050  0.00  0.00    +0.000 S 
ATOM      8  N   UNL     1      -4.226  11.853  18.125  0.00  0.00    +0.000 N 
ATOM      9  C   UNL     1      -4.073  12.259  19.446  0.00  0.00    +0.000 A 
ATOM     10  C   UNL     1      -5.032  12.660  20.340  0.00  0.00    +0.000 A 
ATOM     11  C   UNL     1      -4.575  13.047  21.598  0.00  0.00    +0.000 A 
ATOM     12 CL   UNL     1      -5.719  13.510  22.801  0.00  0.00    +0.000 Cl
ATOM     13  C   UNL     1      -3.196  13.092  21.907  0.00  0.00    +0.000 A 
ATOM     14  C   UNL     1      -2.217  12.727  20.962  0.00  0.00    +0.000 A 
ATOM     15  C   UNL     1      -2.710  12.233  19.758  0.00  0.00    +0.000 A 
ATOM     16  C   UNL     1      -0.726  12.964  21.162  0.00  0.00    +0.000 C 
ATOM     17  C   UNL     1      -0.334  13.755  22.423  0.00  0.00    +0.000 C 
ATOM     18  H   UNL     1      -5.088  11.811  17.603  0.00  0.00    +0.000 HD
ENDROOT
BRANCH   1  19
ATOM     19  C   UNL     1      -0.799  14.722  19.414  0.00  0.00    +0.000 C 
BRANCH  19  23
ATOM     20  C   UNL     1       0.720  17.862  17.630  0.00  0.00    +0.000 C 
ATOM     21  C   UNL     1      -0.271  16.972  18.332  0.00  0.00    +0.000 C 
ATOM     22  C   UNL     1      -1.565  17.628  18.741  0.00  0.00    +0.000 C 
ATOM     23  C   UNL     1       0.018  15.675  18.574  0.00  0.00    +0.000 C 
ENDBRANCH  19  23
ENDBRANCH   1  19
TORSDOF 2
ENDMDL
