MODEL 1
REMARK VINA RESULT:      -9.3      0.000      0.000
REMARK  Name = 
REMARK  6 active torsions:
REMARK  status: ('A' for Active; 'I' for Inactive)
REMARK    1  A    between atoms: C_1  and  N_2
REMARK    2  A    between atoms: N_4  and  C_5
REMARK    3  A    between atoms: C_5  and  C_6
REMARK    4  A    between atoms: C_6  and  N_7
REMARK    5  A    between atoms: N_7  and  C_8
REMARK    6  A    between atoms: C_24  and  C_25
REMARK                            x       y       z     vdW  Elec       q    Type
REMARK                         _______ _______ _______ _____ _____    ______ ____
ROOT
ATOM      1  C   UNL     1       0.754   9.069  20.159  0.00  0.00    +0.000 C 
ENDROOT
BRANCH   1   2
ATOM      2  N   UNL     1       0.332  10.032  19.127  0.00  0.00    +0.000 N 
ATOM      3  H   UNL     1       0.317   9.546  18.235  0.00  0.00    +0.000 HD
BRANCH   2   4
ATOM      4  C   UNL     1      -0.887  10.763  19.293  0.00  0.00    +0.000 A 
ATOM      5  C   UNL     1      -1.129  11.651  20.375  0.00  0.00    +0.000 A 
ATOM      6  C   UNL     1      -2.366  12.314  20.430  0.00  0.00    +0.000 A 
ATOM      7  N   UNL     1      -3.300  12.227  19.461  0.00  0.00    +0.000 NA
ATOM      8  C   UNL     1      -3.054  11.475  18.393  0.00  0.00    +0.000 A 
ATOM      9  C   UNL     1      -4.034  11.464  17.407  0.00  0.00    +0.000 A 
ATOM     10  C   UNL     1      -3.903  10.713  16.243  0.00  0.00    +0.000 A 
ATOM     11  C   UNL     1      -2.757   9.966  16.068  0.00  0.00    +0.000 A 
ATOM     12  F   UNL     1      -2.608   9.233  14.957  0.00  0.00    +0.000 F 
ATOM     13  C   UNL     1      -1.749   9.963  17.032  0.00  0.00    +0.000 A 
ATOM     14  C   UNL     1      -1.867  10.718  18.233  0.00  0.00    +0.000 A 
ATOM     15  C   UNL     1      -2.731  13.247  21.562  0.00  0.00    +0.000 C 
ATOM     16  C   UNL     1      -1.887  13.045  22.812  0.00  0.00    +0.000 C 
ATOM     17  C   UNL     1      -0.426  13.065  22.414  0.00  0.00    +0.000 C 
ATOM     18  C   UNL     1      -0.137  11.899  21.483  0.00  0.00    +0.000 C 
ENDBRANCH   2   4
ENDBRANCH   1   2
BRANCH   1  19
ATOM     19  C   UNL     1       1.988   8.243  19.748  0.00  0.00    +0.000 C 
BRANCH  19  23
ATOM     20  C   UNL     1       0.925   4.181  20.675  0.00  0.00    +0.000 C 
ATOM     21  N   UNL     1       2.163   4.516  19.990  0.00  0.00    +0.000 N 
ATOM     22  C   UNL     1       2.538   5.814  19.678  0.00  0.00    +0.000 A 
ATOM     23  N   UNL     1       1.821   6.862  20.197  0.00  0.00    +0.000 N 
ATOM     24  N   UNL     1       3.549   6.071  18.902  0.00  0.00    +0.000 NA
ATOM     25  C   UNL     1       4.286   5.028  18.423  0.00  0.00    +0.000 A 
ATOM     26  C   UNL     1       4.063   3.746  18.711  0.00  0.00    +0.000 A 
ATOM     27  C   UNL     1       2.912   3.433  19.560  0.00  0.00    +0.000 A 
ATOM     28  O   UNL     1       2.666   2.259  19.824  0.00  0.00    +0.000 OA
ATOM     29  H   UNL     1       1.440   6.751  21.128  0.00  0.00    +0.000 HD
BRANCH  25  30
ATOM     30  C   UNL     1       5.406   5.340  17.524  0.00  0.00    +0.000 A 
ATOM     31  C   UNL     1       6.387   6.249  17.921  0.00  0.00    +0.000 A 
ATOM     32  C   UNL     1       7.398   6.554  17.026  0.00  0.00    +0.000 A 
ATOM     33  N   UNL     1       7.492   6.017  15.790  0.00  0.00    +0.000 NA
ATOM     34  C   UNL     1       6.539   5.128  15.437  0.00  0.00    +0.000 A 
ATOM     35  C   UNL     1       5.486   4.759  16.257  0.00  0.00    +0.000 A 
ENDBRANCH  25  30
ENDBRANCH  19  23
ENDBRANCH   1  19
TORSDOF 5
ENDMDL
MODEL 2
REMARK VINA RESULT:      -9.3      3.334      9.439
REMARK  Name = 
REMARK  6 active torsions:
REMARK  status: ('A' for Active; 'I' for Inactive)
REMARK    1  A    between atoms: C_1  and  N_2
REMARK    2  A    between atoms: N_4  and  C_5
REMARK    3  A    between atoms: C_5  and  C_6
REMARK    4  A    between atoms: C_6  and  N_7
REMARK    5  A    between atoms: N_7  and  C_8
REMARK    6  A    between atoms: C_24  and  C_25
REMARK                            x       y       z     vdW  Elec       q    Type
REMARK                         _______ _______ _______ _____ _____    ______ ____
ROOT
ATOM      1  C   UNL     1       2.119   8.058  18.733  0.00  0.00    +0.000 C 
ENDROOT
BRANCH   1   2
ATOM      2  N   UNL     1       2.485   6.881  17.925  0.00  0.00    +0.000 N 
ATOM      3  H   UNL     1       2.901   7.214  17.060  0.00  0.00    +0.000 HD
BRANCH   2   4
ATOM      4  C   UNL     1       3.314   5.861  18.491  0.00  0.00    +0.000 A 
ATOM      5  C   UNL     1       2.804   4.693  19.118  0.00  0.00    +0.000 A 
ATOM      6  C   UNL     1       3.718   3.760  19.636  0.00  0.00    +0.000 A 
ATOM      7  N   UNL     1       5.054   3.868  19.487  0.00  0.00    +0.000 NA
ATOM      8  C   UNL     1       5.548   4.906  18.821  0.00  0.00    +0.000 A 
ATOM      9  C   UNL     1       6.928   4.935  18.659  0.00  0.00    +0.000 A 
ATOM     10  C   UNL     1       7.572   5.970  17.987  0.00  0.00    +0.000 A 
ATOM     11  C   UNL     1       6.807   6.990  17.463  0.00  0.00    +0.000 A 
ATOM     12  F   UNL     1       7.403   7.998  16.814  0.00  0.00    +0.000 F 
ATOM     13  C   UNL     1       5.419   6.986  17.597  0.00  0.00    +0.000 A 
ATOM     14  C   UNL     1       4.741   5.941  18.286  0.00  0.00    +0.000 A 
ATOM     15  C   UNL     1       3.272   2.508  20.354  0.00  0.00    +0.000 C 
ATOM     16  C   UNL     1       1.839   2.577  20.863  0.00  0.00    +0.000 C 
ATOM     17  C   UNL     1       0.944   3.013  19.723  0.00  0.00    +0.000 C 
ATOM     18  C   UNL     1       1.331   4.414  19.279  0.00  0.00    +0.000 C 
ENDBRANCH   2   4
ENDBRANCH   1   2
BRANCH   1  19
ATOM     19  C   UNL     1       1.999   9.350  17.901  0.00  0.00    +0.000 C 
BRANCH  19  23
ATOM     20  C   UNL     1      -2.276   9.794  17.797  0.00  0.00    +0.000 C 
ATOM     21  N   UNL     1      -1.413  10.786  18.418  0.00  0.00    +0.000 N 
ATOM     22  C   UNL     1      -0.033  10.676  18.468  0.00  0.00    +0.000 A 
ATOM     23  N   UNL     1       0.588   9.694  17.737  0.00  0.00    +0.000 N 
ATOM     24  N   UNL     1       0.697  11.473  19.191  0.00  0.00    +0.000 NA
ATOM     25  C   UNL     1       0.080  12.476  19.881  0.00  0.00    +0.000 A 
ATOM     26  C   UNL     1      -1.230  12.721  19.854  0.00  0.00    +0.000 A 
ATOM     27  C   UNL     1      -2.072  11.817  19.069  0.00  0.00    +0.000 A 
ATOM     28  O   UNL     1      -3.286  12.003  19.043  0.00  0.00    +0.000 OA
ATOM     29  H   UNL     1       0.183   9.452  16.843  0.00  0.00    +0.000 HD
BRANCH  25  30
ATOM     30  C   UNL     1       0.920  13.346  20.715  0.00  0.00    +0.000 A 
ATOM     31  C   UNL     1       0.327  14.257  21.591  0.00  0.00    +0.000 A 
ATOM     32  C   UNL     1       1.152  15.093  22.323  0.00  0.00    +0.000 A 
ATOM     33  N   UNL     1       2.499  15.077  22.240  0.00  0.00    +0.000 NA
ATOM     34  C   UNL     1       3.048  14.176  21.397  0.00  0.00    +0.000 A 
ATOM     35  C   UNL     1       2.312  13.298  20.621  0.00  0.00    +0.000 A 
ENDBRANCH  25  30
ENDBRANCH  19  23
ENDBRANCH   1  19
TORSDOF 5
ENDMDL
MODEL 3
REMARK VINA RESULT:      -9.3      3.576     10.066
REMARK  Name = 
REMARK  6 active torsions:
REMARK  status: ('A' for Active; 'I' for Inactive)
REMARK    1  A    between atoms: C_1  and  N_2
REMARK    2  A    between atoms: N_4  and  C_5
REMARK    3  A    between atoms: C_5  and  C_6
REMARK    4  A    between atoms: C_6  and  N_7
REMARK    5  A    between atoms: N_7  and  C_8
REMARK    6  A    between atoms: C_24  and  C_25
REMARK                            x       y       z     vdW  Elec       q    Type
REMARK                         _______ _______ _______ _____ _____    ______ ____
ROOT
ATOM      1  C   UNL     1       2.266   7.984  18.486  0.00  0.00    +0.000 C 
ENDROOT
BRANCH   1   2
ATOM      2  N   UNL     1       2.733   6.936  17.561  0.00  0.00    +0.000 N 
ATOM      3  H   UNL     1       3.220   7.391  16.795  0.00  0.00    +0.000 HD
BRANCH   2   4
ATOM      4  C   UNL     1       3.527   5.853  18.056  0.00  0.00    +0.000 A 
ATOM      5  C   UNL     1       2.989   4.596  18.439  0.00  0.00    +0.000 A 
ATOM      6  C   UNL     1       3.870   3.608  18.909  0.00  0.00    +0.000 A 
ATOM      7  N   UNL     1       5.210   3.756  18.928  0.00  0.00    +0.000 NA
ATOM      8  C   UNL     1       5.741   4.891  18.484  0.00  0.00    +0.000 A 
ATOM      9  C   UNL     1       7.129   4.964  18.483  0.00  0.00    +0.000 A 
ATOM     10  C   UNL     1       7.809   6.098  18.050  0.00  0.00    +0.000 A 
ATOM     11  C   UNL     1       7.074   7.176  17.602  0.00  0.00    +0.000 A 
ATOM     12  F   UNL     1       7.705   8.279  17.183  0.00  0.00    +0.000 F 
ATOM     13  C   UNL     1       5.680   7.131  17.580  0.00  0.00    +0.000 A 
ATOM     14  C   UNL     1       4.965   5.984  18.025  0.00  0.00    +0.000 A 
ATOM     15  C   UNL     1       3.388   2.255  19.377  0.00  0.00    +0.000 C 
ATOM     16  C   UNL     1       1.908   2.225  19.729  0.00  0.00    +0.000 C 
ATOM     17  C   UNL     1       1.127   2.817  18.575  0.00  0.00    +0.000 C 
ATOM     18  C   UNL     1       1.517   4.275  18.392  0.00  0.00    +0.000 C 
ENDBRANCH   2   4
ENDBRANCH   1   2
BRANCH   1  19
ATOM     19  C   UNL     1       1.390   9.050  17.801  0.00  0.00    +0.000 C 
BRANCH  19  23
ATOM     20  C   UNL     1       2.881  13.049  18.331  0.00  0.00    +0.000 C 
ATOM     21  N   UNL     1       1.489  12.706  18.578  0.00  0.00    +0.000 N 
ATOM     22  C   UNL     1       0.976  11.428  18.419  0.00  0.00    +0.000 A 
ATOM     23  N   UNL     1       1.838  10.382  18.207  0.00  0.00    +0.000 N 
ATOM     24  N   UNL     1      -0.301  11.189  18.461  0.00  0.00    +0.000 NA
ATOM     25  C   UNL     1      -1.152  12.225  18.716  0.00  0.00    +0.000 A 
ATOM     26  C   UNL     1      -0.769  13.479  18.952  0.00  0.00    +0.000 A 
ATOM     27  C   UNL     1       0.663  13.775  18.882  0.00  0.00    +0.000 A 
ATOM     28  O   UNL     1       1.045  14.927  19.072  0.00  0.00    +0.000 OA
ATOM     29  H   UNL     1       2.735  10.415  18.672  0.00  0.00    +0.000 HD
BRANCH  25  30
ATOM     30  C   UNL     1      -2.593  11.937  18.728  0.00  0.00    +0.000 A 
ATOM     31  C   UNL     1      -3.414  12.532  19.687  0.00  0.00    +0.000 A 
ATOM     32  C   UNL     1      -4.757  12.197  19.697  0.00  0.00    +0.000 A 
ATOM     33  N   UNL     1      -5.320  11.329  18.828  0.00  0.00    +0.000 NA
ATOM     34  C   UNL     1      -4.505  10.780  17.901  0.00  0.00    +0.000 A 
ATOM     35  C   UNL     1      -3.150  11.048  17.809  0.00  0.00    +0.000 A 
ENDBRANCH  25  30
ENDBRANCH  19  23
ENDBRANCH   1  19
TORSDOF 5
ENDMDL
MODEL 4
REMARK VINA RESULT:      -9.2      3.796      9.353
REMARK  Name = 
REMARK  6 active torsions:
REMARK  status: ('A' for Active; 'I' for Inactive)
REMARK    1  A    between atoms: C_1  and  N_2
REMARK    2  A    between atoms: N_4  and  C_5
REMARK    3  A    between atoms: C_5  and  C_6
REMARK    4  A    between atoms: C_6  and  N_7
REMARK    5  A    between atoms: N_7  and  C_8
REMARK    6  A    between atoms: C_24  and  C_25
REMARK                            x       y       z     vdW  Elec       q    Type
REMARK                         _______ _______ _______ _____ _____    ______ ____
ROOT
ATOM      1  C   UNL     1       2.764   8.238  18.220  0.00  0.00    +0.000 C 
ENDROOT
BRANCH   1   2
ATOM      2  N   UNL     1       2.804   6.955  17.496  0.00  0.00    +0.000 N 
ATOM      3  H   UNL     1       3.097   7.144  16.541  0.00  0.00    +0.000 HD
BRANCH   2   4
ATOM      4  C   UNL     1       3.568   5.864  18.022  0.00  0.00    +0.000 A 
ATOM      5  C   UNL     1       2.996   4.627  18.422  0.00  0.00    +0.000 A 
ATOM      6  C   UNL     1       3.849   3.630  18.923  0.00  0.00    +0.000 A 
ATOM      7  N   UNL     1       5.191   3.748  18.957  0.00  0.00    +0.000 NA
ATOM      8  C   UNL     1       5.754   4.862  18.499  0.00  0.00    +0.000 A 
ATOM      9  C   UNL     1       7.143   4.905  18.515  0.00  0.00    +0.000 A 
ATOM     10  C   UNL     1       7.854   6.014  18.069  0.00  0.00    +0.000 A 
ATOM     11  C   UNL     1       7.148   7.099  17.591  0.00  0.00    +0.000 A 
ATOM     12  F   UNL     1       7.809   8.180  17.159  0.00  0.00    +0.000 F 
ATOM     13  C   UNL     1       5.754   7.085  17.550  0.00  0.00    +0.000 A 
ATOM     14  C   UNL     1       5.008   5.962  18.008  0.00  0.00    +0.000 A 
ATOM     15  C   UNL     1       3.331   2.296  19.411  0.00  0.00    +0.000 C 
ATOM     16  C   UNL     1       1.846   2.306  19.743  0.00  0.00    +0.000 C 
ATOM     17  C   UNL     1       1.093   2.892  18.567  0.00  0.00    +0.000 C 
ATOM     18  C   UNL     1       1.518   4.337  18.362  0.00  0.00    +0.000 C 
ENDBRANCH   2   4
ENDBRANCH   1   2
BRANCH   1  19
ATOM     19  C   UNL     1       1.501   9.065  17.916  0.00  0.00    +0.000 C 
BRANCH  19  23
ATOM     20  C   UNL     1      -0.202   9.326  21.856  0.00  0.00    +0.000 C 
ATOM     21  N   UNL     1       0.146  10.510  21.087  0.00  0.00    +0.000 N 
ATOM     22  C   UNL     1       0.694  10.463  19.815  0.00  0.00    +0.000 A 
ATOM     23  N   UNL     1       0.742   9.264  19.150  0.00  0.00    +0.000 N 
ATOM     24  N   UNL     1       1.170  11.522  19.230  0.00  0.00    +0.000 NA
ATOM     25  C   UNL     1       1.081  12.721  19.876  0.00  0.00    +0.000 A 
ATOM     26  C   UNL     1       0.513  12.899  21.069  0.00  0.00    +0.000 A 
ATOM     27  C   UNL     1      -0.003  11.714  21.756  0.00  0.00    +0.000 A 
ATOM     28  O   UNL     1      -0.511  11.843  22.868  0.00  0.00    +0.000 OA
ATOM     29  H   UNL     1      -0.022   8.617  19.299  0.00  0.00    +0.000 HD
BRANCH  25  30
ATOM     30  C   UNL     1       1.652  13.899  19.209  0.00  0.00    +0.000 A 
ATOM     31  C   UNL     1       2.791  13.767  18.413  0.00  0.00    +0.000 A 
ATOM     32  C   UNL     1       3.327  14.908  17.844  0.00  0.00    +0.000 A 
ATOM     33  N   UNL     1       2.809  16.144  18.011  0.00  0.00    +0.000 NA
ATOM     34  C   UNL     1       1.698  16.242  18.773  0.00  0.00    +0.000 A 
ATOM     35  C   UNL     1       1.087  15.163  19.388  0.00  0.00    +0.000 A 
ENDBRANCH  25  30
ENDBRANCH  19  23
ENDBRANCH   1  19
TORSDOF 5
ENDMDL
MODEL 5
REMARK VINA RESULT:      -9.2      2.972      9.706
REMARK  Name = 
REMARK  6 active torsions:
REMARK  status: ('A' for Active; 'I' for Inactive)
REMARK    1  A    between atoms: C_1  and  N_2
REMARK    2  A    between atoms: N_4  and  C_5
REMARK    3  A    between atoms: C_5  and  C_6
REMARK    4  A    between atoms: C_6  and  N_7
REMARK    5  A    between atoms: N_7  and  C_8
REMARK    6  A    between atoms: C_24  and  C_25
REMARK                            x       y       z     vdW  Elec       q    Type
REMARK                         _______ _______ _______ _____ _____    ______ ____
ROOT
ATOM      1  C   UNL     1       2.355   8.056  17.868  0.00  0.00    +0.000 C 
ENDROOT
BRANCH   1   2
ATOM      2  N   UNL     1       2.893   7.049  18.800  0.00  0.00    +0.000 N 
ATOM      3  H   UNL     1       2.161   6.816  19.464  0.00  0.00    +0.000 HD
BRANCH   2   4
ATOM      4  C   UNL     1       3.474   5.845  18.288  0.00  0.00    +0.000 A 
ATOM      5  C   UNL     1       4.750   5.790  17.667  0.00  0.00    +0.000 A 
ATOM      6  C   UNL     1       5.215   4.549  17.204  0.00  0.00    +0.000 A 
ATOM      7  N   UNL     1       4.556   3.389  17.401  0.00  0.00    +0.000 NA
ATOM      8  C   UNL     1       3.404   3.404  18.064  0.00  0.00    +0.000 A 
ATOM      9  C   UNL     1       2.798   2.172  18.277  0.00  0.00    +0.000 A 
ATOM     10  C   UNL     1       1.586   2.051  18.951  0.00  0.00    +0.000 A 
ATOM     11  C   UNL     1       0.980   3.195  19.424  0.00  0.00    +0.000 A 
ATOM     12  F   UNL     1      -0.187   3.105  20.074  0.00  0.00    +0.000 F 
ATOM     13  C   UNL     1       1.566   4.446  19.237  0.00  0.00    +0.000 A 
ATOM     14  C   UNL     1       2.802   4.593  18.545  0.00  0.00    +0.000 A 
ATOM     15  C   UNL     1       6.541   4.397  16.496  0.00  0.00    +0.000 C 
ATOM     16  C   UNL     1       7.082   5.703  15.931  0.00  0.00    +0.000 C 
ATOM     17  C   UNL     1       7.058   6.747  17.027  0.00  0.00    +0.000 C 
ATOM     18  C   UNL     1       5.622   7.002  17.455  0.00  0.00    +0.000 C 
ENDBRANCH   2   4
ENDBRANCH   1   2
BRANCH   1  19
ATOM     19  C   UNL     1       1.592   9.190  18.578  0.00  0.00    +0.000 C 
BRANCH  19  23
ATOM     20  C   UNL     1      -2.109   9.625  16.432  0.00  0.00    +0.000 C 
ATOM     21  N   UNL     1      -1.757  10.493  17.545  0.00  0.00    +0.000 N 
ATOM     22  C   UNL     1      -0.573  10.382  18.256  0.00  0.00    +0.000 A 
ATOM     23  N   UNL     1       0.414   9.552  17.790  0.00  0.00    +0.000 N 
ATOM     24  N   UNL     1      -0.368  11.040  19.359  0.00  0.00    +0.000 NA
ATOM     25  C   UNL     1      -1.334  11.898  19.797  0.00  0.00    +0.000 A 
ATOM     26  C   UNL     1      -2.480  12.137  19.160  0.00  0.00    +0.000 A 
ATOM     27  C   UNL     1      -2.743  11.386  17.931  0.00  0.00    +0.000 A 
ATOM     28  O   UNL     1      -3.801  11.567  17.335  0.00  0.00    +0.000 OA
ATOM     29  H   UNL     1       0.522   9.473  16.787  0.00  0.00    +0.000 HD
BRANCH  25  30
ATOM     30  C   UNL     1      -1.094  12.608  21.061  0.00  0.00    +0.000 A 
ATOM     31  C   UNL     1      -1.810  12.255  22.206  0.00  0.00    +0.000 A 
ATOM     32  C   UNL     1      -1.591  12.980  23.364  0.00  0.00    +0.000 A 
ATOM     33  N   UNL     1      -0.721  14.009  23.451  0.00  0.00    +0.000 NA
ATOM     34  C   UNL     1      -0.030  14.320  22.333  0.00  0.00    +0.000 A 
ATOM     35  C   UNL     1      -0.178  13.658  21.126  0.00  0.00    +0.000 A 
ENDBRANCH  25  30
ENDBRANCH  19  23
ENDBRANCH   1  19
TORSDOF 5
ENDMDL
MODEL 6
REMARK VINA RESULT:      -9.1      4.076      9.393
REMARK  Name = 
REMARK  6 active torsions:
REMARK  status: ('A' for Active; 'I' for Inactive)
REMARK    1  A    between atoms: C_1  and  N_2
REMARK    2  A    between atoms: N_4  and  C_5
REMARK    3  A    between atoms: C_5  and  C_6
REMARK    4  A    between atoms: C_6  and  N_7
REMARK    5  A    between atoms: N_7  and  C_8
REMARK    6  A    between atoms: C_24  and  C_25
REMARK                            x       y       z     vdW  Elec       q    Type
REMARK                         _______ _______ _______ _____ _____    ______ ____
ROOT
ATOM      1  C   UNL     1       2.233   7.966  18.455  0.00  0.00    +0.000 C 
ENDROOT
BRANCH   1   2
ATOM      2  N   UNL     1       2.688   6.869  17.583  0.00  0.00    +0.000 N 
ATOM      3  H   UNL     1       3.166   7.282  16.787  0.00  0.00    +0.000 HD
BRANCH   2   4
ATOM      4  C   UNL     1       3.489   5.814  18.126  0.00  0.00    +0.000 A 
ATOM      5  C   UNL     1       2.957   4.575  18.571  0.00  0.00    +0.000 A 
ATOM      6  C   UNL     1       3.843   3.614  19.085  0.00  0.00    +0.000 A 
ATOM      7  N   UNL     1       5.183   3.768  19.091  0.00  0.00    +0.000 NA
ATOM      8  C   UNL     1       5.708   4.882  18.592  0.00  0.00    +0.000 A 
ATOM      9  C   UNL     1       7.096   4.961  18.583  0.00  0.00    +0.000 A 
ATOM     10  C   UNL     1       7.770   6.076  18.094  0.00  0.00    +0.000 A 
ATOM     11  C   UNL     1       7.028   7.128  17.598  0.00  0.00    +0.000 A 
ATOM     12  F   UNL     1       7.654   8.212  17.124  0.00  0.00    +0.000 F 
ATOM     13  C   UNL     1       5.635   7.077  17.582  0.00  0.00    +0.000 A 
ATOM     14  C   UNL     1       4.926   5.949  18.084  0.00  0.00    +0.000 A 
ATOM     15  C   UNL     1       3.369   2.282  19.618  0.00  0.00    +0.000 C 
ATOM     16  C   UNL     1       1.890   2.263  19.977  0.00  0.00    +0.000 C 
ATOM     17  C   UNL     1       1.103   2.797  18.798  0.00  0.00    +0.000 C 
ATOM     18  C   UNL     1       1.486   4.246  18.545  0.00  0.00    +0.000 C 
ENDBRANCH   2   4
ENDBRANCH   1   2
BRANCH   1  19
ATOM     19  C   UNL     1       2.194   9.331  17.741  0.00  0.00    +0.000 C 
BRANCH  19  23
ATOM     20  C   UNL     1      -1.550  10.888  19.173  0.00  0.00    +0.000 C 
ATOM     21  N   UNL     1      -0.368  11.726  19.037  0.00  0.00    +0.000 N 
ATOM     22  C   UNL     1       0.853  11.257  18.577  0.00  0.00    +0.000 A 
ATOM     23  N   UNL     1       0.927   9.999  18.037  0.00  0.00    +0.000 N 
ATOM     24  N   UNL     1       1.936  11.974  18.646  0.00  0.00    +0.000 NA
ATOM     25  C   UNL     1       1.849  13.242  19.143  0.00  0.00    +0.000 A 
ATOM     26  C   UNL     1       0.720  13.821  19.550  0.00  0.00    +0.000 A 
ATOM     27  C   UNL     1      -0.506  13.021  19.507  0.00  0.00    +0.000 A 
ATOM     28  O   UNL     1      -1.558  13.520  19.897  0.00  0.00    +0.000 OA
ATOM     29  H   UNL     1       0.130   9.670  17.509  0.00  0.00    +0.000 HD
BRANCH  25  30
ATOM     30  C   UNL     1       3.090  14.023  19.239  0.00  0.00    +0.000 A 
ATOM     31  C   UNL     1       3.784  14.376  18.081  0.00  0.00    +0.000 A 
ATOM     32  C   UNL     1       4.974  15.068  18.217  0.00  0.00    +0.000 A 
ATOM     33  N   UNL     1       5.502  15.427  19.407  0.00  0.00    +0.000 NA
ATOM     34  C   UNL     1       4.802  15.087  20.511  0.00  0.00    +0.000 A 
ATOM     35  C   UNL     1       3.605  14.393  20.483  0.00  0.00    +0.000 A 
ENDBRANCH  25  30
ENDBRANCH  19  23
ENDBRANCH   1  19
TORSDOF 5
ENDMDL
MODEL 7
REMARK VINA RESULT:      -9.1      3.353      9.694
REMARK  Name = 
REMARK  6 active torsions:
REMARK  status: ('A' for Active; 'I' for Inactive)
REMARK    1  A    between atoms: C_1  and  N_2
REMARK    2  A    between atoms: N_4  and  C_5
REMARK    3  A    between atoms: C_5  and  C_6
REMARK    4  A    between atoms: C_6  and  N_7
REMARK    5  A    between atoms: N_7  and  C_8
REMARK    6  A    between atoms: C_24  and  C_25
REMARK                            x       y       z     vdW  Elec       q    Type
REMARK                         _______ _______ _______ _____ _____    ______ ____
ROOT
ATOM      1  C   UNL     1       2.093   7.826  18.507  0.00  0.00    +0.000 C 
ENDROOT
BRANCH   1   2
ATOM      2  N   UNL     1       2.733   6.903  17.552  0.00  0.00    +0.000 N 
ATOM      3  H   UNL     1       3.268   7.460  16.892  0.00  0.00    +0.000 HD
BRANCH   2   4
ATOM      4  C   UNL     1       3.544   5.828  18.037  0.00  0.00    +0.000 A 
ATOM      5  C   UNL     1       3.025   4.559  18.409  0.00  0.00    +0.000 A 
ATOM      6  C   UNL     1       3.920   3.580  18.870  0.00  0.00    +0.000 A 
ATOM      7  N   UNL     1       5.258   3.748  18.890  0.00  0.00    +0.000 NA
ATOM      8  C   UNL     1       5.772   4.895  18.458  0.00  0.00    +0.000 A 
ATOM      9  C   UNL     1       7.158   4.989  18.458  0.00  0.00    +0.000 A 
ATOM     10  C   UNL     1       7.822   6.137  18.036  0.00  0.00    +0.000 A 
ATOM     11  C   UNL     1       7.070   7.208  17.598  0.00  0.00    +0.000 A 
ATOM     12  F   UNL     1       7.685   8.324  17.189  0.00  0.00    +0.000 F 
ATOM     13  C   UNL     1       5.677   7.143  17.574  0.00  0.00    +0.000 A 
ATOM     14  C   UNL     1       4.979   5.980  18.008  0.00  0.00    +0.000 A 
ATOM     15  C   UNL     1       3.459   2.215  19.325  0.00  0.00    +0.000 C 
ATOM     16  C   UNL     1       1.979   2.159  19.676  0.00  0.00    +0.000 C 
ATOM     17  C   UNL     1       1.189   2.751  18.527  0.00  0.00    +0.000 C 
ATOM     18  C   UNL     1       1.557   4.216  18.358  0.00  0.00    +0.000 C 
ENDBRANCH   2   4
ENDBRANCH   1   2
BRANCH   1  19
ATOM     19  C   UNL     1       2.130   9.295  18.046  0.00  0.00    +0.000 C 
BRANCH  19  23
ATOM     20  C   UNL     1       1.434  12.306  21.036  0.00  0.00    +0.000 C 
ATOM     21  N   UNL     1       0.375  11.831  20.159  0.00  0.00    +0.000 N 
ATOM     22  C   UNL     1       0.564  10.861  19.188  0.00  0.00    +0.000 A 
ATOM     23  N   UNL     1       1.745  10.163  19.158  0.00  0.00    +0.000 N 
ATOM     24  N   UNL     1      -0.344  10.593  18.296  0.00  0.00    +0.000 NA
ATOM     25  C   UNL     1      -1.534  11.258  18.356  0.00  0.00    +0.000 A 
ATOM     26  C   UNL     1      -1.853  12.159  19.285  0.00  0.00    +0.000 A 
ATOM     27  C   UNL     1      -0.834  12.496  20.281  0.00  0.00    +0.000 A 
ATOM     28  O   UNL     1      -1.090  13.340  21.135  0.00  0.00    +0.000 OA
ATOM     29  H   UNL     1       2.186   9.956  20.044  0.00  0.00    +0.000 HD
BRANCH  25  30
ATOM     30  C   UNL     1      -2.534  10.962  17.321  0.00  0.00    +0.000 A 
ATOM     31  C   UNL     1      -2.226  10.079  16.285  0.00  0.00    +0.000 A 
ATOM     32  C   UNL     1      -3.177   9.864  15.303  0.00  0.00    +0.000 A 
ATOM     33  N   UNL     1      -4.390  10.458  15.292  0.00  0.00    +0.000 NA
ATOM     34  C   UNL     1      -4.668  11.295  16.314  0.00  0.00    +0.000 A 
ATOM     35  C   UNL     1      -3.786  11.578  17.342  0.00  0.00    +0.000 A 
ENDBRANCH  25  30
ENDBRANCH  19  23
ENDBRANCH   1  19
TORSDOF 5
ENDMDL
MODEL 8
REMARK VINA RESULT:      -9.1      3.177      9.833
REMARK  Name = 
REMARK  6 active torsions:
REMARK  status: ('A' for Active; 'I' for Inactive)
REMARK    1  A    between atoms: C_1  and  N_2
REMARK    2  A    between atoms: N_4  and  C_5
REMARK    3  A    between atoms: C_5  and  C_6
REMARK    4  A    between atoms: C_6  and  N_7
REMARK    5  A    between atoms: N_7  and  C_8
REMARK    6  A    between atoms: C_24  and  C_25
REMARK                            x       y       z     vdW  Elec       q    Type
REMARK                         _______ _______ _______ _____ _____    ______ ____
ROOT
ATOM      1  C   UNL     1       2.150   7.916  17.920  0.00  0.00    +0.000 C 
ENDROOT
BRANCH   1   2
ATOM      2  N   UNL     1       2.772   7.059  18.945  0.00  0.00    +0.000 N 
ATOM      3  H   UNL     1       2.067   6.850  19.646  0.00  0.00    +0.000 HD
BRANCH   2   4
ATOM      4  C   UNL     1       3.431   5.849  18.556  0.00  0.00    +0.000 A 
ATOM      5  C   UNL     1       2.803   4.575  18.565  0.00  0.00    +0.000 A 
ATOM      6  C   UNL     1       3.553   3.459  18.160  0.00  0.00    +0.000 A 
ATOM      7  N   UNL     1       4.807   3.543  17.673  0.00  0.00    +0.000 NA
ATOM      8  C   UNL     1       5.380   4.738  17.567  0.00  0.00    +0.000 A 
ATOM      9  C   UNL     1       6.654   4.765  17.013  0.00  0.00    +0.000 A 
ATOM     10  C   UNL     1       7.366   5.950  16.852  0.00  0.00    +0.000 A 
ATOM     11  C   UNL     1       6.776   7.131  17.252  0.00  0.00    +0.000 A 
ATOM     12  F   UNL     1       7.441   8.284  17.110  0.00  0.00    +0.000 F 
ATOM     13  C   UNL     1       5.495   7.141  17.802  0.00  0.00    +0.000 A 
ATOM     14  C   UNL     1       4.753   5.939  17.981  0.00  0.00    +0.000 A 
ATOM     15  C   UNL     1       2.985   2.058  18.173  0.00  0.00    +0.000 C 
ATOM     16  C   UNL     1       1.763   1.906  19.066  0.00  0.00    +0.000 C 
ATOM     17  C   UNL     1       0.771   2.995  18.714  0.00  0.00    +0.000 C 
ATOM     18  C   UNL     1       1.380   4.354  19.012  0.00  0.00    +0.000 C 
ENDBRANCH   2   4
ENDBRANCH   1   2
BRANCH   1  19
ATOM     19  C   UNL     1       1.566   9.220  18.496  0.00  0.00    +0.000 C 
BRANCH  19  23
ATOM     20  C   UNL     1      -2.127   9.733  16.352  0.00  0.00    +0.000 C 
ATOM     21  N   UNL     1      -1.784  10.552  17.505  0.00  0.00    +0.000 N 
ATOM     22  C   UNL     1      -0.603  10.415  18.216  0.00  0.00    +0.000 A 
ATOM     23  N   UNL     1       0.391   9.611  17.718  0.00  0.00    +0.000 N 
ATOM     24  N   UNL     1      -0.406  11.024  19.349  0.00  0.00    +0.000 NA
ATOM     25  C   UNL     1      -1.379  11.857  19.819  0.00  0.00    +0.000 A 
ATOM     26  C   UNL     1      -2.523  12.119  19.188  0.00  0.00    +0.000 A 
ATOM     27  C   UNL     1      -2.776  11.422  17.926  0.00  0.00    +0.000 A 
ATOM     28  O   UNL     1      -3.832  11.625  17.333  0.00  0.00    +0.000 OA
ATOM     29  H   UNL     1       0.504   9.578  16.714  0.00  0.00    +0.000 HD
BRANCH  25  30
ATOM     30  C   UNL     1      -1.149  12.511  21.115  0.00  0.00    +0.000 A 
ATOM     31  C   UNL     1      -1.857  12.094  22.243  0.00  0.00    +0.000 A 
ATOM     32  C   UNL     1      -1.648  12.768  23.433  0.00  0.00    +0.000 A 
ATOM     33  N   UNL     1      -0.795  13.806  23.567  0.00  0.00    +0.000 NA
ATOM     34  C   UNL     1      -0.111  14.179  22.464  0.00  0.00    +0.000 A 
ATOM     35  C   UNL     1      -0.249  13.572  21.228  0.00  0.00    +0.000 A 
ENDBRANCH  25  30
ENDBRANCH  19  23
ENDBRANCH   1  19
TORSDOF 5
ENDMDL
MODEL 9
REMARK VINA RESULT:      -9.1      0.980      1.298
REMARK  Name = 
REMARK  6 active torsions:
REMARK  status: ('A' for Active; 'I' for Inactive)
REMARK    1  A    between atoms: C_1  and  N_2
REMARK    2  A    between atoms: N_4  and  C_5
REMARK    3  A    between atoms: C_5  and  C_6
REMARK    4  A    between atoms: C_6  and  N_7
REMARK    5  A    between atoms: N_7  and  C_8
REMARK    6  A    between atoms: C_24  and  C_25
REMARK                            x       y       z     vdW  Elec       q    Type
REMARK                         _______ _______ _______ _____ _____    ______ ____
ROOT
ATOM      1  C   UNL     1       1.304  10.035  18.472  0.00  0.00    +0.000 C 
ENDROOT
BRANCH   1   2
ATOM      2  N   UNL     1       0.062   9.596  19.131  0.00  0.00    +0.000 N 
ATOM      3  H   UNL     1       0.303   9.260  20.059  0.00  0.00    +0.000 HD
BRANCH   2   4
ATOM      4  C   UNL     1      -1.051  10.492  19.222  0.00  0.00    +0.000 A 
ATOM      5  C   UNL     1      -1.224  11.423  20.280  0.00  0.00    +0.000 A 
ATOM      6  C   UNL     1      -2.357  12.252  20.261  0.00  0.00    +0.000 A 
ATOM      7  N   UNL     1      -3.241  12.278  19.243  0.00  0.00    +0.000 NA
ATOM      8  C   UNL     1      -3.046  11.481  18.197  0.00  0.00    +0.000 A 
ATOM      9  C   UNL     1      -3.963  11.589  17.158  0.00  0.00    +0.000 A 
ATOM     10  C   UNL     1      -3.876  10.808  16.011  0.00  0.00    +0.000 A 
ATOM     11  C   UNL     1      -2.838   9.906  15.906  0.00  0.00    +0.000 A 
ATOM     12  F   UNL     1      -2.734   9.141  14.812  0.00  0.00    +0.000 F 
ATOM     13  C   UNL     1      -1.894   9.780  16.924  0.00  0.00    +0.000 A 
ATOM     14  C   UNL     1      -1.969  10.565  18.110  0.00  0.00    +0.000 A 
ATOM     15  C   UNL     1      -2.649  13.245  21.362  0.00  0.00    +0.000 C 
ATOM     16  C   UNL     1      -1.909  12.950  22.658  0.00  0.00    +0.000 C 
ATOM     17  C   UNL     1      -0.441  12.760  22.342  0.00  0.00    +0.000 C 
ATOM     18  C   UNL     1      -0.268  11.549  21.439  0.00  0.00    +0.000 C 
ENDBRANCH   2   4
ENDBRANCH   1   2
BRANCH   1  19
ATOM     19  C   UNL     1       2.190   8.864  18.007  0.00  0.00    +0.000 C 
BRANCH  19  23
ATOM     20  C   UNL     1       1.539   5.637  20.773  0.00  0.00    +0.000 C 
ATOM     21  N   UNL     1       2.598   5.596  19.777  0.00  0.00    +0.000 N 
ATOM     22  C   UNL     1       2.837   6.619  18.872  0.00  0.00    +0.000 A 
ATOM     23  N   UNL     1       2.185   7.816  19.026  0.00  0.00    +0.000 N 
ATOM     24  N   UNL     1       3.660   6.478  17.875  0.00  0.00    +0.000 NA
ATOM     25  C   UNL     1       4.339   5.301  17.750  0.00  0.00    +0.000 A 
ATOM     26  C   UNL     1       4.242   4.276  18.597  0.00  0.00    +0.000 A 
ATOM     27  C   UNL     1       3.300   4.404  19.710  0.00  0.00    +0.000 A 
ATOM     28  O   UNL     1       3.171   3.467  20.494  0.00  0.00    +0.000 OA
ATOM     29  H   UNL     1       2.004   8.130  19.971  0.00  0.00    +0.000 HD
BRANCH  25  30
ATOM     30  C   UNL     1       5.240   5.152  16.599  0.00  0.00    +0.000 A 
ATOM     31  C   UNL     1       4.793   4.517  15.440  0.00  0.00    +0.000 A 
ATOM     32  C   UNL     1       5.688   4.352  14.398  0.00  0.00    +0.000 A 
ATOM     33  N   UNL     1       6.970   4.775  14.435  0.00  0.00    +0.000 NA
ATOM     34  C   UNL     1       7.372   5.402  15.563  0.00  0.00    +0.000 A 
ATOM     35  C   UNL     1       6.556   5.613  16.661  0.00  0.00    +0.000 A 
ENDBRANCH  25  30
ENDBRANCH  19  23
ENDBRANCH   1  19
TORSDOF 5
ENDMDL
