MODEL 1
REMARK VINA RESULT:      -4.1      0.000      0.000
REMARK  Name = 
REMARK  5 active torsions:
REMARK  status: ('A' for Active; 'I' for Inactive)
REMARK    1  A    between atoms: C_1  and  C_2
REMARK    2  A    between atoms: C_2  and  C_3
REMARK    3  A    between atoms: C_3  and  C_4
REMARK    4  A    between atoms: C_3  and  C_5
REMARK    5  A    between atoms: C_5  and  C_6
REMARK                            x       y       z     vdW  Elec       q    Type
REMARK                         _______ _______ _______ _____ _____    ______ ____
ROOT
ATOM      1  C   UNL     1       0.893   3.861  20.244  0.00  0.00    +0.000 C 
ATOM      2  C   UNL     1       1.790   5.095  20.302  0.00  0.00    +0.000 C 
ENDROOT
BRANCH   1   3
ATOM      3  C   UNL     1       0.964   3.267  18.837  0.00  0.00    +0.000 C 
ATOM      4  C   UNL     1       1.844   3.961  17.828  0.00  0.00    +0.000 C 
ATOM      5  O   UNL     1       0.348   2.249  18.525  0.00  0.00    +0.000 OA
ENDBRANCH   1   3
BRANCH   1   7
ATOM      6  C   UNL     1       2.777   2.634  21.471  0.00  0.00    +0.000 C 
ATOM      7  C   UNL     1       1.274   2.804  21.296  0.00  0.00    +0.000 C 
ENDBRANCH   1   7
TORSDOF 2
ENDMDL
MODEL 2
REMARK VINA RESULT:      -4.0      1.237      1.239
REMARK  Name = 
REMARK  5 active torsions:
REMARK  status: ('A' for Active; 'I' for Inactive)
REMARK    1  A    between atoms: C_1  and  C_2
REMARK    2  A    between atoms: C_2  and  C_3
REMARK    3  A    between atoms: C_3  and  C_4
REMARK    4  A    between atoms: C_3  and  C_5
REMARK    5  A    between atoms: C_5  and  C_6
REMARK                            x       y       z     vdW  Elec       q    Type
REMARK                         _______ _______ _______ _____ _____    ______ ____
ROOT
ATOM      1  C   UNL     1       1.057   3.863  19.746  0.00  0.00    +0.000 C 
ATOM      2  C   UNL     1       1.856   5.075  20.216  0.00  0.00    +0.000 C 
ENDROOT
BRANCH   1   3
ATOM      3  C   UNL     1       1.464   3.531  18.310  0.00  0.00    +0.000 C 
ATOM      4  C   UNL     1       2.271   2.277  18.085  0.00  0.00    +0.000 C 
ATOM      5  O   UNL     1       1.138   4.237  17.358  0.00  0.00    +0.000 OA
ENDBRANCH   1   3
BRANCH   1   7
ATOM      6  C   UNL     1       2.270   2.861  21.767  0.00  0.00    +0.000 C 
ATOM      7  C   UNL     1       1.250   2.639  20.659  0.00  0.00    +0.000 C 
ENDBRANCH   1   7
TORSDOF 2
ENDMDL
MODEL 3
REMARK VINA RESULT:      -3.9      6.184      7.010
REMARK  Name = 
REMARK  5 active torsions:
REMARK  status: ('A' for Active; 'I' for Inactive)
REMARK    1  A    between atoms: C_1  and  C_2
REMARK    2  A    between atoms: C_2  and  C_3
REMARK    3  A    between atoms: C_3  and  C_4
REMARK    4  A    between atoms: C_3  and  C_5
REMARK    5  A    between atoms: C_5  and  C_6
REMARK                            x       y       z     vdW  Elec       q    Type
REMARK                         _______ _______ _______ _____ _____    ______ ____
ROOT
ATOM      1  C   UNL     1       6.401   4.444  16.305  0.00  0.00    +0.000 C 
ATOM      2  C   UNL     1       5.249   5.405  16.582  0.00  0.00    +0.000 C 
ENDROOT
BRANCH   1   3
ATOM      3  C   UNL     1       6.901   4.672  14.878  0.00  0.00    +0.000 C 
ATOM      4  C   UNL     1       6.214   3.918  13.767  0.00  0.00    +0.000 C 
ATOM      5  O   UNL     1       7.816   5.454  14.622  0.00  0.00    +0.000 OA
ENDBRANCH   1   3
BRANCH   1   7
ATOM      6  C   UNL     1       7.469   5.871  18.144  0.00  0.00    +0.000 C 
ATOM      7  C   UNL     1       7.555   4.599  17.311  0.00  0.00    +0.000 C 
ENDBRANCH   1   7
TORSDOF 2
ENDMDL
MODEL 4
REMARK VINA RESULT:      -3.8      1.127      1.388
REMARK  Name = 
REMARK  5 active torsions:
REMARK  status: ('A' for Active; 'I' for Inactive)
REMARK    1  A    between atoms: C_1  and  C_2
REMARK    2  A    between atoms: C_2  and  C_3
REMARK    3  A    between atoms: C_3  and  C_4
REMARK    4  A    between atoms: C_3  and  C_5
REMARK    5  A    between atoms: C_5  and  C_6
REMARK                            x       y       z     vdW  Elec       q    Type
REMARK                         _______ _______ _______ _____ _____    ______ ____
ROOT
ATOM      1  C   UNL     1       1.421   4.022  19.281  0.00  0.00    +0.000 C 
ATOM      2  C   UNL     1       2.098   5.043  18.372  0.00  0.00    +0.000 C 
ENDROOT
BRANCH   1   3
ATOM      3  C   UNL     1       1.319   2.690  18.536  0.00  0.00    +0.000 C 
ATOM      4  C   UNL     1       2.583   2.127  17.935  0.00  0.00    +0.000 C 
ATOM      5  O   UNL     1       0.259   2.075  18.437  0.00  0.00    +0.000 OA
ENDBRANCH   1   3
BRANCH   1   7
ATOM      6  C   UNL     1       1.520   2.801  21.531  0.00  0.00    +0.000 C 
ATOM      7  C   UNL     1       2.161   3.837  20.617  0.00  0.00    +0.000 C 
ENDBRANCH   1   7
TORSDOF 2
ENDMDL
MODEL 5
REMARK VINA RESULT:      -3.8      5.314      6.548
REMARK  Name = 
REMARK  5 active torsions:
REMARK  status: ('A' for Active; 'I' for Inactive)
REMARK    1  A    between atoms: C_1  and  C_2
REMARK    2  A    between atoms: C_2  and  C_3
REMARK    3  A    between atoms: C_3  and  C_4
REMARK    4  A    between atoms: C_3  and  C_5
REMARK    5  A    between atoms: C_5  and  C_6
REMARK                            x       y       z     vdW  Elec       q    Type
REMARK                         _______ _______ _______ _____ _____    ______ ____
ROOT
ATOM      1  C   UNL     1       6.109   4.005  15.956  0.00  0.00    +0.000 C 
ATOM      2  C   UNL     1       6.322   4.294  14.473  0.00  0.00    +0.000 C 
ENDROOT
BRANCH   1   3
ATOM      3  C   UNL     1       7.172   4.752  16.762  0.00  0.00    +0.000 C 
ATOM      4  C   UNL     1       6.979   6.233  16.971  0.00  0.00    +0.000 C 
ATOM      5  O   UNL     1       8.147   4.180  17.248  0.00  0.00    +0.000 OA
ENDBRANCH   1   3
BRANCH   1   7
ATOM      6  C   UNL     1       4.173   3.504  17.556  0.00  0.00    +0.000 C 
ATOM      7  C   UNL     1       4.698   4.391  16.435  0.00  0.00    +0.000 C 
ENDBRANCH   1   7
TORSDOF 2
ENDMDL
MODEL 6
REMARK VINA RESULT:      -3.8      1.447      2.085
REMARK  Name = 
REMARK  5 active torsions:
REMARK  status: ('A' for Active; 'I' for Inactive)
REMARK    1  A    between atoms: C_1  and  C_2
REMARK    2  A    between atoms: C_2  and  C_3
REMARK    3  A    between atoms: C_3  and  C_4
REMARK    4  A    between atoms: C_3  and  C_5
REMARK    5  A    between atoms: C_5  and  C_6
REMARK                            x       y       z     vdW  Elec       q    Type
REMARK                         _______ _______ _______ _____ _____    ______ ____
ROOT
ATOM      1  C   UNL     1       2.082   3.412  19.235  0.00  0.00    +0.000 C 
ATOM      2  C   UNL     1       2.051   2.013  18.624  0.00  0.00    +0.000 C 
ENDROOT
BRANCH   1   3
ATOM      3  C   UNL     1       1.776   4.434  18.139  0.00  0.00    +0.000 C 
ATOM      4  C   UNL     1       2.449   5.781  18.232  0.00  0.00    +0.000 C 
ATOM      5  O   UNL     1       1.026   4.180  17.198  0.00  0.00    +0.000 OA
ENDBRANCH   1   3
BRANCH   1   7
ATOM      6  C   UNL     1       1.481   2.749  21.634  0.00  0.00    +0.000 C 
ATOM      7  C   UNL     1       1.098   3.566  20.407  0.00  0.00    +0.000 C 
ENDBRANCH   1   7
TORSDOF 2
ENDMDL
MODEL 7
REMARK VINA RESULT:      -3.8      2.079      2.525
REMARK  Name = 
REMARK  5 active torsions:
REMARK  status: ('A' for Active; 'I' for Inactive)
REMARK    1  A    between atoms: C_1  and  C_2
REMARK    2  A    between atoms: C_2  and  C_3
REMARK    3  A    between atoms: C_3  and  C_4
REMARK    4  A    between atoms: C_3  and  C_5
REMARK    5  A    between atoms: C_5  and  C_6
REMARK                            x       y       z     vdW  Elec       q    Type
REMARK                         _______ _______ _______ _____ _____    ______ ____
ROOT
ATOM      1  C   UNL     1       1.685   3.336  18.846  0.00  0.00    +0.000 C 
ATOM      2  C   UNL     1       1.526   4.384  17.747  0.00  0.00    +0.000 C 
ENDROOT
BRANCH   1   3
ATOM      3  C   UNL     1       3.155   2.922  18.922  0.00  0.00    +0.000 C 
ATOM      4  C   UNL     1       3.514   1.531  18.464  0.00  0.00    +0.000 C 
ATOM      5  O   UNL     1       4.030   3.688  19.322  0.00  0.00    +0.000 OA
ENDBRANCH   1   3
BRANCH   1   7
ATOM      6  C   UNL     1       1.330   2.806  21.326  0.00  0.00    +0.000 C 
ATOM      7  C   UNL     1       1.193   3.838  20.215  0.00  0.00    +0.000 C 
ENDBRANCH   1   7
TORSDOF 2
ENDMDL
MODEL 8
REMARK VINA RESULT:      -3.8      1.754      2.260
REMARK  Name = 
REMARK  5 active torsions:
REMARK  status: ('A' for Active; 'I' for Inactive)
REMARK    1  A    between atoms: C_1  and  C_2
REMARK    2  A    between atoms: C_2  and  C_3
REMARK    3  A    between atoms: C_3  and  C_4
REMARK    4  A    between atoms: C_3  and  C_5
REMARK    5  A    between atoms: C_5  and  C_6
REMARK                            x       y       z     vdW  Elec       q    Type
REMARK                         _______ _______ _______ _____ _____    ______ ____
ROOT
ATOM      1  C   UNL     1       1.647   3.265  18.830  0.00  0.00    +0.000 C 
ATOM      2  C   UNL     1       1.559   4.321  17.732  0.00  0.00    +0.000 C 
ENDROOT
BRANCH   1   3
ATOM      3  C   UNL     1       3.059   2.677  18.836  0.00  0.00    +0.000 C 
ATOM      4  C   UNL     1       4.204   3.611  19.138  0.00  0.00    +0.000 C 
ATOM      5  O   UNL     1       3.272   1.485  18.625  0.00  0.00    +0.000 OA
ENDBRANCH   1   3
BRANCH   1   7
ATOM      6  C   UNL     1       1.344   2.784  21.328  0.00  0.00    +0.000 C 
ATOM      7  C   UNL     1       1.290   3.826  20.218  0.00  0.00    +0.000 C 
ENDBRANCH   1   7
TORSDOF 2
ENDMDL
MODEL 9
REMARK VINA RESULT:      -3.8      5.724      6.793
REMARK  Name = 
REMARK  5 active torsions:
REMARK  status: ('A' for Active; 'I' for Inactive)
REMARK    1  A    between atoms: C_1  and  C_2
REMARK    2  A    between atoms: C_2  and  C_3
REMARK    3  A    between atoms: C_3  and  C_4
REMARK    4  A    between atoms: C_3  and  C_5
REMARK    5  A    between atoms: C_5  and  C_6
REMARK                            x       y       z     vdW  Elec       q    Type
REMARK                         _______ _______ _______ _____ _____    ______ ____
ROOT
ATOM      1  C   UNL     1       6.251   4.984  16.078  0.00  0.00    +0.000 C 
ATOM      2  C   UNL     1       7.296   4.557  17.106  0.00  0.00    +0.000 C 
ENDROOT
BRANCH   1   3
ATOM      3  C   UNL     1       6.849   4.837  14.678  0.00  0.00    +0.000 C 
ATOM      4  C   UNL     1       6.164   3.893  13.721  0.00  0.00    +0.000 C 
ATOM      5  O   UNL     1       7.839   5.472  14.320  0.00  0.00    +0.000 OA
ENDBRANCH   1   3
BRANCH   1   7
ATOM      6  C   UNL     1       4.559   3.849  17.630  0.00  0.00    +0.000 C 
ATOM      7  C   UNL     1       4.945   4.178  16.194  0.00  0.00    +0.000 C 
ENDBRANCH   1   7
TORSDOF 2
ENDMDL
