MODEL 1
REMARK VINA RESULT:      -8.1      0.000      0.000
REMARK  Name = 
REMARK  7 active torsions:
REMARK  status: ('A' for Active; 'I' for Inactive)
REMARK    1  A    between atoms: C_1  and  S_2
REMARK    2  A    between atoms: S_2  and  C_5
REMARK    3  A    between atoms: C_8  and  N_9
REMARK    4  A    between atoms: N_9  and  C_10
REMARK    5  A    between atoms: C_10  and  C_11
REMARK    6  A    between atoms: C_10  and  C_18
REMARK    7  A    between atoms: C_24  and  N_25
REMARK                            x       y       z     vdW  Elec       q    Type
REMARK                         _______ _______ _______ _____ _____    ______ ____
ROOT
ATOM      1  C   UNL     1       1.147   9.259  18.736  0.00  0.00    +0.000 A 
ATOM      2  C   UNL     1       2.113   9.303  17.745  0.00  0.00    +0.000 A 
ATOM      3  C   UNL     1       3.058   8.277  17.689  0.00  0.00    +0.000 A 
ATOM      4  C   UNL     1       3.081   7.217  18.621  0.00  0.00    +0.000 A 
ATOM      5  C   UNL     1       2.188   7.276  19.715  0.00  0.00    +0.000 A 
ATOM      6  C   UNL     1       1.187   8.263  19.706  0.00  0.00    +0.000 A 
ENDROOT
BRANCH   5   7
ATOM      7  N   UNL     1       2.316   6.442  20.845  0.00  0.00    +0.000 N 
ATOM      8  C   UNL     1       1.927   5.103  20.947  0.00  0.00    +0.000 A 
ATOM      9  N   UNL     1       2.663   4.310  21.739  0.00  0.00    +0.000 NA
ATOM     10  C   UNL     1       2.303   3.011  21.802  0.00  0.00    +0.000 A 
ATOM     11  C   UNL     1       1.224   2.482  21.136  0.00  0.00    +0.000 A 
ATOM     12  C   UNL     1       0.520   3.371  20.371  0.00  0.00    +0.000 A 
ATOM     13  N   UNL     1       0.856   4.667  20.253  0.00  0.00    +0.000 NA
ATOM     14  H   UNL     1       3.123   6.605  21.422  0.00  0.00    +0.000 HD
ENDBRANCH   5   7
BRANCH   1  16
ATOM     15  C   UNL     1       0.662  12.014  18.665  0.00  0.00    +0.000 C 
ATOM     16  S   UNL     1      -0.161  10.447  18.798  0.00  0.00    +0.000 S 
ATOM     17  O   UNL     1      -0.754  10.354  20.118  0.00  0.00    +0.000 OA
ATOM     18  O   UNL     1      -0.968  10.278  17.603  0.00  0.00    +0.000 OA
ENDBRANCH   1  16
BRANCH   4  19
ATOM     19  N   UNL     1       3.905   6.160  18.280  0.00  0.00    +0.000 N 
ATOM     20  H   UNL     1       4.515   5.855  19.033  0.00  0.00    +0.000 HD
BRANCH  19  21
ATOM     21  C   UNL     1       3.861   5.199  17.174  0.00  0.00    +0.000 C 
BRANCH  21  22
ATOM     22  C   UNL     1       5.098   5.165  16.270  0.00  0.00    +0.000 A 
ATOM     23  C   UNL     1       6.221   5.935  16.631  0.00  0.00    +0.000 A 
ATOM     24  C   UNL     1       7.344   5.999  15.803  0.00  0.00    +0.000 A 
ATOM     25  C   UNL     1       7.368   5.290  14.604  0.00  0.00    +0.000 A 
ATOM     26  C   UNL     1       6.276   4.506  14.245  0.00  0.00    +0.000 A 
ATOM     27 CL   UNL     1       6.316   3.607  12.779  0.00  0.00    +0.000 Cl
ATOM     28  C   UNL     1       5.145   4.450  15.060  0.00  0.00    +0.000 A 
ENDBRANCH  21  22
BRANCH  21  29
ATOM     29  C   UNL     1       3.619   3.798  17.780  0.00  0.00    +0.000 A 
ATOM     30  C   UNL     1       2.561   3.005  17.318  0.00  0.00    +0.000 A 
ATOM     31  C   UNL     1       2.393   1.722  17.829  0.00  0.00    +0.000 A 
ATOM     32  C   UNL     1       3.278   1.257  18.791  0.00  0.00    +0.000 A 
ATOM     33  C   UNL     1       4.295   2.102  19.207  0.00  0.00    +0.000 A 
ATOM     34  N   UNL     1       4.488   3.351  18.725  0.00  0.00    +0.000 NA
ENDBRANCH  21  29
ENDBRANCH  19  21
ENDBRANCH   4  19
TORSDOF 6
ENDMDL
MODEL 2
REMARK VINA RESULT:      -8.1      2.431      3.618
REMARK  Name = 
REMARK  7 active torsions:
REMARK  status: ('A' for Active; 'I' for Inactive)
REMARK    1  A    between atoms: C_1  and  S_2
REMARK    2  A    between atoms: S_2  and  C_5
REMARK    3  A    between atoms: C_8  and  N_9
REMARK    4  A    between atoms: N_9  and  C_10
REMARK    5  A    between atoms: C_10  and  C_11
REMARK    6  A    between atoms: C_10  and  C_18
REMARK    7  A    between atoms: C_24  and  N_25
REMARK                            x       y       z     vdW  Elec       q    Type
REMARK                         _______ _______ _______ _____ _____    ______ ____
ROOT
ATOM      1  C   UNL     1       1.426   8.629  19.517  0.00  0.00    +0.000 A 
ATOM      2  C   UNL     1       1.981   9.195  18.381  0.00  0.00    +0.000 A 
ATOM      3  C   UNL     1       2.908   8.450  17.651  0.00  0.00    +0.000 A 
ATOM      4  C   UNL     1       3.320   7.158  18.043  0.00  0.00    +0.000 A 
ATOM      5  C   UNL     1       2.863   6.666  19.287  0.00  0.00    +0.000 A 
ATOM      6  C   UNL     1       1.863   7.387  19.963  0.00  0.00    +0.000 A 
ENDROOT
BRANCH   5   7
ATOM      7  N   UNL     1       3.428   5.533  19.910  0.00  0.00    +0.000 N 
ATOM      8  C   UNL     1       3.346   4.207  19.472  0.00  0.00    +0.000 A 
ATOM      9  N   UNL     1       4.395   3.413  19.725  0.00  0.00    +0.000 NA
ATOM     10  C   UNL     1       4.323   2.146  19.267  0.00  0.00    +0.000 A 
ATOM     11  C   UNL     1       3.236   1.634  18.600  0.00  0.00    +0.000 A 
ATOM     12  C   UNL     1       2.205   2.512  18.408  0.00  0.00    +0.000 A 
ATOM     13  N   UNL     1       2.242   3.790  18.820  0.00  0.00    +0.000 NA
ATOM     14  H   UNL     1       4.306   5.681  20.377  0.00  0.00    +0.000 HD
ENDBRANCH   5   7
BRANCH   1  16
ATOM     15  C   UNL     1       0.970  10.839  21.172  0.00  0.00    +0.000 C 
ATOM     16  S   UNL     1       0.152   9.453  20.425  0.00  0.00    +0.000 S 
ATOM     17  O   UNL     1      -0.268   8.550  21.478  0.00  0.00    +0.000 OA
ATOM     18  O   UNL     1      -0.804   9.978  19.466  0.00  0.00    +0.000 OA
ENDBRANCH   1  16
BRANCH   4  19
ATOM     19  N   UNL     1       4.036   6.459  17.089  0.00  0.00    +0.000 N 
ATOM     20  H   UNL     1       3.499   5.733  16.623  0.00  0.00    +0.000 HD
BRANCH  19  21
ATOM     21  C   UNL     1       5.297   6.750  16.399  0.00  0.00    +0.000 C 
BRANCH  21  22
ATOM     22  C   UNL     1       6.496   7.057  17.302  0.00  0.00    +0.000 A 
ATOM     23  C   UNL     1       6.953   6.057  18.182  0.00  0.00    +0.000 A 
ATOM     24  C   UNL     1       7.993   6.310  19.079  0.00  0.00    +0.000 A 
ATOM     25  C   UNL     1       8.600   7.564  19.107  0.00  0.00    +0.000 A 
ATOM     26  C   UNL     1       8.175   8.555  18.228  0.00  0.00    +0.000 A 
ATOM     27 CL   UNL     1       8.943  10.094  18.242  0.00  0.00    +0.000 Cl
ATOM     28  C   UNL     1       7.127   8.313  17.340  0.00  0.00    +0.000 A 
ENDBRANCH  21  22
BRANCH  21  29
ATOM     29  C   UNL     1       5.621   5.543  15.490  0.00  0.00    +0.000 A 
ATOM     30  C   UNL     1       4.908   4.345  15.630  0.00  0.00    +0.000 A 
ATOM     31  C   UNL     1       5.169   3.288  14.763  0.00  0.00    +0.000 A 
ATOM     32  C   UNL     1       6.134   3.445  13.779  0.00  0.00    +0.000 A 
ATOM     33  C   UNL     1       6.805   4.655  13.707  0.00  0.00    +0.000 A 
ATOM     34  N   UNL     1       6.571   5.703  14.530  0.00  0.00    +0.000 NA
ENDBRANCH  21  29
ENDBRANCH  19  21
ENDBRANCH   4  19
TORSDOF 6
ENDMDL
MODEL 3
REMARK VINA RESULT:      -8.0      1.855      3.527
REMARK  Name = 
REMARK  7 active torsions:
REMARK  status: ('A' for Active; 'I' for Inactive)
REMARK    1  A    between atoms: C_1  and  S_2
REMARK    2  A    between atoms: S_2  and  C_5
REMARK    3  A    between atoms: C_8  and  N_9
REMARK    4  A    between atoms: N_9  and  C_10
REMARK    5  A    between atoms: C_10  and  C_11
REMARK    6  A    between atoms: C_10  and  C_18
REMARK    7  A    between atoms: C_24  and  N_25
REMARK                            x       y       z     vdW  Elec       q    Type
REMARK                         _______ _______ _______ _____ _____    ______ ____
ROOT
ATOM      1  C   UNL     1       1.760   8.394  19.651  0.00  0.00    +0.000 A 
ATOM      2  C   UNL     1       2.201   8.900  18.441  0.00  0.00    +0.000 A 
ATOM      3  C   UNL     1       3.002   8.092  17.633  0.00  0.00    +0.000 A 
ATOM      4  C   UNL     1       3.400   6.793  18.017  0.00  0.00    +0.000 A 
ATOM      5  C   UNL     1       3.072   6.359  19.322  0.00  0.00    +0.000 A 
ATOM      6  C   UNL     1       2.192   7.145  20.085  0.00  0.00    +0.000 A 
ENDROOT
BRANCH   5   7
ATOM      7  N   UNL     1       3.657   5.218  19.912  0.00  0.00    +0.000 N 
ATOM      8  C   UNL     1       3.584   3.902  19.444  0.00  0.00    +0.000 A 
ATOM      9  N   UNL     1       4.645   3.113  19.667  0.00  0.00    +0.000 NA
ATOM     10  C   UNL     1       4.582   1.857  19.180  0.00  0.00    +0.000 A 
ATOM     11  C   UNL     1       3.494   1.348  18.513  0.00  0.00    +0.000 A 
ATOM     12  C   UNL     1       2.451   2.219  18.353  0.00  0.00    +0.000 A 
ATOM     13  N   UNL     1       2.478   3.488  18.794  0.00  0.00    +0.000 NA
ATOM     14  H   UNL     1       4.538   5.365  20.373  0.00  0.00    +0.000 HD
ENDBRANCH   5   7
BRANCH   1  16
ATOM     15  C   UNL     1      -0.414  10.151  19.526  0.00  0.00    +0.000 C 
ATOM     16  S   UNL     1       0.639   9.302  20.674  0.00  0.00    +0.000 S 
ATOM     17  O   UNL     1       1.425  10.290  21.388  0.00  0.00    +0.000 OA
ATOM     18  O   UNL     1      -0.182   8.342  21.389  0.00  0.00    +0.000 OA
ENDBRANCH   1  16
BRANCH   4  19
ATOM     19  N   UNL     1       3.967   6.035  17.010  0.00  0.00    +0.000 N 
ATOM     20  H   UNL     1       3.532   6.168  16.101  0.00  0.00    +0.000 HD
BRANCH  19  21
ATOM     21  C   UNL     1       5.247   5.326  16.917  0.00  0.00    +0.000 C 
BRANCH  21  22
ATOM     22  C   UNL     1       5.683   4.919  15.506  0.00  0.00    +0.000 A 
ATOM     23  C   UNL     1       4.947   3.927  14.829  0.00  0.00    +0.000 A 
ATOM     24  C   UNL     1       5.347   3.466  13.573  0.00  0.00    +0.000 A 
ATOM     25  C   UNL     1       6.485   3.993  12.967  0.00  0.00    +0.000 A 
ATOM     26  C   UNL     1       7.210   4.990  13.612  0.00  0.00    +0.000 A 
ATOM     27 CL   UNL     1       8.599   5.662  12.852  0.00  0.00    +0.000 Cl
ATOM     28  C   UNL     1       6.824   5.444  14.874  0.00  0.00    +0.000 A 
ENDBRANCH  21  22
BRANCH  21  29
ATOM     29  C   UNL     1       6.327   6.224  17.560  0.00  0.00    +0.000 A 
ATOM     30  C   UNL     1       7.124   5.730  18.602  0.00  0.00    +0.000 A 
ATOM     31  C   UNL     1       8.135   6.528  19.128  0.00  0.00    +0.000 A 
ATOM     32  C   UNL     1       8.329   7.800  18.610  0.00  0.00    +0.000 A 
ATOM     33  C   UNL     1       7.496   8.225  17.587  0.00  0.00    +0.000 A 
ATOM     34  N   UNL     1       6.509   7.471  17.050  0.00  0.00    +0.000 NA
ENDBRANCH  21  29
ENDBRANCH  19  21
ENDBRANCH   4  19
TORSDOF 6
ENDMDL
MODEL 4
REMARK VINA RESULT:      -8.0      1.652      3.289
REMARK  Name = 
REMARK  7 active torsions:
REMARK  status: ('A' for Active; 'I' for Inactive)
REMARK    1  A    between atoms: C_1  and  S_2
REMARK    2  A    between atoms: S_2  and  C_5
REMARK    3  A    between atoms: C_8  and  N_9
REMARK    4  A    between atoms: N_9  and  C_10
REMARK    5  A    between atoms: C_10  and  C_11
REMARK    6  A    between atoms: C_10  and  C_18
REMARK    7  A    between atoms: C_24  and  N_25
REMARK                            x       y       z     vdW  Elec       q    Type
REMARK                         _______ _______ _______ _____ _____    ______ ____
ROOT
ATOM      1  C   UNL     1       1.816   8.555  19.296  0.00  0.00    +0.000 A 
ATOM      2  C   UNL     1       2.313   8.976  18.074  0.00  0.00    +0.000 A 
ATOM      3  C   UNL     1       3.103   8.093  17.336  0.00  0.00    +0.000 A 
ATOM      4  C   UNL     1       3.437   6.803  17.803  0.00  0.00    +0.000 A 
ATOM      5  C   UNL     1       3.054   6.455  19.118  0.00  0.00    +0.000 A 
ATOM      6  C   UNL     1       2.184   7.316  19.810  0.00  0.00    +0.000 A 
ENDROOT
BRANCH   5   7
ATOM      7  N   UNL     1       3.574   5.327  19.788  0.00  0.00    +0.000 N 
ATOM      8  C   UNL     1       3.469   3.992  19.386  0.00  0.00    +0.000 A 
ATOM      9  N   UNL     1       4.491   3.179  19.688  0.00  0.00    +0.000 NA
ATOM     10  C   UNL     1       4.398   1.901  19.265  0.00  0.00    +0.000 A 
ATOM     11  C   UNL     1       3.316   1.397  18.584  0.00  0.00    +0.000 A 
ATOM     12  C   UNL     1       2.313   2.295  18.341  0.00  0.00    +0.000 A 
ATOM     13  N   UNL     1       2.371   3.583  18.717  0.00  0.00    +0.000 NA
ATOM     14  H   UNL     1       4.443   5.467  20.274  0.00  0.00    +0.000 HD
ENDBRANCH   5   7
BRANCH   1  16
ATOM     15  C   UNL     1       1.394  11.193  20.128  0.00  0.00    +0.000 C 
ATOM     16  S   UNL     1       0.704   9.562  20.231  0.00  0.00    +0.000 S 
ATOM     17  O   UNL     1       0.789   9.117  21.609  0.00  0.00    +0.000 OA
ATOM     18  O   UNL     1      -0.568   9.583  19.531  0.00  0.00    +0.000 OA
ENDBRANCH   1  16
BRANCH   4  19
ATOM     19  N   UNL     1       4.002   5.969  16.857  0.00  0.00    +0.000 N 
ATOM     20  H   UNL     1       3.577   6.045  15.936  0.00  0.00    +0.000 HD
BRANCH  19  21
ATOM     21  C   UNL     1       5.271   5.236  16.826  0.00  0.00    +0.000 C 
BRANCH  21  22
ATOM     22  C   UNL     1       5.755   4.795  15.441  0.00  0.00    +0.000 A 
ATOM     23  C   UNL     1       7.111   4.982  15.107  0.00  0.00    +0.000 A 
ATOM     24  C   UNL     1       7.587   4.669  13.832  0.00  0.00    +0.000 A 
ATOM     25  C   UNL     1       6.718   4.155  12.871  0.00  0.00    +0.000 A 
ATOM     26  C   UNL     1       5.381   3.943  13.193  0.00  0.00    +0.000 A 
ATOM     27 CL   UNL     1       4.315   3.282  12.015  0.00  0.00    +0.000 Cl
ATOM     28  C   UNL     1       4.897   4.268  14.460  0.00  0.00    +0.000 A 
ENDBRANCH  21  22
BRANCH  21  29
ATOM     29  C   UNL     1       6.342   6.127  17.496  0.00  0.00    +0.000 A 
ATOM     30  C   UNL     1       7.070   5.648  18.594  0.00  0.00    +0.000 A 
ATOM     31  C   UNL     1       8.074   6.437  19.146  0.00  0.00    +0.000 A 
ATOM     32  C   UNL     1       8.330   7.685  18.597  0.00  0.00    +0.000 A 
ATOM     33  C   UNL     1       7.564   8.096  17.518  0.00  0.00    +0.000 A 
ATOM     34  N   UNL     1       6.585   7.350  16.955  0.00  0.00    +0.000 NA
ENDBRANCH  21  29
ENDBRANCH  19  21
ENDBRANCH   4  19
TORSDOF 6
ENDMDL
MODEL 5
REMARK VINA RESULT:      -7.7      2.074      3.637
REMARK  Name = 
REMARK  7 active torsions:
REMARK  status: ('A' for Active; 'I' for Inactive)
REMARK    1  A    between atoms: C_1  and  S_2
REMARK    2  A    between atoms: S_2  and  C_5
REMARK    3  A    between atoms: C_8  and  N_9
REMARK    4  A    between atoms: N_9  and  C_10
REMARK    5  A    between atoms: C_10  and  C_11
REMARK    6  A    between atoms: C_10  and  C_18
REMARK    7  A    between atoms: C_24  and  N_25
REMARK                            x       y       z     vdW  Elec       q    Type
REMARK                         _______ _______ _______ _____ _____    ______ ____
ROOT
ATOM      1  C   UNL     1       0.882   9.614  19.070  0.00  0.00    +0.000 A 
ATOM      2  C   UNL     1       1.813   9.603  18.046  0.00  0.00    +0.000 A 
ATOM      3  C   UNL     1       2.646   8.491  17.915  0.00  0.00    +0.000 A 
ATOM      4  C   UNL     1       2.593   7.395  18.804  0.00  0.00    +0.000 A 
ATOM      5  C   UNL     1       1.748   7.498  19.932  0.00  0.00    +0.000 A 
ATOM      6  C   UNL     1       0.853   8.580  19.999  0.00  0.00    +0.000 A 
ENDROOT
BRANCH   5   7
ATOM      7  N   UNL     1       1.828   6.608  21.025  0.00  0.00    +0.000 N 
ATOM      8  C   UNL     1       1.632   5.224  20.995  0.00  0.00    +0.000 A 
ATOM      9  N   UNL     1       2.351   4.485  21.851  0.00  0.00    +0.000 NA
ATOM     10  C   UNL     1       2.183   3.147  21.790  0.00  0.00    +0.000 A 
ATOM     11  C   UNL     1       1.305   2.524  20.935  0.00  0.00    +0.000 A 
ATOM     12  C   UNL     1       0.599   3.361  20.115  0.00  0.00    +0.000 A 
ATOM     13  N   UNL     1       0.753   4.696  20.118  0.00  0.00    +0.000 NA
ATOM     14  H   UNL     1       2.507   6.839  21.729  0.00  0.00    +0.000 HD
ENDBRANCH   5   7
BRANCH   1  16
ATOM     15  C   UNL     1       0.590  12.375  18.720  0.00  0.00    +0.000 C 
ATOM     16  S   UNL     1      -0.296  10.924  19.227  0.00  0.00    +0.000 S 
ATOM     17  O   UNL     1      -0.605  11.047  20.639  0.00  0.00    +0.000 OA
ATOM     18  O   UNL     1      -1.346  10.693  18.251  0.00  0.00    +0.000 OA
ENDBRANCH   1  16
BRANCH   4  19
ATOM     19  N   UNL     1       3.293   6.276  18.392  0.00  0.00    +0.000 N 
ATOM     20  H   UNL     1       3.330   6.164  17.383  0.00  0.00    +0.000 HD
BRANCH  19  21
ATOM     21  C   UNL     1       4.243   5.402  19.086  0.00  0.00    +0.000 C 
BRANCH  21  22
ATOM     22  C   UNL     1       4.100   3.903  18.804  0.00  0.00    +0.000 A 
ATOM     23  C   UNL     1       3.272   3.491  17.741  0.00  0.00    +0.000 A 
ATOM     24  C   UNL     1       3.047   2.135  17.489  0.00  0.00    +0.000 A 
ATOM     25  C   UNL     1       3.651   1.168  18.289  0.00  0.00    +0.000 A 
ATOM     26  C   UNL     1       4.491   1.559  19.328  0.00  0.00    +0.000 A 
ATOM     27 CL   UNL     1       5.260   0.365  20.299  0.00  0.00    +0.000 Cl
ATOM     28  C   UNL     1       4.707   2.912  19.594  0.00  0.00    +0.000 A 
ENDBRANCH  21  22
BRANCH  21  29
ATOM     29  C   UNL     1       5.668   5.870  18.713  0.00  0.00    +0.000 A 
ATOM     30  C   UNL     1       5.870   6.680  17.588  0.00  0.00    +0.000 A 
ATOM     31  C   UNL     1       7.150   7.146  17.300  0.00  0.00    +0.000 A 
ATOM     32  C   UNL     1       8.199   6.794  18.136  0.00  0.00    +0.000 A 
ATOM     33  C   UNL     1       7.925   5.982  19.225  0.00  0.00    +0.000 A 
ATOM     34  N   UNL     1       6.692   5.519  19.535  0.00  0.00    +0.000 NA
ENDBRANCH  21  29
ENDBRANCH  19  21
ENDBRANCH   4  19
TORSDOF 6
ENDMDL
MODEL 6
REMARK VINA RESULT:      -7.7      1.708      3.136
REMARK  Name = 
REMARK  7 active torsions:
REMARK  status: ('A' for Active; 'I' for Inactive)
REMARK    1  A    between atoms: C_1  and  S_2
REMARK    2  A    between atoms: S_2  and  C_5
REMARK    3  A    between atoms: C_8  and  N_9
REMARK    4  A    between atoms: N_9  and  C_10
REMARK    5  A    between atoms: C_10  and  C_11
REMARK    6  A    between atoms: C_10  and  C_18
REMARK    7  A    between atoms: C_24  and  N_25
REMARK                            x       y       z     vdW  Elec       q    Type
REMARK                         _______ _______ _______ _____ _____    ______ ____
ROOT
ATOM      1  C   UNL     1       1.779   8.600  19.347  0.00  0.00    +0.000 A 
ATOM      2  C   UNL     1       2.340   9.168  18.215  0.00  0.00    +0.000 A 
ATOM      3  C   UNL     1       3.176   8.383  17.421  0.00  0.00    +0.000 A 
ATOM      4  C   UNL     1       3.493   7.046  17.744  0.00  0.00    +0.000 A 
ATOM      5  C   UNL     1       3.040   6.539  18.983  0.00  0.00    +0.000 A 
ATOM      6  C   UNL     1       2.127   7.308  19.725  0.00  0.00    +0.000 A 
ENDROOT
BRANCH   5   7
ATOM      7  N   UNL     1       3.530   5.337  19.536  0.00  0.00    +0.000 N 
ATOM      8  C   UNL     1       3.053   4.045  19.291  0.00  0.00    +0.000 A 
ATOM      9  N   UNL     1       3.948   3.047  19.315  0.00  0.00    +0.000 NA
ATOM     10  C   UNL     1       3.486   1.810  19.041  0.00  0.00    +0.000 A 
ATOM     11  C   UNL     1       2.167   1.525  18.779  0.00  0.00    +0.000 A 
ATOM     12  C   UNL     1       1.325   2.603  18.799  0.00  0.00    +0.000 A 
ATOM     13  N   UNL     1       1.742   3.858  19.037  0.00  0.00    +0.000 NA
ATOM     14  H   UNL     1       4.520   5.305  19.709  0.00  0.00    +0.000 HD
ENDBRANCH   5   7
BRANCH   1  16
ATOM     15  C   UNL     1      -0.619  10.032  19.179  0.00  0.00    +0.000 C 
ATOM     16  S   UNL     1       0.609   9.484  20.335  0.00  0.00    +0.000 S 
ATOM     17  O   UNL     1       1.295  10.650  20.859  0.00  0.00    +0.000 OA
ATOM     18  O   UNL     1      -0.027   8.530  21.225  0.00  0.00    +0.000 OA
ENDBRANCH   1  16
BRANCH   4  19
ATOM     19  N   UNL     1       4.116   6.335  16.735  0.00  0.00    +0.000 N 
ATOM     20  H   UNL     1       3.978   6.729  15.809  0.00  0.00    +0.000 HD
BRANCH  19  21
ATOM     21  C   UNL     1       5.175   5.322  16.758  0.00  0.00    +0.000 C 
BRANCH  21  22
ATOM     22  C   UNL     1       5.682   4.856  15.389  0.00  0.00    +0.000 A 
ATOM     23  C   UNL     1       7.046   5.026  15.079  0.00  0.00    +0.000 A 
ATOM     24  C   UNL     1       7.544   4.688  13.819  0.00  0.00    +0.000 A 
ATOM     25  C   UNL     1       6.690   4.166  12.849  0.00  0.00    +0.000 A 
ATOM     26  C   UNL     1       5.345   3.970  13.148  0.00  0.00    +0.000 A 
ATOM     27 CL   UNL     1       4.297   3.299  11.961  0.00  0.00    +0.000 Cl
ATOM     28  C   UNL     1       4.839   4.319  14.400  0.00  0.00    +0.000 A 
ENDBRANCH  21  22
BRANCH  21  29
ATOM     29  C   UNL     1       6.350   5.893  17.584  0.00  0.00    +0.000 A 
ATOM     30  C   UNL     1       6.912   7.132  17.245  0.00  0.00    +0.000 A 
ATOM     31  C   UNL     1       7.927   7.662  18.035  0.00  0.00    +0.000 A 
ATOM     32  C   UNL     1       8.363   6.949  19.142  0.00  0.00    +0.000 A 
ATOM     33  C   UNL     1       7.767   5.727  19.410  0.00  0.00    +0.000 A 
ATOM     34  N   UNL     1       6.775   5.187  18.665  0.00  0.00    +0.000 NA
ENDBRANCH  21  29
ENDBRANCH  19  21
ENDBRANCH   4  19
TORSDOF 6
ENDMDL
MODEL 7
REMARK VINA RESULT:      -7.7      2.365      3.569
REMARK  Name = 
REMARK  7 active torsions:
REMARK  status: ('A' for Active; 'I' for Inactive)
REMARK    1  A    between atoms: C_1  and  S_2
REMARK    2  A    between atoms: S_2  and  C_5
REMARK    3  A    between atoms: C_8  and  N_9
REMARK    4  A    between atoms: N_9  and  C_10
REMARK    5  A    between atoms: C_10  and  C_11
REMARK    6  A    between atoms: C_10  and  C_18
REMARK    7  A    between atoms: C_24  and  N_25
REMARK                            x       y       z     vdW  Elec       q    Type
REMARK                         _______ _______ _______ _____ _____    ______ ____
ROOT
ATOM      1  C   UNL     1       1.506   8.582  19.840  0.00  0.00    +0.000 A 
ATOM      2  C   UNL     1       1.946   9.214  18.688  0.00  0.00    +0.000 A 
ATOM      3  C   UNL     1       2.813   8.523  17.840  0.00  0.00    +0.000 A 
ATOM      4  C   UNL     1       3.279   7.222  18.128  0.00  0.00    +0.000 A 
ATOM      5  C   UNL     1       2.946   6.661  19.381  0.00  0.00    +0.000 A 
ATOM      6  C   UNL     1       2.001   7.329  20.181  0.00  0.00    +0.000 A 
ENDROOT
BRANCH   5   7
ATOM      7  N   UNL     1       3.582   5.510  19.892  0.00  0.00    +0.000 N 
ATOM      8  C   UNL     1       3.433   4.197  19.434  0.00  0.00    +0.000 A 
ATOM      9  N   UNL     1       4.502   3.393  19.522  0.00  0.00    +0.000 NA
ATOM     10  C   UNL     1       4.360   2.139  19.044  0.00  0.00    +0.000 A 
ATOM     11  C   UNL     1       3.190   1.648  18.517  0.00  0.00    +0.000 A 
ATOM     12  C   UNL     1       2.148   2.534  18.490  0.00  0.00    +0.000 A 
ATOM     13  N   UNL     1       2.248   3.801  18.926  0.00  0.00    +0.000 NA
ATOM     14  H   UNL     1       4.516   5.643  20.240  0.00  0.00    +0.000 HD
ENDBRANCH   5   7
BRANCH   1  16
ATOM     15  C   UNL     1      -0.688  10.319  19.810  0.00  0.00    +0.000 C 
ATOM     16  S   UNL     1       0.309   9.336  20.900  0.00  0.00    +0.000 S 
ATOM     17  O   UNL     1       1.031  10.228  21.787  0.00  0.00    +0.000 OA
ATOM     18  O   UNL     1      -0.537   8.281  21.430  0.00  0.00    +0.000 OA
ENDBRANCH   1  16
BRANCH   4  19
ATOM     19  N   UNL     1       3.915   6.586  17.078  0.00  0.00    +0.000 N 
ATOM     20  H   UNL     1       3.297   6.009  16.512  0.00  0.00    +0.000 HD
BRANCH  19  21
ATOM     21  C   UNL     1       5.212   6.811  16.433  0.00  0.00    +0.000 C 
BRANCH  21  22
ATOM     22  C   UNL     1       6.385   7.099  17.376  0.00  0.00    +0.000 A 
ATOM     23  C   UNL     1       7.054   8.333  17.267  0.00  0.00    +0.000 A 
ATOM     24  C   UNL     1       8.176   8.615  18.049  0.00  0.00    +0.000 A 
ATOM     25  C   UNL     1       8.644   7.671  18.961  0.00  0.00    +0.000 A 
ATOM     26  C   UNL     1       7.980   6.456  19.097  0.00  0.00    +0.000 A 
ATOM     27 CL   UNL     1       8.541   5.301  20.243  0.00  0.00    +0.000 Cl
ATOM     28  C   UNL     1       6.867   6.163  18.308  0.00  0.00    +0.000 A 
ENDBRANCH  21  22
BRANCH  21  29
ATOM     29  C   UNL     1       5.527   5.569  15.570  0.00  0.00    +0.000 A 
ATOM     30  C   UNL     1       4.859   4.360  15.805  0.00  0.00    +0.000 A 
ATOM     31  C   UNL     1       5.108   3.268  14.980  0.00  0.00    +0.000 A 
ATOM     32  C   UNL     1       6.017   3.401  13.941  0.00  0.00    +0.000 A 
ATOM     33  C   UNL     1       6.647   4.624  13.774  0.00  0.00    +0.000 A 
ATOM     34  N   UNL     1       6.422   5.706  14.556  0.00  0.00    +0.000 NA
ENDBRANCH  21  29
ENDBRANCH  19  21
ENDBRANCH   4  19
TORSDOF 6
ENDMDL
MODEL 8
REMARK VINA RESULT:      -7.6      1.998      2.309
REMARK  Name = 
REMARK  7 active torsions:
REMARK  status: ('A' for Active; 'I' for Inactive)
REMARK    1  A    between atoms: C_1  and  S_2
REMARK    2  A    between atoms: S_2  and  C_5
REMARK    3  A    between atoms: C_8  and  N_9
REMARK    4  A    between atoms: N_9  and  C_10
REMARK    5  A    between atoms: C_10  and  C_11
REMARK    6  A    between atoms: C_10  and  C_18
REMARK    7  A    between atoms: C_24  and  N_25
REMARK                            x       y       z     vdW  Elec       q    Type
REMARK                         _______ _______ _______ _____ _____    ______ ____
ROOT
ATOM      1  C   UNL     1       1.598   9.785  19.056  0.00  0.00    +0.000 A 
ATOM      2  C   UNL     1       2.191   9.504  17.837  0.00  0.00    +0.000 A 
ATOM      3  C   UNL     1       2.592   8.192  17.578  0.00  0.00    +0.000 A 
ATOM      4  C   UNL     1       2.442   7.154  18.522  0.00  0.00    +0.000 A 
ATOM      5  C   UNL     1       1.982   7.494  19.814  0.00  0.00    +0.000 A 
ATOM      6  C   UNL     1       1.499   8.797  20.029  0.00  0.00    +0.000 A 
ENDROOT
BRANCH   5   7
ATOM      7  N   UNL     1       2.068   6.607  20.909  0.00  0.00    +0.000 N 
ATOM      8  C   UNL     1       1.784   5.239  20.903  0.00  0.00    +0.000 A 
ATOM      9  N   UNL     1       2.502   4.460  21.725  0.00  0.00    +0.000 NA
ATOM     10  C   UNL     1       2.246   3.136  21.686  0.00  0.00    +0.000 A 
ATOM     11  C   UNL     1       1.285   2.565  20.889  0.00  0.00    +0.000 A 
ATOM     12  C   UNL     1       0.588   3.440  20.101  0.00  0.00    +0.000 A 
ATOM     13  N   UNL     1       0.824   4.762  20.083  0.00  0.00    +0.000 NA
ATOM     14  H   UNL     1       2.799   6.799  21.572  0.00  0.00    +0.000 HD
ENDBRANCH   5   7
BRANCH   1  16
ATOM     15  C   UNL     1       2.045  12.506  18.579  0.00  0.00    +0.000 C 
ATOM     16  S   UNL     1       0.946  11.390  19.412  0.00  0.00    +0.000 S 
ATOM     17  O   UNL     1       1.085  11.595  20.841  0.00  0.00    +0.000 OA
ATOM     18  O   UNL     1      -0.350  11.493  18.766  0.00  0.00    +0.000 OA
ENDBRANCH   1  16
BRANCH   4  19
ATOM     19  N   UNL     1       2.646   5.880  18.024  0.00  0.00    +0.000 N 
ATOM     20  H   UNL     1       1.788   5.371  17.833  0.00  0.00    +0.000 HD
BRANCH  19  21
ATOM     21  C   UNL     1       3.821   5.235  17.430  0.00  0.00    +0.000 C 
BRANCH  21  22
ATOM     22  C   UNL     1       5.173   5.877  17.759  0.00  0.00    +0.000 A 
ATOM     23  C   UNL     1       5.636   6.932  16.949  0.00  0.00    +0.000 A 
ATOM     24  C   UNL     1       6.894   7.500  17.159  0.00  0.00    +0.000 A 
ATOM     25  C   UNL     1       7.709   7.030  18.187  0.00  0.00    +0.000 A 
ATOM     26  C   UNL     1       7.256   6.004  19.011  0.00  0.00    +0.000 A 
ATOM     27 CL   UNL     1       8.249   5.442  20.298  0.00  0.00    +0.000 Cl
ATOM     28  C   UNL     1       6.006   5.422  18.796  0.00  0.00    +0.000 A 
ENDBRANCH  21  22
BRANCH  21  29
ATOM     29  C   UNL     1       3.820   3.757  17.880  0.00  0.00    +0.000 A 
ATOM     30  C   UNL     1       4.630   3.346  18.948  0.00  0.00    +0.000 A 
ATOM     31  C   UNL     1       4.572   2.025  19.383  0.00  0.00    +0.000 A 
ATOM     32  C   UNL     1       3.713   1.142  18.745  0.00  0.00    +0.000 A 
ATOM     33  C   UNL     1       2.950   1.617  17.690  0.00  0.00    +0.000 A 
ATOM     34  N   UNL     1       2.979   2.896  17.248  0.00  0.00    +0.000 NA
ENDBRANCH  21  29
ENDBRANCH  19  21
ENDBRANCH   4  19
TORSDOF 6
ENDMDL
MODEL 9
REMARK VINA RESULT:      -7.5      4.179      7.988
REMARK  Name = 
REMARK  7 active torsions:
REMARK  status: ('A' for Active; 'I' for Inactive)
REMARK    1  A    between atoms: C_1  and  S_2
REMARK    2  A    between atoms: S_2  and  C_5
REMARK    3  A    between atoms: C_8  and  N_9
REMARK    4  A    between atoms: N_9  and  C_10
REMARK    5  A    between atoms: C_10  and  C_11
REMARK    6  A    between atoms: C_10  and  C_18
REMARK    7  A    between atoms: C_24  and  N_25
REMARK                            x       y       z     vdW  Elec       q    Type
REMARK                         _______ _______ _______ _____ _____    ______ ____
ROOT
ATOM      1  C   UNL     1       1.998   5.401  20.195  0.00  0.00    +0.000 A 
ATOM      2  C   UNL     1       1.410   6.382  20.975  0.00  0.00    +0.000 A 
ATOM      3  C   UNL     1       1.394   7.693  20.496  0.00  0.00    +0.000 A 
ATOM      4  C   UNL     1       1.980   8.057  19.264  0.00  0.00    +0.000 A 
ATOM      5  C   UNL     1       2.711   7.072  18.561  0.00  0.00    +0.000 A 
ATOM      6  C   UNL     1       2.640   5.742  19.010  0.00  0.00    +0.000 A 
ENDROOT
BRANCH   5   7
ATOM      7  N   UNL     1       3.569   7.386  17.486  0.00  0.00    +0.000 N 
ATOM      8  C   UNL     1       4.709   6.681  17.089  0.00  0.00    +0.000 A 
ATOM      9  N   UNL     1       4.996   6.668  15.780  0.00  0.00    +0.000 NA
ATOM     10  C   UNL     1       6.077   5.954  15.401  0.00  0.00    +0.000 A 
ATOM     11  C   UNL     1       6.896   5.283  16.277  0.00  0.00    +0.000 A 
ATOM     12  C   UNL     1       6.537   5.372  17.593  0.00  0.00    +0.000 A 
ATOM     13  N   UNL     1       5.454   6.046  18.017  0.00  0.00    +0.000 NA
ATOM     14  H   UNL     1       3.130   7.802  16.682  0.00  0.00    +0.000 HD
ENDBRANCH   5   7
BRANCH   1  16
ATOM     15  C   UNL     1       3.337   2.969  19.843  0.00  0.00    +0.000 C 
ATOM     16  S   UNL     1       1.946   3.698  20.669  0.00  0.00    +0.000 S 
ATOM     17  O   UNL     1       0.734   3.138  20.103  0.00  0.00    +0.000 OA
ATOM     18  O   UNL     1       2.204   3.629  22.096  0.00  0.00    +0.000 OA
ENDBRANCH   1  16
BRANCH   4  19
ATOM     19  N   UNL     1       1.657   9.325  18.817  0.00  0.00    +0.000 N 
ATOM     20  H   UNL     1       1.746   9.441  17.812  0.00  0.00    +0.000 HD
BRANCH  19  21
ATOM     21  C   UNL     1       0.925  10.430  19.444  0.00  0.00    +0.000 C 
BRANCH  21  22
ATOM     22  C   UNL     1       1.625  11.792  19.423  0.00  0.00    +0.000 A 
ATOM     23  C   UNL     1       2.267  12.205  18.238  0.00  0.00    +0.000 A 
ATOM     24  C   UNL     1       2.984  13.402  18.189  0.00  0.00    +0.000 A 
ATOM     25  C   UNL     1       3.067  14.212  19.320  0.00  0.00    +0.000 A 
ATOM     26  C   UNL     1       2.419  13.829  20.491  0.00  0.00    +0.000 A 
ATOM     27 CL   UNL     1       2.498  14.842  21.879  0.00  0.00    +0.000 Cl
ATOM     28  C   UNL     1       1.714  12.627  20.550  0.00  0.00    +0.000 A 
ENDBRANCH  21  22
BRANCH  21  29
ATOM     29  C   UNL     1      -0.449  10.537  18.743  0.00  0.00    +0.000 A 
ATOM     30  C   UNL     1      -0.706   9.798  17.581  0.00  0.00    +0.000 A 
ATOM     31  C   UNL     1      -1.967   9.857  16.997  0.00  0.00    +0.000 A 
ATOM     32  C   UNL     1      -2.944  10.651  17.579  0.00  0.00    +0.000 A 
ATOM     33  C   UNL     1      -2.615  11.361  18.723  0.00  0.00    +0.000 A 
ATOM     34  N   UNL     1      -1.400  11.320  19.318  0.00  0.00    +0.000 NA
ENDBRANCH  21  29
ENDBRANCH  19  21
ENDBRANCH   4  19
TORSDOF 6
ENDMDL
