MODEL 1
REMARK VINA RESULT:      -6.1      0.000      0.000
REMARK  Name = 
REMARK  0 active torsions:
REMARK  status: ('A' for Active; 'I' for Inactive)
REMARK                            x       y       z     vdW  Elec       q    Type
REMARK                         _______ _______ _______ _____ _____    ______ ____
ROOT
ATOM      1  O   UNL     1       2.963   7.146  18.909  0.00  0.00    +0.000 OA
ATOM      2  C   UNL     1       3.163   5.979  18.593  0.00  0.00    +0.000 C 
ATOM      3  C   UNL     1       2.511   4.861  19.285  0.00  0.00    +0.000 A 
ATOM      4  C   UNL     1       1.588   4.951  20.375  0.00  0.00    +0.000 A 
ATOM      5  C   UNL     1       1.156   3.713  20.799  0.00  0.00    +0.000 A 
ATOM      6  S   UNL     1       1.856   2.443  19.893  0.00  0.00    +0.000 S 
ATOM      7  C   UNL     1       2.739   3.537  18.929  0.00  0.00    +0.000 A 
ATOM      8  C   UNL     1       3.617   3.072  17.866  0.00  0.00    +0.000 C 
ATOM      9  O   UNL     1       3.820   1.905  17.553  0.00  0.00    +0.000 OA
ATOM     10  C   UNL     1       4.266   4.190  17.172  0.00  0.00    +0.000 A 
ATOM     11  C   UNL     1       5.186   4.098  16.079  0.00  0.00    +0.000 A 
ATOM     12  C   UNL     1       5.613   5.336  15.650  0.00  0.00    +0.000 A 
ATOM     13  S   UNL     1       4.915   6.607  16.557  0.00  0.00    +0.000 S 
ATOM     14  C   UNL     1       4.038   5.513  17.527  0.00  0.00    +0.000 A 
ENDROOT
TORSDOF 0
ENDMDL
MODEL 2
REMARK VINA RESULT:      -6.1      0.047      4.982
REMARK  Name = 
REMARK  0 active torsions:
REMARK  status: ('A' for Active; 'I' for Inactive)
REMARK                            x       y       z     vdW  Elec       q    Type
REMARK                         _______ _______ _______ _____ _____    ______ ____
ROOT
ATOM      1  O   UNL     1       3.802   1.876  17.580  0.00  0.00    +0.000 OA
ATOM      2  C   UNL     1       3.591   3.045  17.880  0.00  0.00    +0.000 C 
ATOM      3  C   UNL     1       4.239   4.160  17.180  0.00  0.00    +0.000 A 
ATOM      4  C   UNL     1       5.166   4.065  16.093  0.00  0.00    +0.000 A 
ATOM      5  C   UNL     1       5.591   5.301  15.658  0.00  0.00    +0.000 A 
ATOM      6  S   UNL     1       4.882   6.575  16.550  0.00  0.00    +0.000 S 
ATOM      7  C   UNL     1       4.003   5.486  17.522  0.00  0.00    +0.000 A 
ATOM      8  C   UNL     1       3.119   5.957  18.578  0.00  0.00    +0.000 C 
ATOM      9  O   UNL     1       2.911   7.125  18.881  0.00  0.00    +0.000 OA
ATOM     10  C   UNL     1       2.467   4.842  19.276  0.00  0.00    +0.000 A 
ATOM     11  C   UNL     1       1.538   4.939  20.359  0.00  0.00    +0.000 A 
ATOM     12  C   UNL     1       1.107   3.704  20.791  0.00  0.00    +0.000 A 
ATOM     13  S   UNL     1       1.817   2.428  19.900  0.00  0.00    +0.000 S 
ATOM     14  C   UNL     1       2.703   3.517  18.933  0.00  0.00    +0.000 A 
ENDROOT
TORSDOF 0
ENDMDL
MODEL 3
REMARK VINA RESULT:      -5.9      1.146      2.840
REMARK  Name = 
REMARK  0 active torsions:
REMARK  status: ('A' for Active; 'I' for Inactive)
REMARK                            x       y       z     vdW  Elec       q    Type
REMARK                         _______ _______ _______ _____ _____    ______ ____
ROOT
ATOM      1  O   UNL     1       3.885   1.877  17.571  0.00  0.00    +0.000 OA
ATOM      2  C   UNL     1       3.654   3.042  17.874  0.00  0.00    +0.000 C 
ATOM      3  C   UNL     1       2.738   3.398  18.963  0.00  0.00    +0.000 A 
ATOM      4  C   UNL     1       2.012   2.493  19.801  0.00  0.00    +0.000 A 
ATOM      5  C   UNL     1       1.237   3.149  20.732  0.00  0.00    +0.000 A 
ATOM      6  S   UNL     1       1.377   4.848  20.603  0.00  0.00    +0.000 S 
ATOM      7  C   UNL     1       2.474   4.719  19.304  0.00  0.00    +0.000 A 
ATOM      8  C   UNL     1       3.035   5.901  18.667  0.00  0.00    +0.000 C 
ATOM      9  O   UNL     1       2.801   7.065  18.966  0.00  0.00    +0.000 OA
ATOM     10  C   UNL     1       3.954   5.544  17.580  0.00  0.00    +0.000 A 
ATOM     11  C   UNL     1       4.683   6.451  16.745  0.00  0.00    +0.000 A 
ATOM     12  C   UNL     1       5.463   5.796  15.819  0.00  0.00    +0.000 A 
ATOM     13  S   UNL     1       5.322   4.096  15.946  0.00  0.00    +0.000 S 
ATOM     14  C   UNL     1       4.219   4.224  17.239  0.00  0.00    +0.000 A 
ENDROOT
TORSDOF 0
ENDMDL
MODEL 4
REMARK VINA RESULT:      -5.9      1.171      4.095
REMARK  Name = 
REMARK  0 active torsions:
REMARK  status: ('A' for Active; 'I' for Inactive)
REMARK                            x       y       z     vdW  Elec       q    Type
REMARK                         _______ _______ _______ _____ _____    ______ ____
ROOT
ATOM      1  O   UNL     1       2.869   7.085  18.857  0.00  0.00    +0.000 OA
ATOM      2  C   UNL     1       3.087   5.907  18.601  0.00  0.00    +0.000 C 
ATOM      3  C   UNL     1       3.999   5.498  17.527  0.00  0.00    +0.000 A 
ATOM      4  C   UNL     1       4.741   6.363  16.659  0.00  0.00    +0.000 A 
ATOM      5  C   UNL     1       5.509   5.662  15.755  0.00  0.00    +0.000 A 
ATOM      6  S   UNL     1       5.342   3.971  15.944  0.00  0.00    +0.000 S 
ATOM      7  C   UNL     1       4.245   4.163  17.234  0.00  0.00    +0.000 A 
ATOM      8  C   UNL     1       3.664   3.013  17.911  0.00  0.00    +0.000 C 
ATOM      9  O   UNL     1       3.880   1.835  17.652  0.00  0.00    +0.000 OA
ATOM     10  C   UNL     1       2.755   3.422  18.988  0.00  0.00    +0.000 A 
ATOM     11  C   UNL     1       2.018   2.556  19.857  0.00  0.00    +0.000 A 
ATOM     12  C   UNL     1       1.255   3.255  20.766  0.00  0.00    +0.000 A 
ATOM     13  S   UNL     1       1.419   4.947  20.577  0.00  0.00    +0.000 S 
ATOM     14  C   UNL     1       2.510   4.757  19.281  0.00  0.00    +0.000 A 
ENDROOT
TORSDOF 0
ENDMDL
MODEL 5
REMARK VINA RESULT:      -5.6      1.385      4.971
REMARK  Name = 
REMARK  0 active torsions:
REMARK  status: ('A' for Active; 'I' for Inactive)
REMARK                            x       y       z     vdW  Elec       q    Type
REMARK                         _______ _______ _______ _____ _____    ______ ____
ROOT
ATOM      1  O   UNL     1       5.296   2.526  19.660  0.00  0.00    +0.000 OA
ATOM      2  C   UNL     1       4.673   3.536  19.355  0.00  0.00    +0.000 C 
ATOM      3  C   UNL     1       5.242   4.569  18.481  0.00  0.00    +0.000 A 
ATOM      4  C   UNL     1       6.540   4.560  17.878  0.00  0.00    +0.000 A 
ATOM      5  C   UNL     1       6.768   5.681  17.111  0.00  0.00    +0.000 A 
ATOM      6  S   UNL     1       5.430   6.746  17.114  0.00  0.00    +0.000 S 
ATOM      7  C   UNL     1       4.537   5.716  18.138  0.00  0.00    +0.000 A 
ATOM      8  C   UNL     1       3.191   6.060  18.569  0.00  0.00    +0.000 C 
ATOM      9  O   UNL     1       2.569   7.072  18.268  0.00  0.00    +0.000 OA
ATOM     10  C   UNL     1       2.621   5.025  19.439  0.00  0.00    +0.000 A 
ATOM     11  C   UNL     1       1.321   5.034  20.039  0.00  0.00    +0.000 A 
ATOM     12  C   UNL     1       1.089   3.910  20.801  0.00  0.00    +0.000 A 
ATOM     13  S   UNL     1       2.427   2.845  20.800  0.00  0.00    +0.000 S 
ATOM     14  C   UNL     1       3.324   3.878  19.782  0.00  0.00    +0.000 A 
ENDROOT
TORSDOF 0
ENDMDL
MODEL 6
REMARK VINA RESULT:      -5.6      1.413      1.413
REMARK  Name = 
REMARK  0 active torsions:
REMARK  status: ('A' for Active; 'I' for Inactive)
REMARK                            x       y       z     vdW  Elec       q    Type
REMARK                         _______ _______ _______ _____ _____    ______ ____
ROOT
ATOM      1  O   UNL     1       2.706   7.119  18.308  0.00  0.00    +0.000 OA
ATOM      2  C   UNL     1       3.296   6.086  18.600  0.00  0.00    +0.000 C 
ATOM      3  C   UNL     1       2.694   5.060  19.460  0.00  0.00    +0.000 A 
ATOM      4  C   UNL     1       1.393   5.099  20.056  0.00  0.00    +0.000 A 
ATOM      5  C   UNL     1       1.128   3.975  20.808  0.00  0.00    +0.000 A 
ATOM      6  S   UNL     1       2.437   2.874  20.801  0.00  0.00    +0.000 S 
ATOM      7  C   UNL     1       3.364   3.889  19.794  0.00  0.00    +0.000 A 
ATOM      8  C   UNL     1       4.703   3.513  19.367  0.00  0.00    +0.000 C 
ATOM      9  O   UNL     1       5.295   2.482  19.663  0.00  0.00    +0.000 OA
ATOM     10  C   UNL     1       5.304   4.538  18.505  0.00  0.00    +0.000 A 
ATOM     11  C   UNL     1       6.603   4.495  17.906  0.00  0.00    +0.000 A 
ATOM     12  C   UNL     1       6.866   5.615  17.148  0.00  0.00    +0.000 A 
ATOM     13  S   UNL     1       5.559   6.718  17.156  0.00  0.00    +0.000 S 
ATOM     14  C   UNL     1       4.634   5.707  18.170  0.00  0.00    +0.000 A 
ENDROOT
TORSDOF 0
ENDMDL
MODEL 7
REMARK VINA RESULT:      -5.6      1.703      4.272
REMARK  Name = 
REMARK  0 active torsions:
REMARK  status: ('A' for Active; 'I' for Inactive)
REMARK                            x       y       z     vdW  Elec       q    Type
REMARK                         _______ _______ _______ _____ _____    ______ ____
ROOT
ATOM      1  O   UNL     1       2.215   6.954  18.482  0.00  0.00    +0.000 OA
ATOM      2  C   UNL     1       2.899   5.971  18.740  0.00  0.00    +0.000 C 
ATOM      3  C   UNL     1       4.249   5.793  18.194  0.00  0.00    +0.000 A 
ATOM      4  C   UNL     1       4.945   6.693  17.324  0.00  0.00    +0.000 A 
ATOM      5  C   UNL     1       6.201   6.233  16.993  0.00  0.00    +0.000 A 
ATOM      6  S   UNL     1       6.547   4.725  17.721  0.00  0.00    +0.000 S 
ATOM      7  C   UNL     1       5.023   4.677  18.484  0.00  0.00    +0.000 A 
ATOM      8  C   UNL     1       4.637   3.560  19.334  0.00  0.00    +0.000 C 
ATOM      9  O   UNL     1       5.319   2.574  19.589  0.00  0.00    +0.000 OA
ATOM     10  C   UNL     1       3.288   3.739  19.883  0.00  0.00    +0.000 A 
ATOM     11  C   UNL     1       2.596   2.840  20.756  0.00  0.00    +0.000 A 
ATOM     12  C   UNL     1       1.343   3.302  21.093  0.00  0.00    +0.000 A 
ATOM     13  S   UNL     1       0.995   4.809  20.364  0.00  0.00    +0.000 S 
ATOM     14  C   UNL     1       2.515   4.855  19.593  0.00  0.00    +0.000 A 
ENDROOT
TORSDOF 0
ENDMDL
MODEL 8
REMARK VINA RESULT:      -5.6      1.707      2.881
REMARK  Name = 
REMARK  0 active torsions:
REMARK  status: ('A' for Active; 'I' for Inactive)
REMARK                            x       y       z     vdW  Elec       q    Type
REMARK                         _______ _______ _______ _____ _____    ______ ____
ROOT
ATOM      1  O   UNL     1       5.332   2.619  19.572  0.00  0.00    +0.000 OA
ATOM      2  C   UNL     1       4.659   3.610  19.315  0.00  0.00    +0.000 C 
ATOM      3  C   UNL     1       3.314   3.805  19.869  0.00  0.00    +0.000 A 
ATOM      4  C   UNL     1       2.616   2.921  20.753  0.00  0.00    +0.000 A 
ATOM      5  C   UNL     1       1.368   3.397  21.091  0.00  0.00    +0.000 A 
ATOM      6  S   UNL     1       1.032   4.901  20.351  0.00  0.00    +0.000 S 
ATOM      7  C   UNL     1       2.549   4.927  19.575  0.00  0.00    +0.000 A 
ATOM      8  C   UNL     1       2.939   6.032  18.712  0.00  0.00    +0.000 C 
ATOM      9  O   UNL     1       2.265   7.021  18.452  0.00  0.00    +0.000 OA
ATOM     10  C   UNL     1       4.286   5.839  18.161  0.00  0.00    +0.000 A 
ATOM     11  C   UNL     1       4.983   6.726  17.281  0.00  0.00    +0.000 A 
ATOM     12  C   UNL     1       6.234   6.255  16.948  0.00  0.00    +0.000 A 
ATOM     13  S   UNL     1       6.571   4.749  17.686  0.00  0.00    +0.000 S 
ATOM     14  C   UNL     1       5.050   4.718  18.456  0.00  0.00    +0.000 A 
ENDROOT
TORSDOF 0
ENDMDL
MODEL 9
REMARK VINA RESULT:      -5.5      1.825      1.887
REMARK  Name = 
REMARK  0 active torsions:
REMARK  status: ('A' for Active; 'I' for Inactive)
REMARK                            x       y       z     vdW  Elec       q    Type
REMARK                         _______ _______ _______ _____ _____    ______ ____
ROOT
ATOM      1  O   UNL     1       6.043   5.116  19.935  0.00  0.00    +0.000 OA
ATOM      2  C   UNL     1       5.238   4.702  19.110  0.00  0.00    +0.000 C 
ATOM      3  C   UNL     1       3.849   4.388  19.464  0.00  0.00    +0.000 A 
ATOM      4  C   UNL     1       3.247   4.511  20.758  0.00  0.00    +0.000 A 
ATOM      5  C   UNL     1       1.922   4.135  20.756  0.00  0.00    +0.000 A 
ATOM      6  S   UNL     1       1.398   3.633  19.208  0.00  0.00    +0.000 S 
ATOM      7  C   UNL     1       2.936   3.915  18.530  0.00  0.00    +0.000 A 
ATOM      8  C   UNL     1       3.198   3.669  17.120  0.00  0.00    +0.000 C 
ATOM      9  O   UNL     1       2.394   3.251  16.295  0.00  0.00    +0.000 OA
ATOM     10  C   UNL     1       4.586   3.987  16.764  0.00  0.00    +0.000 A 
ATOM     11  C   UNL     1       5.184   3.867  15.469  0.00  0.00    +0.000 A 
ATOM     12  C   UNL     1       6.508   4.249  15.468  0.00  0.00    +0.000 A 
ATOM     13  S   UNL     1       7.034   4.750  17.017  0.00  0.00    +0.000 S 
ATOM     14  C   UNL     1       5.498   4.460  17.698  0.00  0.00    +0.000 A 
ENDROOT
TORSDOF 0
ENDMDL
