MODEL 1
REMARK VINA RESULT:      -6.8      0.000      0.000
REMARK  Name = 
REMARK  4 active torsions:
REMARK  status: ('A' for Active; 'I' for Inactive)
REMARK    1  A    between atoms: C_1  and  C_2
REMARK    2  A    between atoms: C_2  and  O_3
REMARK    3  A    between atoms: O_3  and  C_4
REMARK    4  A    between atoms: C_4  and  C_6
REMARK                            x       y       z     vdW  Elec       q    Type
REMARK                         _______ _______ _______ _____ _____    ______ ____
ROOT
ATOM      1  C   UNL     1       3.823   4.777  18.547  0.00  0.00    +0.000 A 
ATOM      2  C   UNL     1       3.194   6.054  18.681  0.00  0.00    +0.000 A 
ATOM      3  C   UNL     1       2.389   6.029  19.805  0.00  0.00    +0.000 A 
ATOM      4  N   UNL     1       2.473   4.765  20.364  0.00  0.00    +0.000 N 
ATOM      5  C   UNL     1       1.798   4.259  21.483  0.00  0.00    +0.000 A 
ATOM      6  C   UNL     1       2.000   2.995  21.883  0.00  0.00    +0.000 A 
ATOM      7  C   UNL     1       2.960   2.188  21.166  0.00  0.00    +0.000 A 
ATOM      8  C   UNL     1       3.635   2.663  20.100  0.00  0.00    +0.000 A 
ATOM      9 CL   UNL     1       4.850   1.654  19.410  0.00  0.00    +0.000 Cl
ATOM     10  C   UNL     1       3.380   3.994  19.614  0.00  0.00    +0.000 A 
ATOM     11  C   UNL     1       1.598   7.160  20.243  0.00  0.00    +0.000 C 
ATOM     12  O   UNL     1       0.865   7.165  21.220  0.00  0.00    +0.000 OA
ATOM     13  C   UNL     1       1.720   8.397  19.417  0.00  0.00    +0.000 A 
ATOM     14  C   UNL     1       1.002   9.552  19.737  0.00  0.00    +0.000 A 
ATOM     15  C   UNL     1       1.140  10.693  18.944  0.00  0.00    +0.000 A 
ATOM     16  C   UNL     1       1.994  10.645  17.854  0.00  0.00    +0.000 A 
ATOM     17  N   UNL     1       2.693   9.548  17.516  0.00  0.00    +0.000 NA
ATOM     18  C   UNL     1       2.540   8.439  18.294  0.00  0.00    +0.000 A 
ATOM     19  C   UNL     1       3.279   7.232  17.825  0.00  0.00    +0.000 C 
ATOM     20  O   UNL     1       3.867   7.242  16.751  0.00  0.00    +0.000 OA
ENDROOT
BRANCH   1  21
ATOM     21  C   UNL     1       4.780   4.402  17.511  0.00  0.00    +0.000 C 
ATOM     22  O   UNL     1       4.476   3.972  16.408  0.00  0.00    +0.000 OA
BRANCH  21  23
ATOM     23  O   UNL     1       6.050   4.509  17.977  0.00  0.00    +0.000 OA
BRANCH  23  25
ATOM     24  C   UNL     1       7.245   6.457  17.506  0.00  0.00    +0.000 C 
ATOM     25  C   UNL     1       7.031   5.021  17.080  0.00  0.00    +0.000 C 
ENDBRANCH  23  25
ENDBRANCH  21  23
ENDBRANCH   1  21
TORSDOF 3
ENDMDL
MODEL 2
REMARK VINA RESULT:      -6.8      2.230      4.407
REMARK  Name = 
REMARK  4 active torsions:
REMARK  status: ('A' for Active; 'I' for Inactive)
REMARK    1  A    between atoms: C_1  and  C_2
REMARK    2  A    between atoms: C_2  and  O_3
REMARK    3  A    between atoms: O_3  and  C_4
REMARK    4  A    between atoms: C_4  and  C_6
REMARK                            x       y       z     vdW  Elec       q    Type
REMARK                         _______ _______ _______ _____ _____    ______ ____
ROOT
ATOM      1  C   UNL     1       2.431   5.921  19.751  0.00  0.00    +0.000 A 
ATOM      2  C   UNL     1       1.909   7.250  19.682  0.00  0.00    +0.000 A 
ATOM      3  C   UNL     1       2.463   7.880  18.582  0.00  0.00    +0.000 A 
ATOM      4  N   UNL     1       3.336   6.994  17.975  0.00  0.00    +0.000 N 
ATOM      5  C   UNL     1       4.157   7.203  16.859  0.00  0.00    +0.000 A 
ATOM      6  C   UNL     1       4.952   6.222  16.407  0.00  0.00    +0.000 A 
ATOM      7  C   UNL     1       4.908   4.937  17.067  0.00  0.00    +0.000 A 
ATOM      8  C   UNL     1       4.110   4.710  18.129  0.00  0.00    +0.000 A 
ATOM      9 CL   UNL     1       4.042   3.102  18.746  0.00  0.00    +0.000 Cl
ATOM     10  C   UNL     1       3.301   5.771  18.670  0.00  0.00    +0.000 A 
ATOM     11  C   UNL     1       2.156   9.246  18.208  0.00  0.00    +0.000 C 
ATOM     12  O   UNL     1       2.639   9.835  17.253  0.00  0.00    +0.000 OA
ATOM     13  C   UNL     1       1.166   9.949  19.073  0.00  0.00    +0.000 A 
ATOM     14  C   UNL     1       0.793  11.270  18.817  0.00  0.00    +0.000 A 
ATOM     15  C   UNL     1      -0.138  11.900  19.646  0.00  0.00    +0.000 A 
ATOM     16  C   UNL     1      -0.671  11.187  20.708  0.00  0.00    +0.000 A 
ATOM     17  N   UNL     1      -0.328   9.917  20.986  0.00  0.00    +0.000 NA
ATOM     18  C   UNL     1       0.590   9.320  20.173  0.00  0.00    +0.000 A 
ATOM     19  C   UNL     1       0.988   7.940  20.577  0.00  0.00    +0.000 C 
ATOM     20  O   UNL     1       0.591   7.464  21.632  0.00  0.00    +0.000 OA
ENDROOT
BRANCH   1  21
ATOM     21  C   UNL     1       2.071   4.915  20.744  0.00  0.00    +0.000 C 
ATOM     22  O   UNL     1       2.776   4.587  21.688  0.00  0.00    +0.000 OA
BRANCH  21  23
ATOM     23  O   UNL     1       0.890   4.330  20.421  0.00  0.00    +0.000 OA
BRANCH  23  25
ATOM     24  C   UNL     1       0.676   2.639  18.828  0.00  0.00    +0.000 C 
ATOM     25  C   UNL     1       0.877   2.911  20.302  0.00  0.00    +0.000 C 
ENDBRANCH  23  25
ENDBRANCH  21  23
ENDBRANCH   1  21
TORSDOF 3
ENDMDL
MODEL 3
REMARK VINA RESULT:      -6.5      2.058      4.392
REMARK  Name = 
REMARK  4 active torsions:
REMARK  status: ('A' for Active; 'I' for Inactive)
REMARK    1  A    between atoms: C_1  and  C_2
REMARK    2  A    between atoms: C_2  and  O_3
REMARK    3  A    between atoms: O_3  and  C_4
REMARK    4  A    between atoms: C_4  and  C_6
REMARK                            x       y       z     vdW  Elec       q    Type
REMARK                         _______ _______ _______ _____ _____    ______ ____
ROOT
ATOM      1  C   UNL     1       3.841   4.737  18.432  0.00  0.00    +0.000 A 
ATOM      2  C   UNL     1       3.084   5.852  18.911  0.00  0.00    +0.000 A 
ATOM      3  C   UNL     1       3.233   6.897  18.017  0.00  0.00    +0.000 A 
ATOM      4  N   UNL     1       4.082   6.479  17.006  0.00  0.00    +0.000 N 
ATOM      5  C   UNL     1       4.560   7.208  15.909  0.00  0.00    +0.000 A 
ATOM      6  C   UNL     1       5.388   6.637  15.023  0.00  0.00    +0.000 A 
ATOM      7  C   UNL     1       5.738   5.246  15.200  0.00  0.00    +0.000 A 
ATOM      8  C   UNL     1       5.273   4.522  16.237  0.00  0.00    +0.000 A 
ATOM      9 CL   UNL     1       5.650   2.841  16.269  0.00  0.00    +0.000 Cl
ATOM     10  C   UNL     1       4.438   5.137  17.236  0.00  0.00    +0.000 A 
ATOM     11  C   UNL     1       2.602   8.189  18.190  0.00  0.00    +0.000 C 
ATOM     12  O   UNL     1       2.726   9.136  17.429  0.00  0.00    +0.000 OA
ATOM     13  C   UNL     1       1.737   8.333  19.397  0.00  0.00    +0.000 A 
ATOM     14  C   UNL     1       1.079   9.533  19.674  0.00  0.00    +0.000 A 
ATOM     15  C   UNL     1       0.275   9.634  20.812  0.00  0.00    +0.000 A 
ATOM     16  C   UNL     1       0.152   8.529  21.638  0.00  0.00    +0.000 A 
ATOM     17  N   UNL     1       0.778   7.363  21.404  0.00  0.00    +0.000 NA
ATOM     18  C   UNL     1       1.566   7.283  20.294  0.00  0.00    +0.000 A 
ATOM     19  C   UNL     1       2.294   5.992  20.129  0.00  0.00    +0.000 C 
ATOM     20  O   UNL     1       2.256   5.141  21.007  0.00  0.00    +0.000 OA
ENDROOT
BRANCH   1  21
ATOM     21  C   UNL     1       3.919   3.425  19.066  0.00  0.00    +0.000 C 
ATOM     22  O   UNL     1       4.755   3.105  19.898  0.00  0.00    +0.000 OA
BRANCH  21  23
ATOM     23  O   UNL     1       2.995   2.586  18.535  0.00  0.00    +0.000 OA
BRANCH  23  25
ATOM     24  C   UNL     1       0.694   2.634  18.920  0.00  0.00    +0.000 C 
ATOM     25  C   UNL     1       2.005   2.065  19.417  0.00  0.00    +0.000 C 
ENDBRANCH  23  25
ENDBRANCH  21  23
ENDBRANCH   1  21
TORSDOF 3
ENDMDL
MODEL 4
REMARK VINA RESULT:      -6.3      1.974      2.551
REMARK  Name = 
REMARK  4 active torsions:
REMARK  status: ('A' for Active; 'I' for Inactive)
REMARK    1  A    between atoms: C_1  and  C_2
REMARK    2  A    between atoms: C_2  and  O_3
REMARK    3  A    between atoms: O_3  and  C_4
REMARK    4  A    between atoms: C_4  and  C_6
REMARK                            x       y       z     vdW  Elec       q    Type
REMARK                         _______ _______ _______ _____ _____    ______ ____
ROOT
ATOM      1  C   UNL     1       4.080   6.030  17.434  0.00  0.00    +0.000 A 
ATOM      2  C   UNL     1       3.152   6.604  18.359  0.00  0.00    +0.000 A 
ATOM      3  C   UNL     1       2.570   5.581  19.084  0.00  0.00    +0.000 A 
ATOM      4  N   UNL     1       3.084   4.381  18.624  0.00  0.00    +0.000 N 
ATOM      5  C   UNL     1       2.758   3.079  19.024  0.00  0.00    +0.000 A 
ATOM      6  C   UNL     1       3.360   2.023  18.459  0.00  0.00    +0.000 A 
ATOM      7  C   UNL     1       4.382   2.260  17.465  0.00  0.00    +0.000 A 
ATOM      8  C   UNL     1       4.725   3.505  17.080  0.00  0.00    +0.000 A 
ATOM      9 CL   UNL     1       6.048   3.667  15.988  0.00  0.00    +0.000 Cl
ATOM     10  C   UNL     1       4.041   4.649  17.626  0.00  0.00    +0.000 A 
ATOM     11  C   UNL     1       1.575   5.801  20.115  0.00  0.00    +0.000 C 
ATOM     12  O   UNL     1       1.031   4.920  20.762  0.00  0.00    +0.000 OA
ATOM     13  C   UNL     1       1.222   7.225  20.382  0.00  0.00    +0.000 A 
ATOM     14  C   UNL     1       0.273   7.564  21.349  0.00  0.00    +0.000 A 
ATOM     15  C   UNL     1      -0.034   8.908  21.576  0.00  0.00    +0.000 A 
ATOM     16  C   UNL     1       0.621   9.874  20.829  0.00  0.00    +0.000 A 
ATOM     17  N   UNL     1       1.533   9.581  19.886  0.00  0.00    +0.000 NA
ATOM     18  C   UNL     1       1.814   8.264  19.670  0.00  0.00    +0.000 A 
ATOM     19  C   UNL     1       2.775   7.998  18.561  0.00  0.00    +0.000 C 
ATOM     20  O   UNL     1       3.164   8.911  17.844  0.00  0.00    +0.000 OA
ENDROOT
BRANCH   1  21
ATOM     21  C   UNL     1       4.930   6.772  16.509  0.00  0.00    +0.000 C 
ATOM     22  O   UNL     1       4.773   6.806  15.297  0.00  0.00    +0.000 OA
BRANCH  21  23
ATOM     23  O   UNL     1       5.969   7.340  17.170  0.00  0.00    +0.000 OA
BRANCH  23  25
ATOM     24  C   UNL     1       7.602   6.298  18.471  0.00  0.00    +0.000 C 
ATOM     25  C   UNL     1       7.238   6.702  17.060  0.00  0.00    +0.000 C 
ENDBRANCH  23  25
ENDBRANCH  21  23
ENDBRANCH   1  21
TORSDOF 3
ENDMDL
MODEL 5
REMARK VINA RESULT:      -6.2      6.391      9.367
REMARK  Name = 
REMARK  4 active torsions:
REMARK  status: ('A' for Active; 'I' for Inactive)
REMARK    1  A    between atoms: C_1  and  C_2
REMARK    2  A    between atoms: C_2  and  O_3
REMARK    3  A    between atoms: O_3  and  C_4
REMARK    4  A    between atoms: C_4  and  C_6
REMARK                            x       y       z     vdW  Elec       q    Type
REMARK                         _______ _______ _______ _____ _____    ______ ____
ROOT
ATOM      1  C   UNL     1      -1.526  11.702  19.734  0.00  0.00    +0.000 A 
ATOM      2  C   UNL     1      -1.906  12.532  20.835  0.00  0.00    +0.000 A 
ATOM      3  C   UNL     1      -3.242  12.860  20.693  0.00  0.00    +0.000 A 
ATOM      4  N   UNL     1      -3.704  12.283  19.523  0.00  0.00    +0.000 N 
ATOM      5  C   UNL     1      -4.977  12.378  18.945  0.00  0.00    +0.000 A 
ATOM      6  C   UNL     1      -5.247  11.750  17.792  0.00  0.00    +0.000 A 
ATOM      7  C   UNL     1      -4.215  10.938  17.187  0.00  0.00    +0.000 A 
ATOM      8  C   UNL     1      -2.992  10.818  17.738  0.00  0.00    +0.000 A 
ATOM      9 CL   UNL     1      -1.889   9.718  17.000  0.00  0.00    +0.000 Cl
ATOM     10  C   UNL     1      -2.661  11.540  18.939  0.00  0.00    +0.000 A 
ATOM     11  C   UNL     1      -3.961  13.695  21.634  0.00  0.00    +0.000 C 
ATOM     12  O   UNL     1      -5.135  14.016  21.530  0.00  0.00    +0.000 OA
ATOM     13  C   UNL     1      -3.177  14.173  22.810  0.00  0.00    +0.000 A 
ATOM     14  C   UNL     1      -3.759  14.988  23.783  0.00  0.00    +0.000 A 
ATOM     15  C   UNL     1      -2.997  15.417  24.872  0.00  0.00    +0.000 A 
ATOM     16  C   UNL     1      -1.675  15.015  24.956  0.00  0.00    +0.000 A 
ATOM     17  N   UNL     1      -1.082  14.238  24.034  0.00  0.00    +0.000 NA
ATOM     18  C   UNL     1      -1.837  13.835  22.971  0.00  0.00    +0.000 A 
ATOM     19  C   UNL     1      -1.105  13.040  21.943  0.00  0.00    +0.000 C 
ATOM     20  O   UNL     1       0.107  12.888  22.022  0.00  0.00    +0.000 OA
ENDROOT
BRANCH   1  21
ATOM     21  C   UNL     1      -0.208  11.110  19.529  0.00  0.00    +0.000 C 
ATOM     22  O   UNL     1       0.709  11.649  18.926  0.00  0.00    +0.000 OA
BRANCH  21  23
ATOM     23  O   UNL     1      -0.175   9.845  20.017  0.00  0.00    +0.000 OA
BRANCH  23  25
ATOM     24  C   UNL     1      -0.194   9.280  22.281  0.00  0.00    +0.000 C 
ATOM     25  C   UNL     1       0.707   9.591  21.106  0.00  0.00    +0.000 C 
ENDBRANCH  23  25
ENDBRANCH  21  23
ENDBRANCH   1  21
TORSDOF 3
ENDMDL
MODEL 6
REMARK VINA RESULT:      -6.1      1.618      2.066
REMARK  Name = 
REMARK  4 active torsions:
REMARK  status: ('A' for Active; 'I' for Inactive)
REMARK    1  A    between atoms: C_1  and  C_2
REMARK    2  A    between atoms: C_2  and  O_3
REMARK    3  A    between atoms: O_3  and  C_4
REMARK    4  A    between atoms: C_4  and  C_6
REMARK                            x       y       z     vdW  Elec       q    Type
REMARK                         _______ _______ _______ _____ _____    ______ ____
ROOT
ATOM      1  C   UNL     1       4.080   6.457  17.726  0.00  0.00    +0.000 A 
ATOM      2  C   UNL     1       3.104   7.265  18.388  0.00  0.00    +0.000 A 
ATOM      3  C   UNL     1       2.587   6.544  19.450  0.00  0.00    +0.000 A 
ATOM      4  N   UNL     1       3.192   5.298  19.457  0.00  0.00    +0.000 N 
ATOM      5  C   UNL     1       2.954   4.217  20.316  0.00  0.00    +0.000 A 
ATOM      6  C   UNL     1       3.637   3.072  20.171  0.00  0.00    +0.000 A 
ATOM      7  C   UNL     1       4.650   2.997  19.143  0.00  0.00    +0.000 A 
ATOM      8  C   UNL     1       4.908   4.032  18.320  0.00  0.00    +0.000 A 
ATOM      9 CL   UNL     1       6.229   3.871  17.225  0.00  0.00    +0.000 Cl
ATOM     10  C   UNL     1       4.138   5.245  18.416  0.00  0.00    +0.000 A 
ATOM     11  C   UNL     1       1.568   7.059  20.341  0.00  0.00    +0.000 C 
ATOM     12  O   UNL     1       1.081   6.443  21.276  0.00  0.00    +0.000 OA
ATOM     13  C   UNL     1       1.111   8.453  20.069  0.00  0.00    +0.000 A 
ATOM     14  C   UNL     1       0.130   9.057  20.857  0.00  0.00    +0.000 A 
ATOM     15  C   UNL     1      -0.275  10.364  20.576  0.00  0.00    +0.000 A 
ATOM     16  C   UNL     1       0.317  11.029  19.515  0.00  0.00    +0.000 A 
ATOM     17  N   UNL     1       1.259  10.473  18.733  0.00  0.00    +0.000 NA
ATOM     18  C   UNL     1       1.636   9.193  19.014  0.00  0.00    +0.000 A 
ATOM     19  C   UNL     1       2.626   8.605  18.066  0.00  0.00    +0.000 C 
ATOM     20  O   UNL     1       2.956   9.212  17.057  0.00  0.00    +0.000 OA
ENDROOT
BRANCH   1  21
ATOM     21  C   UNL     1       4.886   6.862  16.579  0.00  0.00    +0.000 C 
ATOM     22  O   UNL     1       4.753   6.420  15.447  0.00  0.00    +0.000 OA
BRANCH  21  23
ATOM     23  O   UNL     1       5.860   7.724  16.963  0.00  0.00    +0.000 OA
BRANCH  23  25
ATOM     24  C   UNL     1       7.958   8.338  17.779  0.00  0.00    +0.000 C 
ATOM     25  C   UNL     1       7.117   7.163  17.332  0.00  0.00    +0.000 C 
ENDBRANCH  23  25
ENDBRANCH  21  23
ENDBRANCH   1  21
TORSDOF 3
ENDMDL
MODEL 7
REMARK VINA RESULT:      -6.1      6.528      9.120
REMARK  Name = 
REMARK  4 active torsions:
REMARK  status: ('A' for Active; 'I' for Inactive)
REMARK    1  A    between atoms: C_1  and  C_2
REMARK    2  A    between atoms: C_2  and  O_3
REMARK    3  A    between atoms: O_3  and  C_4
REMARK    4  A    between atoms: C_4  and  C_6
REMARK                            x       y       z     vdW  Elec       q    Type
REMARK                         _______ _______ _______ _____ _____    ______ ____
ROOT
ATOM      1  C   UNL     1      -0.703  11.927  20.193  0.00  0.00    +0.000 A 
ATOM      2  C   UNL     1      -1.715  12.685  20.860  0.00  0.00    +0.000 A 
ATOM      3  C   UNL     1      -2.914  12.491  20.197  0.00  0.00    +0.000 A 
ATOM      4  N   UNL     1      -2.678  11.656  19.119  0.00  0.00    +0.000 N 
ATOM      5  C   UNL     1      -3.579  11.219  18.138  0.00  0.00    +0.000 A 
ATOM      6  C   UNL     1      -3.169  10.407  17.153  0.00  0.00    +0.000 A 
ATOM      7  C   UNL     1      -1.795   9.958  17.153  0.00  0.00    +0.000 A 
ATOM      8  C   UNL     1      -0.919  10.350  18.099  0.00  0.00    +0.000 A 
ATOM      9 CL   UNL     1       0.653   9.643  18.072  0.00  0.00    +0.000 Cl
ATOM     10  C   UNL     1      -1.323  11.276  19.125  0.00  0.00    +0.000 A 
ATOM     11  C   UNL     1      -4.158  13.113  20.603  0.00  0.00    +0.000 C 
ATOM     12  O   UNL     1      -5.228  12.976  20.031  0.00  0.00    +0.000 OA
ATOM     13  C   UNL     1      -4.087  13.973  21.820  0.00  0.00    +0.000 A 
ATOM     14  C   UNL     1      -5.219  14.631  22.306  0.00  0.00    +0.000 A 
ATOM     15  C   UNL     1      -5.119  15.428  23.448  0.00  0.00    +0.000 A 
ATOM     16  C   UNL     1      -3.888  15.542  24.073  0.00  0.00    +0.000 A 
ATOM     17  N   UNL     1      -2.778  14.929  23.626  0.00  0.00    +0.000 NA
ATOM     18  C   UNL     1      -2.890  14.162  22.504  0.00  0.00    +0.000 A 
ATOM     19  C   UNL     1      -1.612  13.571  22.014  0.00  0.00    +0.000 C 
ATOM     20  O   UNL     1      -0.547  13.875  22.534  0.00  0.00    +0.000 OA
ENDROOT
BRANCH   1  21
ATOM     21  C   UNL     1       0.695  11.829  20.598  0.00  0.00    +0.000 C 
ATOM     22  O   UNL     1       1.639  12.241  19.941  0.00  0.00    +0.000 OA
BRANCH  21  23
ATOM     23  O   UNL     1       0.805  11.135  21.759  0.00  0.00    +0.000 OA
BRANCH  23  25
ATOM     24  C   UNL     1      -0.318   9.420  22.874  0.00  0.00    +0.000 C 
ATOM     25  C   UNL     1       0.585   9.729  21.700  0.00  0.00    +0.000 C 
ENDBRANCH  23  25
ENDBRANCH  21  23
ENDBRANCH   1  21
TORSDOF 3
ENDMDL
MODEL 8
REMARK VINA RESULT:      -6.1      7.373      9.812
REMARK  Name = 
REMARK  4 active torsions:
REMARK  status: ('A' for Active; 'I' for Inactive)
REMARK    1  A    between atoms: C_1  and  C_2
REMARK    2  A    between atoms: C_2  and  O_3
REMARK    3  A    between atoms: O_3  and  C_4
REMARK    4  A    between atoms: C_4  and  C_6
REMARK                            x       y       z     vdW  Elec       q    Type
REMARK                         _______ _______ _______ _____ _____    ______ ____
ROOT
ATOM      1  C   UNL     1      -1.699  12.756  21.319  0.00  0.00    +0.000 A 
ATOM      2  C   UNL     1      -2.276  12.298  20.093  0.00  0.00    +0.000 A 
ATOM      3  C   UNL     1      -3.631  12.576  20.118  0.00  0.00    +0.000 A 
ATOM      4  N   UNL     1      -3.925  13.170  21.333  0.00  0.00    +0.000 N 
ATOM      5  C   UNL     1      -5.171  13.582  21.826  0.00  0.00    +0.000 A 
ATOM      6  C   UNL     1      -5.270  14.140  23.041  0.00  0.00    +0.000 A 
ATOM      7  C   UNL     1      -4.062  14.348  23.807  0.00  0.00    +0.000 A 
ATOM      8  C   UNL     1      -2.852  13.978  23.342  0.00  0.00    +0.000 A 
ATOM      9 CL   UNL     1      -1.473  14.399  24.285  0.00  0.00    +0.000 Cl
ATOM     10  C   UNL     1      -2.734  13.315  22.070  0.00  0.00    +0.000 A 
ATOM     11  C   UNL     1      -4.532  12.245  19.033  0.00  0.00    +0.000 C 
ATOM     12  O   UNL     1      -5.734  12.462  19.030  0.00  0.00    +0.000 OA
ATOM     13  C   UNL     1      -3.905  11.599  17.843  0.00  0.00    +0.000 A 
ATOM     14  C   UNL     1      -4.671  11.229  16.735  0.00  0.00    +0.000 A 
ATOM     15  C   UNL     1      -4.053  10.627  15.637  0.00  0.00    +0.000 A 
ATOM     16  C   UNL     1      -2.685  10.415  15.679  0.00  0.00    +0.000 A 
ATOM     17  N   UNL     1      -1.921  10.752  16.732  0.00  0.00    +0.000 NA
ATOM     18  C   UNL     1      -2.541  11.330  17.800  0.00  0.00    +0.000 A 
ATOM     19  C   UNL     1      -1.655  11.611  18.967  0.00  0.00    +0.000 C 
ATOM     20  O   UNL     1      -0.494  11.224  18.973  0.00  0.00    +0.000 OA
ENDROOT
BRANCH   1  21
ATOM     21  C   UNL     1      -0.286  12.686  21.674  0.00  0.00    +0.000 C 
ATOM     22  O   UNL     1       0.599  13.336  21.137  0.00  0.00    +0.000 OA
BRANCH  21  23
ATOM     23  O   UNL     1      -0.080  11.731  22.616  0.00  0.00    +0.000 OA
BRANCH  23  25
ATOM     24  C   UNL     1      -0.434   9.500  23.200  0.00  0.00    +0.000 C 
ATOM     25  C   UNL     1       0.179  10.408  22.157  0.00  0.00    +0.000 C 
ENDBRANCH  23  25
ENDBRANCH  21  23
ENDBRANCH   1  21
TORSDOF 3
ENDMDL
MODEL 9
REMARK VINA RESULT:      -6.0      7.413     10.156
REMARK  Name = 
REMARK  4 active torsions:
REMARK  status: ('A' for Active; 'I' for Inactive)
REMARK    1  A    between atoms: C_1  and  C_2
REMARK    2  A    between atoms: C_2  and  O_3
REMARK    3  A    between atoms: O_3  and  C_4
REMARK    4  A    between atoms: C_4  and  C_6
REMARK                            x       y       z     vdW  Elec       q    Type
REMARK                         _______ _______ _______ _____ _____    ______ ____
ROOT
ATOM      1  C   UNL     1      -2.295  12.067  19.791  0.00  0.00    +0.000 A 
ATOM      2  C   UNL     1      -3.554  12.633  20.167  0.00  0.00    +0.000 A 
ATOM      3  C   UNL     1      -4.488  12.300  19.202  0.00  0.00    +0.000 A 
ATOM      4  N   UNL     1      -3.847  11.565  18.220  0.00  0.00    +0.000 N 
ATOM      5  C   UNL     1      -4.375  11.052  17.028  0.00  0.00    +0.000 A 
ATOM      6  C   UNL     1      -3.597  10.361  16.182  0.00  0.00    +0.000 A 
ATOM      7  C   UNL     1      -2.220  10.119  16.550  0.00  0.00    +0.000 A 
ATOM      8  C   UNL     1      -1.699  10.586  17.701  0.00  0.00    +0.000 A 
ATOM      9 CL   UNL     1      -0.086  10.121  18.093  0.00  0.00    +0.000 Cl
ATOM     10  C   UNL     1      -2.500  11.389  18.589  0.00  0.00    +0.000 A 
ATOM     11  C   UNL     1      -5.876  12.711  19.262  0.00  0.00    +0.000 C 
ATOM     12  O   UNL     1      -6.720  12.447  18.421  0.00  0.00    +0.000 OA
ATOM     13  C   UNL     1      -6.265  13.508  20.462  0.00  0.00    +0.000 A 
ATOM     14  C   UNL     1      -7.574  13.965  20.630  0.00  0.00    +0.000 A 
ATOM     15  C   UNL     1      -7.907  14.708  21.765  0.00  0.00    +0.000 A 
ATOM     16  C   UNL     1      -6.919  14.970  22.700  0.00  0.00    +0.000 A 
ATOM     17  N   UNL     1      -5.649  14.551  22.565  0.00  0.00    +0.000 NA
ATOM     18  C   UNL     1      -5.338  13.834  21.446  0.00  0.00    +0.000 A 
ATOM     19  C   UNL     1      -3.899  13.464  21.314  0.00  0.00    +0.000 C 
ATOM     20  O   UNL     1      -3.072  13.894  22.107  0.00  0.00    +0.000 OA
ENDROOT
BRANCH   1  21
ATOM     21  C   UNL     1      -1.058  12.156  20.559  0.00  0.00    +0.000 C 
ATOM     22  O   UNL     1      -0.280  13.098  20.517  0.00  0.00    +0.000 OA
BRANCH  21  23
ATOM     23  O   UNL     1      -0.846  11.008  21.250  0.00  0.00    +0.000 OA
BRANCH  23  25
ATOM     24  C   UNL     1      -0.484   9.730  23.169  0.00  0.00    +0.000 C 
ATOM     25  C   UNL     1      -0.984  11.067  22.667  0.00  0.00    +0.000 C 
ENDBRANCH  23  25
ENDBRANCH  21  23
ENDBRANCH   1  21
TORSDOF 3
ENDMDL
