MODEL 1
REMARK VINA RESULT:      -6.6      0.000      0.000
REMARK  Name = 
REMARK  11 active torsions:
REMARK  status: ('A' for Active; 'I' for Inactive)
REMARK    1  A    between atoms: C_1  and  C_2
REMARK    2  A    between atoms: C_2  and  C_3
REMARK    3  A    between atoms: C_3  and  C_4
REMARK    4  A    between atoms: C_4  and  C_5
REMARK    5  A    between atoms: C_5  and  C_6
REMARK    6  A    between atoms: C_6  and  C_7
REMARK    7  A    between atoms: C_7  and  C_8
REMARK    8  A    between atoms: C_8  and  C_9
REMARK    9  A    between atoms: C_9  and  C_10
REMARK   10  A    between atoms: C_10  and  N_11
REMARK   11  A    between atoms: N_14  and  C_15
REMARK                            x       y       z     vdW  Elec       q    Type
REMARK                         _______ _______ _______ _____ _____    ______ ____
ROOT
ATOM      1  C   UNL     1       5.397   6.010  15.876  0.00  0.00    +0.000 C 
ENDROOT
BRANCH   1   2
ATOM      2  N   UNL     1       4.967   5.393  17.118  0.00  0.00    +0.000 N 
ATOM      3  C   UNL     1       5.765   5.130  18.214  0.00  0.00    +0.000 A 
ATOM      4  C   UNL     1       4.944   4.607  19.172  0.00  0.00    +0.000 A 
ATOM      5  N   UNL     1       3.667   4.544  18.623  0.00  0.00    +0.000 N 
ATOM      6  C   UNL     1       3.705   5.029  17.376  0.00  0.00    +0.000 A 
BRANCH   5   7
ATOM      7  C   UNL     1       2.466   4.052  19.300  0.00  0.00    +0.000 C 
ATOM      8  C   UNL     1       2.427   2.532  19.386  0.00  0.00    +0.000 C 
ATOM      9  C   UNL     1       1.434   2.255  20.504  0.00  0.00    +0.000 C 
ATOM     10  C   UNL     1       1.525   3.448  21.453  0.00  0.00    +0.000 C 
ATOM     11  C   UNL     1       2.384   4.498  20.756  0.00  0.00    +0.000 C 
ENDBRANCH   5   7
ENDBRANCH   1   2
BRANCH   1  12
ATOM     12  C   UNL     1       6.605   5.270  15.311  0.00  0.00    +0.000 C 
BRANCH  12  13
ATOM     13  C   UNL     1       6.193   4.059  14.486  0.00  0.00    +0.000 C 
BRANCH  13  14
ATOM     14  C   UNL     1       6.740   4.153  13.068  0.00  0.00    +0.000 C 
BRANCH  14  15
ATOM     15  C   UNL     1       6.075   3.155  12.138  0.00  0.00    +0.000 C 
BRANCH  15  16
ATOM     16  C   UNL     1       4.721   3.710  11.714  0.00  0.00    +0.000 C 
BRANCH  16  17
ATOM     17  C   UNL     1       3.833   2.621  11.134  0.00  0.00    +0.000 C 
BRANCH  17  18
ATOM     18  C   UNL     1       2.721   3.263  10.314  0.00  0.00    +0.000 C 
BRANCH  18  20
ATOM     19  C   UNL     1       2.096   5.162   8.818  0.00  0.00    +0.000 C 
ATOM     20  C   UNL     1       3.248   4.408   9.460  0.00  0.00    +0.000 C 
ENDBRANCH  18  20
ENDBRANCH  17  18
ENDBRANCH  16  17
ENDBRANCH  15  16
ENDBRANCH  14  15
ENDBRANCH  13  14
ENDBRANCH  12  13
ENDBRANCH   1  12
TORSDOF 10
ENDMDL
MODEL 2
REMARK VINA RESULT:      -6.4      3.899      7.224
REMARK  Name = 
REMARK  11 active torsions:
REMARK  status: ('A' for Active; 'I' for Inactive)
REMARK    1  A    between atoms: C_1  and  C_2
REMARK    2  A    between atoms: C_2  and  C_3
REMARK    3  A    between atoms: C_3  and  C_4
REMARK    4  A    between atoms: C_4  and  C_5
REMARK    5  A    between atoms: C_5  and  C_6
REMARK    6  A    between atoms: C_6  and  C_7
REMARK    7  A    between atoms: C_7  and  C_8
REMARK    8  A    between atoms: C_8  and  C_9
REMARK    9  A    between atoms: C_9  and  C_10
REMARK   10  A    between atoms: C_10  and  N_11
REMARK   11  A    between atoms: N_14  and  C_15
REMARK                            x       y       z     vdW  Elec       q    Type
REMARK                         _______ _______ _______ _____ _____    ______ ____
ROOT
ATOM      1  C   UNL     1       2.595   1.915  19.166  0.00  0.00    +0.000 C 
ENDROOT
BRANCH   1   2
ATOM      2  N   UNL     1       3.293   2.869  18.321  0.00  0.00    +0.000 N 
ATOM      3  C   UNL     1       2.764   3.524  17.227  0.00  0.00    +0.000 A 
ATOM      4  C   UNL     1       3.742   4.363  16.772  0.00  0.00    +0.000 A 
ATOM      5  N   UNL     1       4.850   4.179  17.592  0.00  0.00    +0.000 N 
ATOM      6  C   UNL     1       4.554   3.267  18.527  0.00  0.00    +0.000 A 
BRANCH   5   7
ATOM      7  C   UNL     1       6.131   4.880  17.475  0.00  0.00    +0.000 C 
ATOM      8  C   UNL     1       5.967   6.318  17.002  0.00  0.00    +0.000 C 
ATOM      9  C   UNL     1       7.267   6.989  17.417  0.00  0.00    +0.000 C 
ATOM     10  C   UNL     1       7.745   6.247  18.662  0.00  0.00    +0.000 C 
ATOM     11  C   UNL     1       6.852   5.019  18.812  0.00  0.00    +0.000 C 
ENDBRANCH   5   7
ENDBRANCH   1   2
BRANCH   1  12
ATOM     12  C   UNL     1       1.495   2.618  19.955  0.00  0.00    +0.000 C 
BRANCH  12  13
ATOM     13  C   UNL     1       1.935   2.940  21.376  0.00  0.00    +0.000 C 
BRANCH  13  14
ATOM     14  C   UNL     1       2.372   4.394  21.496  0.00  0.00    +0.000 C 
BRANCH  14  15
ATOM     15  C   UNL     1       1.679   5.279  20.477  0.00  0.00    +0.000 C 
BRANCH  15  16
ATOM     16  C   UNL     1       2.721   6.175  19.820  0.00  0.00    +0.000 C 
BRANCH  16  17
ATOM     17  C   UNL     1       2.161   7.559  19.533  0.00  0.00    +0.000 C 
BRANCH  17  18
ATOM     18  C   UNL     1       2.418   7.913  18.074  0.00  0.00    +0.000 C 
BRANCH  18  20
ATOM     19  C   UNL     1       0.878   9.781  18.686  0.00  0.00    +0.000 C 
ATOM     20  C   UNL     1       2.008   9.347  17.768  0.00  0.00    +0.000 C 
ENDBRANCH  18  20
ENDBRANCH  17  18
ENDBRANCH  16  17
ENDBRANCH  15  16
ENDBRANCH  14  15
ENDBRANCH  13  14
ENDBRANCH  12  13
ENDBRANCH   1  12
TORSDOF 10
ENDMDL
MODEL 3
REMARK VINA RESULT:      -6.3      1.063      1.558
REMARK  Name = 
REMARK  11 active torsions:
REMARK  status: ('A' for Active; 'I' for Inactive)
REMARK    1  A    between atoms: C_1  and  C_2
REMARK    2  A    between atoms: C_2  and  C_3
REMARK    3  A    between atoms: C_3  and  C_4
REMARK    4  A    between atoms: C_4  and  C_5
REMARK    5  A    between atoms: C_5  and  C_6
REMARK    6  A    between atoms: C_6  and  C_7
REMARK    7  A    between atoms: C_7  and  C_8
REMARK    8  A    between atoms: C_8  and  C_9
REMARK    9  A    between atoms: C_9  and  C_10
REMARK   10  A    between atoms: C_10  and  N_11
REMARK   11  A    between atoms: N_14  and  C_15
REMARK                            x       y       z     vdW  Elec       q    Type
REMARK                         _______ _______ _______ _____ _____    ______ ____
ROOT
ATOM      1  C   UNL     1       5.707   6.739  16.791  0.00  0.00    +0.000 C 
ENDROOT
BRANCH   1   2
ATOM      2  N   UNL     1       4.433   6.523  17.455  0.00  0.00    +0.000 N 
ATOM      3  C   UNL     1       3.536   7.503  17.831  0.00  0.00    +0.000 A 
ATOM      4  C   UNL     1       2.457   6.855  18.362  0.00  0.00    +0.000 A 
ATOM      5  N   UNL     1       2.737   5.493  18.312  0.00  0.00    +0.000 N 
ATOM      6  C   UNL     1       3.941   5.315  17.756  0.00  0.00    +0.000 A 
BRANCH   5   7
ATOM      7  C   UNL     1       1.854   4.418  18.770  0.00  0.00    +0.000 C 
ATOM      8  C   UNL     1       2.511   3.048  18.686  0.00  0.00    +0.000 C 
ATOM      9  C   UNL     1       1.685   2.188  19.630  0.00  0.00    +0.000 C 
ATOM     10  C   UNL     1       1.154   3.133  20.705  0.00  0.00    +0.000 C 
ATOM     11  C   UNL     1       1.480   4.550  20.243  0.00  0.00    +0.000 C 
ENDBRANCH   5   7
ENDBRANCH   1   2
BRANCH   1  12
ATOM     12  C   UNL     1       5.701   6.081  15.415  0.00  0.00    +0.000 C 
BRANCH  12  13
ATOM     13  C   UNL     1       6.739   4.971  15.314  0.00  0.00    +0.000 C 
BRANCH  13  14
ATOM     14  C   UNL     1       6.230   3.825  14.451  0.00  0.00    +0.000 C 
BRANCH  14  15
ATOM     15  C   UNL     1       6.569   4.025  12.986  0.00  0.00    +0.000 C 
BRANCH  15  16
ATOM     16  C   UNL     1       5.758   3.039  12.157  0.00  0.00    +0.000 C 
BRANCH  16  17
ATOM     17  C   UNL     1       4.550   3.710  11.522  0.00  0.00    +0.000 C 
BRANCH  17  18
ATOM     18  C   UNL     1       3.618   2.643  10.963  0.00  0.00    +0.000 C 
BRANCH  18  20
ATOM     19  C   UNL     1       3.077   4.528   9.417  0.00  0.00    +0.000 C 
ATOM     20  C   UNL     1       2.558   3.250  10.053  0.00  0.00    +0.000 C 
ENDBRANCH  18  20
ENDBRANCH  17  18
ENDBRANCH  16  17
ENDBRANCH  15  16
ENDBRANCH  14  15
ENDBRANCH  13  14
ENDBRANCH  12  13
ENDBRANCH   1  12
TORSDOF 10
ENDMDL
MODEL 4
REMARK VINA RESULT:      -6.3      0.848      1.175
REMARK  Name = 
REMARK  11 active torsions:
REMARK  status: ('A' for Active; 'I' for Inactive)
REMARK    1  A    between atoms: C_1  and  C_2
REMARK    2  A    between atoms: C_2  and  C_3
REMARK    3  A    between atoms: C_3  and  C_4
REMARK    4  A    between atoms: C_4  and  C_5
REMARK    5  A    between atoms: C_5  and  C_6
REMARK    6  A    between atoms: C_6  and  C_7
REMARK    7  A    between atoms: C_7  and  C_8
REMARK    8  A    between atoms: C_8  and  C_9
REMARK    9  A    between atoms: C_9  and  C_10
REMARK   10  A    between atoms: C_10  and  N_11
REMARK   11  A    between atoms: N_14  and  C_15
REMARK                            x       y       z     vdW  Elec       q    Type
REMARK                         _______ _______ _______ _____ _____    ______ ____
ROOT
ATOM      1  C   UNL     1       5.307   6.770  16.343  0.00  0.00    +0.000 C 
ENDROOT
BRANCH   1   2
ATOM      2  N   UNL     1       5.117   6.012  17.567  0.00  0.00    +0.000 N 
ATOM      3  C   UNL     1       6.106   5.653  18.462  0.00  0.00    +0.000 A 
ATOM      4  C   UNL     1       5.478   5.009  19.490  0.00  0.00    +0.000 A 
ATOM      5  N   UNL     1       4.122   4.974  19.182  0.00  0.00    +0.000 N 
ATOM      6  C   UNL     1       3.927   5.591  18.010  0.00  0.00    +0.000 A 
BRANCH   5   7
ATOM      7  C   UNL     1       3.069   4.382  20.009  0.00  0.00    +0.000 C 
ATOM      8  C   UNL     1       1.676   4.643  19.453  0.00  0.00    +0.000 C 
ATOM      9  C   UNL     1       0.813   3.580  20.115  0.00  0.00    +0.000 C 
ATOM     10  C   UNL     1       1.734   2.389  20.369  0.00  0.00    +0.000 C 
ATOM     11  C   UNL     1       3.153   2.860  20.071  0.00  0.00    +0.000 C 
ENDBRANCH   5   7
ENDBRANCH   1   2
BRANCH   1  12
ATOM     12  C   UNL     1       5.349   5.829  15.143  0.00  0.00    +0.000 C 
BRANCH  12  13
ATOM     13  C   UNL     1       6.624   4.997  15.120  0.00  0.00    +0.000 C 
BRANCH  13  14
ATOM     14  C   UNL     1       6.525   3.875  14.097  0.00  0.00    +0.000 C 
BRANCH  14  15
ATOM     15  C   UNL     1       5.155   3.819  13.448  0.00  0.00    +0.000 C 
BRANCH  15  16
ATOM     16  C   UNL     1       5.331   3.797  11.936  0.00  0.00    +0.000 C 
BRANCH  16  17
ATOM     17  C   UNL     1       4.505   2.691  11.297  0.00  0.00    +0.000 C 
BRANCH  17  18
ATOM     18  C   UNL     1       3.186   3.269  10.803  0.00  0.00    +0.000 C 
BRANCH  18  20
ATOM     19  C   UNL     1       2.201   4.921   9.209  0.00  0.00    +0.000 C 
ATOM     20  C   UNL     1       3.349   3.957   9.454  0.00  0.00    +0.000 C 
ENDBRANCH  18  20
ENDBRANCH  17  18
ENDBRANCH  16  17
ENDBRANCH  15  16
ENDBRANCH  14  15
ENDBRANCH  13  14
ENDBRANCH  12  13
ENDBRANCH   1  12
TORSDOF 10
ENDMDL
MODEL 5
REMARK VINA RESULT:      -6.3      4.749      7.817
REMARK  Name = 
REMARK  11 active torsions:
REMARK  status: ('A' for Active; 'I' for Inactive)
REMARK    1  A    between atoms: C_1  and  C_2
REMARK    2  A    between atoms: C_2  and  C_3
REMARK    3  A    between atoms: C_3  and  C_4
REMARK    4  A    between atoms: C_4  and  C_5
REMARK    5  A    between atoms: C_5  and  C_6
REMARK    6  A    between atoms: C_6  and  C_7
REMARK    7  A    between atoms: C_7  and  C_8
REMARK    8  A    between atoms: C_8  and  C_9
REMARK    9  A    between atoms: C_9  and  C_10
REMARK   10  A    between atoms: C_10  and  N_11
REMARK   11  A    between atoms: N_14  and  C_15
REMARK                            x       y       z     vdW  Elec       q    Type
REMARK                         _______ _______ _______ _____ _____    ______ ____
ROOT
ATOM      1  C   UNL     1       7.491   4.739  17.720  0.00  0.00    +0.000 C 
ENDROOT
BRANCH   1   2
ATOM      2  N   UNL     1       6.083   4.391  17.649  0.00  0.00    +0.000 N 
ATOM      3  C   UNL     1       5.365   4.139  16.496  0.00  0.00    +0.000 A 
ATOM      4  C   UNL     1       4.105   3.794  16.895  0.00  0.00    +0.000 A 
ATOM      5  N   UNL     1       4.084   3.865  18.285  0.00  0.00    +0.000 N 
ATOM      6  C   UNL     1       5.297   4.228  18.720  0.00  0.00    +0.000 A 
BRANCH   5   7
ATOM      7  C   UNL     1       2.934   3.571  19.142  0.00  0.00    +0.000 C 
ATOM      8  C   UNL     1       3.286   2.632  20.288  0.00  0.00    +0.000 C 
ATOM      9  C   UNL     1       2.167   2.850  21.295  0.00  0.00    +0.000 C 
ATOM     10  C   UNL     1       1.704   4.292  21.105  0.00  0.00    +0.000 C 
ATOM     11  C   UNL     1       2.390   4.810  19.845  0.00  0.00    +0.000 C 
ENDBRANCH   5   7
ENDBRANCH   1   2
BRANCH   1  12
ATOM     12  C   UNL     1       7.691   5.933  18.648  0.00  0.00    +0.000 C 
BRANCH  12  13
ATOM     13  C   UNL     1       7.699   7.249  17.884  0.00  0.00    +0.000 C 
BRANCH  13  14
ATOM     14  C   UNL     1       8.463   8.321  18.650  0.00  0.00    +0.000 C 
BRANCH  14  15
ATOM     15  C   UNL     1       8.433   9.658  17.934  0.00  0.00    +0.000 C 
BRANCH  15  16
ATOM     16  C   UNL     1       9.278  10.652  18.720  0.00  0.00    +0.000 C 
BRANCH  16  17
ATOM     17  C   UNL     1      10.350  11.283  17.846  0.00  0.00    +0.000 C 
BRANCH  17  18
ATOM     18  C   UNL     1      11.442  11.867  18.732  0.00  0.00    +0.000 C 
BRANCH  18  20
ATOM     19  C   UNL     1      10.851  13.557  20.472  0.00  0.00    +0.000 C 
ATOM     20  C   UNL     1      11.204  13.345  19.010  0.00  0.00    +0.000 C 
ENDBRANCH  18  20
ENDBRANCH  17  18
ENDBRANCH  16  17
ENDBRANCH  15  16
ENDBRANCH  14  15
ENDBRANCH  13  14
ENDBRANCH  12  13
ENDBRANCH   1  12
TORSDOF 10
ENDMDL
MODEL 6
REMARK VINA RESULT:      -6.2      5.093      7.807
REMARK  Name = 
REMARK  11 active torsions:
REMARK  status: ('A' for Active; 'I' for Inactive)
REMARK    1  A    between atoms: C_1  and  C_2
REMARK    2  A    between atoms: C_2  and  C_3
REMARK    3  A    between atoms: C_3  and  C_4
REMARK    4  A    between atoms: C_4  and  C_5
REMARK    5  A    between atoms: C_5  and  C_6
REMARK    6  A    between atoms: C_6  and  C_7
REMARK    7  A    between atoms: C_7  and  C_8
REMARK    8  A    between atoms: C_8  and  C_9
REMARK    9  A    between atoms: C_9  and  C_10
REMARK   10  A    between atoms: C_10  and  N_11
REMARK   11  A    between atoms: N_14  and  C_15
REMARK                            x       y       z     vdW  Elec       q    Type
REMARK                         _______ _______ _______ _____ _____    ______ ____
ROOT
ATOM      1  C   UNL     1       7.152   5.477  18.301  0.00  0.00    +0.000 C 
ENDROOT
BRANCH   1   2
ATOM      2  N   UNL     1       5.862   4.939  17.906  0.00  0.00    +0.000 N 
ATOM      3  C   UNL     1       5.608   4.177  16.783  0.00  0.00    +0.000 A 
ATOM      4  C   UNL     1       4.285   3.840  16.837  0.00  0.00    +0.000 A 
ATOM      5  N   UNL     1       3.763   4.426  17.986  0.00  0.00    +0.000 N 
ATOM      6  C   UNL     1       4.739   5.087  18.620  0.00  0.00    +0.000 A 
BRANCH   5   7
ATOM      7  C   UNL     1       2.377   4.323  18.448  0.00  0.00    +0.000 C 
ATOM      8  C   UNL     1       1.837   2.903  18.360  0.00  0.00    +0.000 C 
ATOM      9  C   UNL     1       0.647   2.905  19.307  0.00  0.00    +0.000 C 
ATOM     10  C   UNL     1       0.969   3.936  20.385  0.00  0.00    +0.000 C 
ATOM     11  C   UNL     1       2.219   4.679  19.923  0.00  0.00    +0.000 C 
ENDBRANCH   5   7
ENDBRANCH   1   2
BRANCH   1  12
ATOM     12  C   UNL     1       7.392   6.821  17.623  0.00  0.00    +0.000 C 
BRANCH  12  13
ATOM     13  C   UNL     1       8.349   7.696  18.421  0.00  0.00    +0.000 C 
BRANCH  13  14
ATOM     14  C   UNL     1       8.172   9.166  18.064  0.00  0.00    +0.000 C 
BRANCH  14  15
ATOM     15  C   UNL     1       9.121  10.056  18.844  0.00  0.00    +0.000 C 
BRANCH  15  16
ATOM     16  C   UNL     1       9.256  11.384  18.112  0.00  0.00    +0.000 C 
BRANCH  16  17
ATOM     17  C   UNL     1      10.632  11.997  18.324  0.00  0.00    +0.000 C 
BRANCH  17  18
ATOM     18  C   UNL     1      10.893  13.034  17.240  0.00  0.00    +0.000 C 
BRANCH  18  20
ATOM     19  C   UNL     1      11.230  15.480  16.864  0.00  0.00    +0.000 C 
ATOM     20  C   UNL     1      10.520  14.435  17.707  0.00  0.00    +0.000 C 
ENDBRANCH  18  20
ENDBRANCH  17  18
ENDBRANCH  16  17
ENDBRANCH  15  16
ENDBRANCH  14  15
ENDBRANCH  13  14
ENDBRANCH  12  13
ENDBRANCH   1  12
TORSDOF 10
ENDMDL
MODEL 7
REMARK VINA RESULT:      -6.2      4.057      7.661
REMARK  Name = 
REMARK  11 active torsions:
REMARK  status: ('A' for Active; 'I' for Inactive)
REMARK    1  A    between atoms: C_1  and  C_2
REMARK    2  A    between atoms: C_2  and  C_3
REMARK    3  A    between atoms: C_3  and  C_4
REMARK    4  A    between atoms: C_4  and  C_5
REMARK    5  A    between atoms: C_5  and  C_6
REMARK    6  A    between atoms: C_6  and  C_7
REMARK    7  A    between atoms: C_7  and  C_8
REMARK    8  A    between atoms: C_8  and  C_9
REMARK    9  A    between atoms: C_9  and  C_10
REMARK   10  A    between atoms: C_10  and  N_11
REMARK   11  A    between atoms: N_14  and  C_15
REMARK                            x       y       z     vdW  Elec       q    Type
REMARK                         _______ _______ _______ _____ _____    ______ ____
ROOT
ATOM      1  C   UNL     1       2.946   2.030  18.657  0.00  0.00    +0.000 C 
ENDROOT
BRANCH   1   2
ATOM      2  N   UNL     1       3.611   3.171  18.053  0.00  0.00    +0.000 N 
ATOM      3  C   UNL     1       3.021   4.119  17.240  0.00  0.00    +0.000 A 
ATOM      4  C   UNL     1       3.992   5.035  16.951  0.00  0.00    +0.000 A 
ATOM      5  N   UNL     1       5.157   4.607  17.581  0.00  0.00    +0.000 N 
ATOM      6  C   UNL     1       4.900   3.474  18.245  0.00  0.00    +0.000 A 
BRANCH   5   7
ATOM      7  C   UNL     1       6.451   5.290  17.547  0.00  0.00    +0.000 C 
ATOM      8  C   UNL     1       6.333   6.742  17.104  0.00  0.00    +0.000 C 
ATOM      9  C   UNL     1       7.619   7.382  17.603  0.00  0.00    +0.000 C 
ATOM     10  C   UNL     1       8.022   6.601  18.851  0.00  0.00    +0.000 C 
ATOM     11  C   UNL     1       7.105   5.385  18.922  0.00  0.00    +0.000 C 
ENDBRANCH   5   7
ENDBRANCH   1   2
BRANCH   1  12
ATOM     12  C   UNL     1       1.435   2.153  18.493  0.00  0.00    +0.000 C 
BRANCH  12  13
ATOM     13  C   UNL     1       0.784   2.799  19.708  0.00  0.00    +0.000 C 
BRANCH  13  14
ATOM     14  C   UNL     1       1.637   2.603  20.953  0.00  0.00    +0.000 C 
BRANCH  14  15
ATOM     15  C   UNL     1       2.125   3.924  21.519  0.00  0.00    +0.000 C 
BRANCH  15  16
ATOM     16  C   UNL     1       1.628   5.051  20.625  0.00  0.00    +0.000 C 
BRANCH  16  17
ATOM     17  C   UNL     1       2.731   6.057  20.335  0.00  0.00    +0.000 C 
BRANCH  17  18
ATOM     18  C   UNL     1       2.111   7.350  19.821  0.00  0.00    +0.000 C 
BRANCH  18  20
ATOM     19  C   UNL     1       0.616   9.277  20.355  0.00  0.00    +0.000 C 
ATOM     20  C   UNL     1       1.383   8.098  20.929  0.00  0.00    +0.000 C 
ENDBRANCH  18  20
ENDBRANCH  17  18
ENDBRANCH  16  17
ENDBRANCH  15  16
ENDBRANCH  14  15
ENDBRANCH  13  14
ENDBRANCH  12  13
ENDBRANCH   1  12
TORSDOF 10
ENDMDL
MODEL 8
REMARK VINA RESULT:      -6.2      1.157      1.535
REMARK  Name = 
REMARK  11 active torsions:
REMARK  status: ('A' for Active; 'I' for Inactive)
REMARK    1  A    between atoms: C_1  and  C_2
REMARK    2  A    between atoms: C_2  and  C_3
REMARK    3  A    between atoms: C_3  and  C_4
REMARK    4  A    between atoms: C_4  and  C_5
REMARK    5  A    between atoms: C_5  and  C_6
REMARK    6  A    between atoms: C_6  and  C_7
REMARK    7  A    between atoms: C_7  and  C_8
REMARK    8  A    between atoms: C_8  and  C_9
REMARK    9  A    between atoms: C_9  and  C_10
REMARK   10  A    between atoms: C_10  and  N_11
REMARK   11  A    between atoms: N_14  and  C_15
REMARK                            x       y       z     vdW  Elec       q    Type
REMARK                         _______ _______ _______ _____ _____    ______ ____
ROOT
ATOM      1  C   UNL     1       6.586   5.737  16.317  0.00  0.00    +0.000 C 
ENDROOT
BRANCH   1   2
ATOM      2  N   UNL     1       5.426   5.010  16.802  0.00  0.00    +0.000 N 
ATOM      3  C   UNL     1       5.205   3.653  16.672  0.00  0.00    +0.000 A 
ATOM      4  C   UNL     1       4.031   3.391  17.320  0.00  0.00    +0.000 A 
ATOM      5  N   UNL     1       3.557   4.604  17.810  0.00  0.00    +0.000 N 
ATOM      6  C   UNL     1       4.421   5.573  17.484  0.00  0.00    +0.000 A 
BRANCH   5   7
ATOM      7  C   UNL     1       2.325   4.796  18.578  0.00  0.00    +0.000 C 
ATOM      8  C   UNL     1       1.714   3.480  19.039  0.00  0.00    +0.000 C 
ATOM      9  C   UNL     1       0.796   3.884  20.182  0.00  0.00    +0.000 C 
ATOM     10  C   UNL     1       1.423   5.130  20.805  0.00  0.00    +0.000 C 
ATOM     11  C   UNL     1       2.553   5.563  19.876  0.00  0.00    +0.000 C 
ENDBRANCH   5   7
ENDBRANCH   1   2
BRANCH   1  12
ATOM     12  C   UNL     1       7.384   4.871  15.348  0.00  0.00    +0.000 C 
BRANCH  12  13
ATOM     13  C   UNL     1       6.647   4.669  14.031  0.00  0.00    +0.000 C 
BRANCH  13  14
ATOM     14  C   UNL     1       7.570   4.916  12.846  0.00  0.00    +0.000 C 
BRANCH  14  15
ATOM     15  C   UNL     1       7.103   4.183  11.602  0.00  0.00    +0.000 C 
BRANCH  15  16
ATOM     16  C   UNL     1       6.649   2.786  12.001  0.00  0.00    +0.000 C 
BRANCH  16  17
ATOM     17  C   UNL     1       5.403   2.368  11.236  0.00  0.00    +0.000 C 
BRANCH  17  18
ATOM     18  C   UNL     1       4.271   3.338  11.550  0.00  0.00    +0.000 C 
BRANCH  18  20
ATOM     19  C   UNL     1       3.035   4.178   9.549  0.00  0.00    +0.000 C 
ATOM     20  C   UNL     1       3.076   3.115  10.633  0.00  0.00    +0.000 C 
ENDBRANCH  18  20
ENDBRANCH  17  18
ENDBRANCH  16  17
ENDBRANCH  15  16
ENDBRANCH  14  15
ENDBRANCH  13  14
ENDBRANCH  12  13
ENDBRANCH   1  12
TORSDOF 10
ENDMDL
MODEL 9
REMARK VINA RESULT:      -6.2      4.680      7.638
REMARK  Name = 
REMARK  11 active torsions:
REMARK  status: ('A' for Active; 'I' for Inactive)
REMARK    1  A    between atoms: C_1  and  C_2
REMARK    2  A    between atoms: C_2  and  C_3
REMARK    3  A    between atoms: C_3  and  C_4
REMARK    4  A    between atoms: C_4  and  C_5
REMARK    5  A    between atoms: C_5  and  C_6
REMARK    6  A    between atoms: C_6  and  C_7
REMARK    7  A    between atoms: C_7  and  C_8
REMARK    8  A    between atoms: C_8  and  C_9
REMARK    9  A    between atoms: C_9  and  C_10
REMARK   10  A    between atoms: C_10  and  N_11
REMARK   11  A    between atoms: N_14  and  C_15
REMARK                            x       y       z     vdW  Elec       q    Type
REMARK                         _______ _______ _______ _____ _____    ______ ____
ROOT
ATOM      1  C   UNL     1       7.207   4.976  17.751  0.00  0.00    +0.000 C 
ENDROOT
BRANCH   1   2
ATOM      2  N   UNL     1       5.841   4.483  17.717  0.00  0.00    +0.000 N 
ATOM      3  C   UNL     1       5.036   4.395  16.599  0.00  0.00    +0.000 A 
ATOM      4  C   UNL     1       3.866   3.824  17.011  0.00  0.00    +0.000 A 
ATOM      5  N   UNL     1       3.983   3.599  18.380  0.00  0.00    +0.000 N 
ATOM      6  C   UNL     1       5.192   4.006  18.786  0.00  0.00    +0.000 A 
BRANCH   5   7
ATOM      7  C   UNL     1       2.964   2.995  19.240  0.00  0.00    +0.000 C 
ATOM      8  C   UNL     1       2.733   3.791  20.517  0.00  0.00    +0.000 C 
ATOM      9  C   UNL     1       1.366   3.325  20.996  0.00  0.00    +0.000 C 
ATOM     10  C   UNL     1       0.591   2.935  19.740  0.00  0.00    +0.000 C 
ATOM     11  C   UNL     1       1.586   2.955  18.585  0.00  0.00    +0.000 C 
ENDBRANCH   5   7
ENDBRANCH   1   2
BRANCH   1  12
ATOM     12  C   UNL     1       7.240   6.398  18.301  0.00  0.00    +0.000 C 
BRANCH  12  13
ATOM     13  C   UNL     1       7.886   7.369  17.323  0.00  0.00    +0.000 C 
BRANCH  13  14
ATOM     14  C   UNL     1       7.650   8.811  17.748  0.00  0.00    +0.000 C 
BRANCH  14  15
ATOM     15  C   UNL     1       8.781   9.340  18.610  0.00  0.00    +0.000 C 
BRANCH  15  16
ATOM     16  C   UNL     1       8.837  10.855  18.466  0.00  0.00    +0.000 C 
BRANCH  16  17
ATOM     17  C   UNL     1      10.144  11.415  19.004  0.00  0.00    +0.000 C 
BRANCH  17  18
ATOM     18  C   UNL     1      11.159  11.500  17.871  0.00  0.00    +0.000 C 
BRANCH  18  20
ATOM     19  C   UNL     1      12.332  13.650  18.353  0.00  0.00    +0.000 C 
ATOM     20  C   UNL     1      11.371  12.938  17.418  0.00  0.00    +0.000 C 
ENDBRANCH  18  20
ENDBRANCH  17  18
ENDBRANCH  16  17
ENDBRANCH  15  16
ENDBRANCH  14  15
ENDBRANCH  13  14
ENDBRANCH  12  13
ENDBRANCH   1  12
TORSDOF 10
ENDMDL
