MODEL 1
REMARK VINA RESULT:      -9.6      0.000      0.000
REMARK  Name = 
REMARK  8 active torsions:
REMARK  status: ('A' for Active; 'I' for Inactive)
REMARK    1  A    between atoms: C_1  and  C_2
REMARK    2  A    between atoms: C_2  and  C_25
REMARK    3  A    between atoms: C_3  and  C_5
REMARK    4  A    between atoms: N_7  and  C_8
REMARK    5  A    between atoms: C_11  and  C_12
REMARK    6  A    between atoms: C_17  and  S_18
REMARK    7  A    between atoms: S_18  and  N_19
REMARK    8  A    between atoms: C_30  and  C_31
REMARK                            x       y       z     vdW  Elec       q    Type
REMARK                         _______ _______ _______ _____ _____    ______ ____
ROOT
ATOM      1  C   UNL     1       2.007   5.022  18.646  0.00  0.00    +0.000 C 
ATOM      2  O   UNL     1       1.294   5.249  17.673  0.00  0.00    +0.000 OA
ATOM      3  N   UNL     1       2.499   5.978  19.524  0.00  0.00    +0.000 N 
ATOM      4  H   UNL     1       3.199   5.707  20.204  0.00  0.00    +0.000 HD
ENDROOT
BRANCH   3   5
ATOM      5  C   UNL     1       2.184   7.356  19.420  0.00  0.00    +0.000 A 
ATOM      6  C   UNL     1       1.453   8.006  20.400  0.00  0.00    +0.000 A 
ATOM      7  C   UNL     1       0.998   9.309  20.225  0.00  0.00    +0.000 A 
ATOM      8  C   UNL     1       1.361  10.106  19.145  0.00  0.00    +0.000 A 
ATOM      9  C   UNL     1       2.188   9.461  18.190  0.00  0.00    +0.000 A 
ATOM     10  C   UNL     1       2.563   8.107  18.314  0.00  0.00    +0.000 A 
ATOM     11  F   UNL     1       3.247   7.530  17.314  0.00  0.00    +0.000 F 
BRANCH   8  12
ATOM     12  C   UNL     1       0.830  11.499  18.965  0.00  0.00    +0.000 A 
ATOM     13  C   UNL     1       1.667  12.563  19.398  0.00  0.00    +0.000 A 
ATOM     14  C   UNL     1       1.313  13.911  19.286  0.00  0.00    +0.000 A 
ATOM     15  C   UNL     1       0.108  14.263  18.709  0.00  0.00    +0.000 A 
ATOM     16  C   UNL     1      -0.740  13.266  18.246  0.00  0.00    +0.000 A 
ATOM     17  C   UNL     1      -0.404  11.898  18.366  0.00  0.00    +0.000 A 
BRANCH  17  18
ATOM     18  S   UNL     1      -1.640  10.760  17.754  0.00  0.00    +0.000 S 
ATOM     19  O   UNL     1      -0.996   9.571  17.250  0.00  0.00    +0.000 OA
ATOM     20  O   UNL     1      -2.755  10.736  18.674  0.00  0.00    +0.000 OA
BRANCH  18  21
ATOM     21  N   UNL     1      -2.260  11.443  16.340  0.00  0.00    +0.000 NA
ATOM     22  H   UNL     1      -1.575  12.126  16.018  0.00  0.00    +0.000 HD
ATOM     23  H   UNL     1      -2.433  10.699  15.663  0.00  0.00    +0.000 HD
ENDBRANCH  18  21
ENDBRANCH  17  18
ENDBRANCH   8  12
ENDBRANCH   3   5
BRANCH   1  26
ATOM     24  C   UNL     1       3.840   1.596  18.694  0.00  0.00    +0.000 C 
ATOM     25  C   UNL     1       3.549   3.057  18.551  0.00  0.00    +0.000 C 
ATOM     26  C   UNL     1       2.391   3.621  18.955  0.00  0.00    +0.000 C 
ATOM     27  F   UNL     1       1.448   2.888  19.590  0.00  0.00    +0.000 F 
BRANCH  25  28
ATOM     28  C   UNL     1       4.653   3.817  17.919  0.00  0.00    +0.000 A 
ATOM     29  C   UNL     1       4.663   4.014  16.532  0.00  0.00    +0.000 A 
ATOM     30  C   UNL     1       5.654   4.801  15.944  0.00  0.00    +0.000 A 
ATOM     31  C   UNL     1       6.633   5.391  16.740  0.00  0.00    +0.000 A 
ATOM     32  F   UNL     1       7.535   6.186  16.143  0.00  0.00    +0.000 F 
ATOM     33  C   UNL     1       6.662   5.182  18.122  0.00  0.00    +0.000 A 
ATOM     34  C   UNL     1       5.672   4.376  18.705  0.00  0.00    +0.000 A 
BRANCH  33  35
ATOM     35  C   UNL     1       7.678   5.855  18.984  0.00  0.00    +0.000 C 
ATOM     36  N   UNL     1       8.161   7.035  18.742  0.00  0.00    +0.000 NA
ATOM     37  N   UNL     1       8.154   5.257  20.116  0.00  0.00    +0.000 N 
ATOM     38  H   UNL     1       7.759   7.429  17.883  0.00  0.00    +0.000 HD
ATOM     39  H   UNL     1       8.399   4.278  20.022  0.00  0.00    +0.000 HD
ATOM     40  H   UNL     1       8.933   5.797  20.482  0.00  0.00    +0.000 HD
ENDBRANCH  33  35
ENDBRANCH  25  28
ENDBRANCH   1  26
TORSDOF 7
ENDMDL
MODEL 2
REMARK VINA RESULT:      -9.5      2.146      2.455
REMARK  Name = 
REMARK  8 active torsions:
REMARK  status: ('A' for Active; 'I' for Inactive)
REMARK    1  A    between atoms: C_1  and  C_2
REMARK    2  A    between atoms: C_2  and  C_25
REMARK    3  A    between atoms: C_3  and  C_5
REMARK    4  A    between atoms: N_7  and  C_8
REMARK    5  A    between atoms: C_11  and  C_12
REMARK    6  A    between atoms: C_17  and  S_18
REMARK    7  A    between atoms: S_18  and  N_19
REMARK    8  A    between atoms: C_30  and  C_31
REMARK                            x       y       z     vdW  Elec       q    Type
REMARK                         _______ _______ _______ _____ _____    ______ ____
ROOT
ATOM      1  C   UNL     1       2.282   4.692  20.137  0.00  0.00    +0.000 C 
ATOM      2  O   UNL     1       1.181   4.496  19.632  0.00  0.00    +0.000 OA
ATOM      3  N   UNL     1       2.856   5.936  20.360  0.00  0.00    +0.000 N 
ATOM      4  H   UNL     1       3.828   5.986  20.641  0.00  0.00    +0.000 HD
ENDROOT
BRANCH   3   5
ATOM      5  C   UNL     1       2.194   7.154  20.066  0.00  0.00    +0.000 A 
ATOM      6  C   UNL     1       1.414   7.799  21.012  0.00  0.00    +0.000 A 
ATOM      7  C   UNL     1       0.631   8.899  20.680  0.00  0.00    +0.000 A 
ATOM      8  C   UNL     1       0.681   9.528  19.441  0.00  0.00    +0.000 A 
ATOM      9  C   UNL     1       1.554   8.915  18.506  0.00  0.00    +0.000 A 
ATOM     10  C   UNL     1       2.269   7.738  18.807  0.00  0.00    +0.000 A 
ATOM     11  F   UNL     1       2.984   7.147  17.837  0.00  0.00    +0.000 F 
BRANCH   8  12
ATOM     12  C   UNL     1      -0.199  10.696  19.101  0.00  0.00    +0.000 A 
ATOM     13  C   UNL     1      -1.539  10.400  18.730  0.00  0.00    +0.000 A 
ATOM     14  C   UNL     1      -2.478  11.381  18.396  0.00  0.00    +0.000 A 
ATOM     15  C   UNL     1      -2.126  12.716  18.444  0.00  0.00    +0.000 A 
ATOM     16  C   UNL     1      -0.837  13.066  18.823  0.00  0.00    +0.000 A 
ATOM     17  C   UNL     1       0.128  12.085  19.148  0.00  0.00    +0.000 A 
BRANCH  17  18
ATOM     18  S   UNL     1       1.744  12.725  19.568  0.00  0.00    +0.000 S 
ATOM     19  O   UNL     1       2.022  12.462  20.960  0.00  0.00    +0.000 OA
ATOM     20  O   UNL     1       2.665  12.418  18.497  0.00  0.00    +0.000 OA
BRANCH  18  21
ATOM     21  N   UNL     1       1.610  14.408  19.554  0.00  0.00    +0.000 NA
ATOM     22  H   UNL     1       0.933  14.643  18.828  0.00  0.00    +0.000 HD
ATOM     23  H   UNL     1       1.327  14.725  20.482  0.00  0.00    +0.000 HD
ENDBRANCH  18  21
ENDBRANCH  17  18
ENDBRANCH   8  12
ENDBRANCH   3   5
BRANCH   1  26
ATOM     24  C   UNL     1       4.840   1.766  20.207  0.00  0.00    +0.000 C 
ATOM     25  C   UNL     1       4.148   3.050  19.869  0.00  0.00    +0.000 C 
ATOM     26  C   UNL     1       3.100   3.530  20.571  0.00  0.00    +0.000 C 
ATOM     27  F   UNL     1       2.663   2.897  21.684  0.00  0.00    +0.000 F 
BRANCH  25  28
ATOM     28  C   UNL     1       4.725   3.733  18.687  0.00  0.00    +0.000 A 
ATOM     29  C   UNL     1       4.212   3.473  17.409  0.00  0.00    +0.000 A 
ATOM     30  C   UNL     1       4.693   4.178  16.306  0.00  0.00    +0.000 A 
ATOM     31  C   UNL     1       5.685   5.142  16.477  0.00  0.00    +0.000 A 
ATOM     32  F   UNL     1       6.080   5.837  15.399  0.00  0.00    +0.000 F 
ATOM     33  C   UNL     1       6.234   5.395  17.737  0.00  0.00    +0.000 A 
ATOM     34  C   UNL     1       5.757   4.671  18.841  0.00  0.00    +0.000 A 
BRANCH  33  35
ATOM     35  C   UNL     1       7.258   6.463  17.934  0.00  0.00    +0.000 C 
ATOM     36  N   UNL     1       7.401   7.479  17.140  0.00  0.00    +0.000 NA
ATOM     37  N   UNL     1       8.112   6.438  18.999  0.00  0.00    +0.000 N 
ATOM     38  H   UNL     1       6.727   7.440  16.365  0.00  0.00    +0.000 HD
ATOM     39  H   UNL     1       8.533   5.538  19.200  0.00  0.00    +0.000 HD
ATOM     40  H   UNL     1       8.821   7.157  18.882  0.00  0.00    +0.000 HD
ENDBRANCH  33  35
ENDBRANCH  25  28
ENDBRANCH   1  26
TORSDOF 7
ENDMDL
MODEL 3
REMARK VINA RESULT:      -9.5      1.230      1.508
REMARK  Name = 
REMARK  8 active torsions:
REMARK  status: ('A' for Active; 'I' for Inactive)
REMARK    1  A    between atoms: C_1  and  C_2
REMARK    2  A    between atoms: C_2  and  C_25
REMARK    3  A    between atoms: C_3  and  C_5
REMARK    4  A    between atoms: N_7  and  C_8
REMARK    5  A    between atoms: C_11  and  C_12
REMARK    6  A    between atoms: C_17  and  S_18
REMARK    7  A    between atoms: S_18  and  N_19
REMARK    8  A    between atoms: C_30  and  C_31
REMARK                            x       y       z     vdW  Elec       q    Type
REMARK                         _______ _______ _______ _____ _____    ______ ____
ROOT
ATOM      1  C   UNL     1       2.052   4.950  18.647  0.00  0.00    +0.000 C 
ATOM      2  O   UNL     1       1.369   5.087  17.637  0.00  0.00    +0.000 OA
ATOM      3  N   UNL     1       2.457   5.974  19.492  0.00  0.00    +0.000 N 
ATOM      4  H   UNL     1       3.142   5.777  20.211  0.00  0.00    +0.000 HD
ENDROOT
BRANCH   3   5
ATOM      5  C   UNL     1       2.073   7.326  19.303  0.00  0.00    +0.000 A 
ATOM      6  C   UNL     1       2.283   7.975  18.098  0.00  0.00    +0.000 A 
ATOM      7  C   UNL     1       2.065   9.342  17.961  0.00  0.00    +0.000 A 
ATOM      8  C   UNL     1       1.483  10.126  18.952  0.00  0.00    +0.000 A 
ATOM      9  C   UNL     1       1.186   9.432  20.152  0.00  0.00    +0.000 A 
ATOM     10  C   UNL     1       1.503   8.069  20.329  0.00  0.00    +0.000 A 
ATOM     11  F   UNL     1       1.301   7.507  21.532  0.00  0.00    +0.000 F 
BRANCH   8  12
ATOM     12  C   UNL     1       1.288  11.606  18.788  0.00  0.00    +0.000 A 
ATOM     13  C   UNL     1       2.417  12.356  18.361  0.00  0.00    +0.000 A 
ATOM     14  C   UNL     1       2.386  13.739  18.155  0.00  0.00    +0.000 A 
ATOM     15  C   UNL     1       1.209  14.438  18.342  0.00  0.00    +0.000 A 
ATOM     16  C   UNL     1       0.067  13.753  18.736  0.00  0.00    +0.000 A 
ATOM     17  C   UNL     1       0.086  12.358  18.964  0.00  0.00    +0.000 A 
BRANCH  17  18
ATOM     18  S   UNL     1      -1.467  11.661  19.509  0.00  0.00    +0.000 S 
ATOM     19  O   UNL     1      -1.860  10.596  18.617  0.00  0.00    +0.000 OA
ATOM     20  O   UNL     1      -1.445  11.530  20.949  0.00  0.00    +0.000 OA
BRANCH  18  21
ATOM     21  N   UNL     1      -2.649  12.825  19.198  0.00  0.00    +0.000 NA
ATOM     22  H   UNL     1      -3.548  12.399  19.426  0.00  0.00    +0.000 HD
ATOM     23  H   UNL     1      -2.448  13.657  19.754  0.00  0.00    +0.000 HD
ENDBRANCH  18  21
ENDBRANCH  17  18
ENDBRANCH   8  12
ENDBRANCH   3   5
BRANCH   1  26
ATOM     24  C   UNL     1       4.042   1.622  18.919  0.00  0.00    +0.000 C 
ATOM     25  C   UNL     1       3.685   3.057  18.686  0.00  0.00    +0.000 C 
ATOM     26  C   UNL     1       2.498   3.589  19.044  0.00  0.00    +0.000 C 
ATOM     27  F   UNL     1       1.582   2.852  19.714  0.00  0.00    +0.000 F 
BRANCH  25  28
ATOM     28  C   UNL     1       4.760   3.828  18.019  0.00  0.00    +0.000 A 
ATOM     29  C   UNL     1       4.736   4.007  16.629  0.00  0.00    +0.000 A 
ATOM     30  C   UNL     1       5.698   4.804  16.009  0.00  0.00    +0.000 A 
ATOM     31  C   UNL     1       6.683   5.423  16.775  0.00  0.00    +0.000 A 
ATOM     32  F   UNL     1       7.556   6.227  16.148  0.00  0.00    +0.000 F 
ATOM     33  C   UNL     1       6.747   5.234  18.159  0.00  0.00    +0.000 A 
ATOM     34  C   UNL     1       5.786   4.418  18.774  0.00  0.00    +0.000 A 
BRANCH  33  35
ATOM     35  C   UNL     1       7.768   5.938  18.989  0.00  0.00    +0.000 C 
ATOM     36  N   UNL     1       8.206   7.132  18.734  0.00  0.00    +0.000 NA
ATOM     37  N   UNL     1       8.299   5.354  20.104  0.00  0.00    +0.000 N 
ATOM     38  H   UNL     1       7.764   7.515  17.888  0.00  0.00    +0.000 HD
ATOM     39  H   UNL     1       8.572   4.383  20.000  0.00  0.00    +0.000 HD
ATOM     40  H   UNL     1       9.072   5.918  20.445  0.00  0.00    +0.000 HD
ENDBRANCH  33  35
ENDBRANCH  25  28
ENDBRANCH   1  26
TORSDOF 7
ENDMDL
MODEL 4
REMARK VINA RESULT:      -9.4      2.321      2.561
REMARK  Name = 
REMARK  8 active torsions:
REMARK  status: ('A' for Active; 'I' for Inactive)
REMARK    1  A    between atoms: C_1  and  C_2
REMARK    2  A    between atoms: C_2  and  C_25
REMARK    3  A    between atoms: C_3  and  C_5
REMARK    4  A    between atoms: N_7  and  C_8
REMARK    5  A    between atoms: C_11  and  C_12
REMARK    6  A    between atoms: C_17  and  S_18
REMARK    7  A    between atoms: S_18  and  N_19
REMARK    8  A    between atoms: C_30  and  C_31
REMARK                            x       y       z     vdW  Elec       q    Type
REMARK                         _______ _______ _______ _____ _____    ______ ____
ROOT
ATOM      1  C   UNL     1       2.234   4.585  20.257  0.00  0.00    +0.000 C 
ATOM      2  O   UNL     1       1.127   4.371  19.772  0.00  0.00    +0.000 OA
ATOM      3  N   UNL     1       2.782   5.840  20.488  0.00  0.00    +0.000 N 
ATOM      4  H   UNL     1       3.759   5.908  20.750  0.00  0.00    +0.000 HD
ENDROOT
BRANCH   3   5
ATOM      5  C   UNL     1       2.085   7.046  20.229  0.00  0.00    +0.000 A 
ATOM      6  C   UNL     1       1.203   7.583  21.151  0.00  0.00    +0.000 A 
ATOM      7  C   UNL     1       0.394   8.670  20.836  0.00  0.00    +0.000 A 
ATOM      8  C   UNL     1       0.508   9.391  19.653  0.00  0.00    +0.000 A 
ATOM      9  C   UNL     1       1.481   8.888  18.751  0.00  0.00    +0.000 A 
ATOM     10  C   UNL     1       2.228   7.724  19.025  0.00  0.00    +0.000 A 
ATOM     11  F   UNL     1       3.046   7.240  18.076  0.00  0.00    +0.000 F 
BRANCH   8  12
ATOM     12  C   UNL     1      -0.400  10.540  19.325  0.00  0.00    +0.000 A 
ATOM     13  C   UNL     1      -1.210  10.405  18.166  0.00  0.00    +0.000 A 
ATOM     14  C   UNL     1      -2.112  11.386  17.741  0.00  0.00    +0.000 A 
ATOM     15  C   UNL     1      -2.265  12.546  18.475  0.00  0.00    +0.000 A 
ATOM     16  C   UNL     1      -1.517  12.723  19.632  0.00  0.00    +0.000 A 
ATOM     17  C   UNL     1      -0.590  11.747  20.065  0.00  0.00    +0.000 A 
BRANCH  17  18
ATOM     18  S   UNL     1       0.313  12.171  21.549  0.00  0.00    +0.000 S 
ATOM     19  O   UNL     1      -0.242  11.457  22.674  0.00  0.00    +0.000 OA
ATOM     20  O   UNL     1       1.726  12.211  21.246  0.00  0.00    +0.000 OA
BRANCH  18  21
ATOM     21  N   UNL     1      -0.096  13.767  21.918  0.00  0.00    +0.000 NA
ATOM     22  H   UNL     1       0.744  14.206  22.296  0.00  0.00    +0.000 HD
ATOM     23  H   UNL     1      -0.440  14.224  21.073  0.00  0.00    +0.000 HD
ENDBRANCH  18  21
ENDBRANCH  17  18
ENDBRANCH   8  12
ENDBRANCH   3   5
BRANCH   1  26
ATOM     24  C   UNL     1       4.862   1.722  20.225  0.00  0.00    +0.000 C 
ATOM     25  C   UNL     1       4.132   2.994  19.923  0.00  0.00    +0.000 C 
ATOM     26  C   UNL     1       3.089   3.438  20.654  0.00  0.00    +0.000 C 
ATOM     27  F   UNL     1       2.691   2.776  21.766  0.00  0.00    +0.000 F 
BRANCH  25  28
ATOM     28  C   UNL     1       4.667   3.710  18.740  0.00  0.00    +0.000 A 
ATOM     29  C   UNL     1       4.088   3.508  17.480  0.00  0.00    +0.000 A 
ATOM     30  C   UNL     1       4.532   4.244  16.381  0.00  0.00    +0.000 A 
ATOM     31  C   UNL     1       5.551   5.181  16.540  0.00  0.00    +0.000 A 
ATOM     32  F   UNL     1       5.910   5.908  15.470  0.00  0.00    +0.000 F 
ATOM     33  C   UNL     1       6.164   5.376  17.780  0.00  0.00    +0.000 A 
ATOM     34  C   UNL     1       5.725   4.621  18.878  0.00  0.00    +0.000 A 
BRANCH  33  35
ATOM     35  C   UNL     1       7.219   6.416  17.966  0.00  0.00    +0.000 C 
ATOM     36  N   UNL     1       7.387   7.424  17.166  0.00  0.00    +0.000 NA
ATOM     37  N   UNL     1       8.078   6.371  19.027  0.00  0.00    +0.000 N 
ATOM     38  H   UNL     1       6.707   7.400  16.396  0.00  0.00    +0.000 HD
ATOM     39  H   UNL     1       8.474   5.461  19.229  0.00  0.00    +0.000 HD
ATOM     40  H   UNL     1       8.806   7.069  18.902  0.00  0.00    +0.000 HD
ENDBRANCH  33  35
ENDBRANCH  25  28
ENDBRANCH   1  26
TORSDOF 7
ENDMDL
MODEL 5
REMARK VINA RESULT:      -9.3      3.577      8.810
REMARK  Name = 
REMARK  8 active torsions:
REMARK  status: ('A' for Active; 'I' for Inactive)
REMARK    1  A    between atoms: C_1  and  C_2
REMARK    2  A    between atoms: C_2  and  C_25
REMARK    3  A    between atoms: C_3  and  C_5
REMARK    4  A    between atoms: N_7  and  C_8
REMARK    5  A    between atoms: C_11  and  C_12
REMARK    6  A    between atoms: C_17  and  S_18
REMARK    7  A    between atoms: S_18  and  N_19
REMARK    8  A    between atoms: C_30  and  C_31
REMARK                            x       y       z     vdW  Elec       q    Type
REMARK                         _______ _______ _______ _____ _____    ______ ____
ROOT
ATOM      1  C   UNL     1      -0.230   9.207  21.749  0.00  0.00    +0.000 C 
ATOM      2  O   UNL     1      -0.929   8.209  21.604  0.00  0.00    +0.000 OA
ATOM      3  N   UNL     1       0.996   9.427  21.136  0.00  0.00    +0.000 N 
ATOM      4  H   UNL     1       1.563  10.211  21.438  0.00  0.00    +0.000 HD
ENDROOT
BRANCH   3   5
ATOM      5  C   UNL     1       1.570   8.520  20.211  0.00  0.00    +0.000 A 
ATOM      6  C   UNL     1       2.041   7.280  20.611  0.00  0.00    +0.000 A 
ATOM      7  C   UNL     1       2.753   6.458  19.744  0.00  0.00    +0.000 A 
ATOM      8  C   UNL     1       2.916   6.733  18.391  0.00  0.00    +0.000 A 
ATOM      9  C   UNL     1       2.349   7.963  17.969  0.00  0.00    +0.000 A 
ATOM     10  C   UNL     1       1.717   8.846  18.868  0.00  0.00    +0.000 A 
ATOM     11  F   UNL     1       1.309  10.044  18.422  0.00  0.00    +0.000 F 
BRANCH   8  12
ATOM     12  C   UNL     1       3.717   5.843  17.485  0.00  0.00    +0.000 A 
ATOM     13  C   UNL     1       4.747   6.463  16.727  0.00  0.00    +0.000 A 
ATOM     14  C   UNL     1       5.581   5.764  15.850  0.00  0.00    +0.000 A 
ATOM     15  C   UNL     1       5.442   4.397  15.708  0.00  0.00    +0.000 A 
ATOM     16  C   UNL     1       4.468   3.733  16.443  0.00  0.00    +0.000 A 
ATOM     17  C   UNL     1       3.606   4.429  17.321  0.00  0.00    +0.000 A 
BRANCH  17  18
ATOM     18  S   UNL     1       2.387   3.413  18.145  0.00  0.00    +0.000 S 
ATOM     19  O   UNL     1       2.744   3.259  19.535  0.00  0.00    +0.000 OA
ATOM     20  O   UNL     1       1.069   3.801  17.697  0.00  0.00    +0.000 OA
BRANCH  18  21
ATOM     21  N   UNL     1       2.598   1.844  17.559  0.00  0.00    +0.000 NA
ATOM     22  H   UNL     1       2.480   1.215  18.354  0.00  0.00    +0.000 HD
ATOM     23  H   UNL     1       1.923   1.676  16.813  0.00  0.00    +0.000 HD
ENDBRANCH  18  21
ENDBRANCH  17  18
ENDBRANCH   8  12
ENDBRANCH   3   5
BRANCH   1  26
ATOM     24  C   UNL     1      -1.261  12.694  23.123  0.00  0.00    +0.000 C 
ATOM     25  C   UNL     1      -0.982  11.548  22.200  0.00  0.00    +0.000 C 
ATOM     26  C   UNL     1      -0.700  10.302  22.636  0.00  0.00    +0.000 C 
ATOM     27  F   UNL     1      -0.730  10.007  23.956  0.00  0.00    +0.000 F 
BRANCH  25  28
ATOM     28  C   UNL     1      -1.041  11.921  20.767  0.00  0.00    +0.000 A 
ATOM     29  C   UNL     1      -0.009  12.679  20.198  0.00  0.00    +0.000 A 
ATOM     30  C   UNL     1      -0.018  12.958  18.831  0.00  0.00    +0.000 A 
ATOM     31  C   UNL     1      -1.055  12.480  18.033  0.00  0.00    +0.000 A 
ATOM     32  F   UNL     1      -0.997  12.723  16.714  0.00  0.00    +0.000 F 
ATOM     33  C   UNL     1      -2.112  11.750  18.584  0.00  0.00    +0.000 A 
ATOM     34  C   UNL     1      -2.105  11.486  19.962  0.00  0.00    +0.000 A 
BRANCH  33  35
ATOM     35  C   UNL     1      -3.197  11.191  17.724  0.00  0.00    +0.000 C 
ATOM     36  N   UNL     1      -4.130  11.912  17.183  0.00  0.00    +0.000 NA
ATOM     37  N   UNL     1      -3.258   9.857  17.439  0.00  0.00    +0.000 N 
ATOM     38  H   UNL     1      -4.022  12.904  17.433  0.00  0.00    +0.000 HD
ATOM     39  H   UNL     1      -3.109   9.236  18.225  0.00  0.00    +0.000 HD
ATOM     40  H   UNL     1      -4.136   9.652  16.969  0.00  0.00    +0.000 HD
ENDBRANCH  33  35
ENDBRANCH  25  28
ENDBRANCH   1  26
TORSDOF 7
ENDMDL
MODEL 6
REMARK VINA RESULT:      -9.2      1.683      2.178
REMARK  Name = 
REMARK  8 active torsions:
REMARK  status: ('A' for Active; 'I' for Inactive)
REMARK    1  A    between atoms: C_1  and  C_2
REMARK    2  A    between atoms: C_2  and  C_25
REMARK    3  A    between atoms: C_3  and  C_5
REMARK    4  A    between atoms: N_7  and  C_8
REMARK    5  A    between atoms: C_11  and  C_12
REMARK    6  A    between atoms: C_17  and  S_18
REMARK    7  A    between atoms: S_18  and  N_19
REMARK    8  A    between atoms: C_30  and  C_31
REMARK                            x       y       z     vdW  Elec       q    Type
REMARK                         _______ _______ _______ _____ _____    ______ ____
ROOT
ATOM      1  C   UNL     1       2.235   5.173  19.016  0.00  0.00    +0.000 C 
ATOM      2  O   UNL     1       1.572   5.236  17.986  0.00  0.00    +0.000 OA
ATOM      3  N   UNL     1       2.525   6.242  19.854  0.00  0.00    +0.000 N 
ATOM      4  H   UNL     1       3.204   6.115  20.595  0.00  0.00    +0.000 HD
ENDROOT
BRANCH   3   5
ATOM      5  C   UNL     1       2.033   7.552  19.632  0.00  0.00    +0.000 A 
ATOM      6  C   UNL     1       2.229   8.203  18.425  0.00  0.00    +0.000 A 
ATOM      7  C   UNL     1       1.897   9.544  18.260  0.00  0.00    +0.000 A 
ATOM      8  C   UNL     1       1.213  10.285  19.217  0.00  0.00    +0.000 A 
ATOM      9  C   UNL     1       0.934   9.582  20.417  0.00  0.00    +0.000 A 
ATOM     10  C   UNL     1       1.363   8.255  20.626  0.00  0.00    +0.000 A 
ATOM     11  F   UNL     1       1.167   7.692  21.828  0.00  0.00    +0.000 F 
BRANCH   8  12
ATOM     12  C   UNL     1       0.896  11.740  19.025  0.00  0.00    +0.000 A 
ATOM     13  C   UNL     1       1.940  12.664  19.300  0.00  0.00    +0.000 A 
ATOM     14  C   UNL     1       1.798  14.048  19.157  0.00  0.00    +0.000 A 
ATOM     15  C   UNL     1       0.604  14.575  18.703  0.00  0.00    +0.000 A 
ATOM     16  C   UNL     1      -0.444  13.718  18.394  0.00  0.00    +0.000 A 
ATOM     17  C   UNL     1      -0.321  12.318  18.549  0.00  0.00    +0.000 A 
BRANCH  17  18
ATOM     18  S   UNL     1      -1.789  11.382  18.146  0.00  0.00    +0.000 S 
ATOM     19  O   UNL     1      -1.440   9.996  17.942  0.00  0.00    +0.000 OA
ATOM     20  O   UNL     1      -2.874  11.815  18.999  0.00  0.00    +0.000 OA
BRANCH  18  21
ATOM     21  N   UNL     1      -2.246  11.855  16.591  0.00  0.00    +0.000 NA
ATOM     22  H   UNL     1      -3.265  11.809  16.557  0.00  0.00    +0.000 HD
ATOM     23  H   UNL     1      -1.881  12.790  16.410  0.00  0.00    +0.000 HD
ENDBRANCH  18  21
ENDBRANCH  17  18
ENDBRANCH   8  12
ENDBRANCH   3   5
BRANCH   1  26
ATOM     24  C   UNL     1       4.496   2.035  19.401  0.00  0.00    +0.000 C 
ATOM     25  C   UNL     1       4.023   3.431  19.133  0.00  0.00    +0.000 C 
ATOM     26  C   UNL     1       2.784   3.863  19.449  0.00  0.00    +0.000 C 
ATOM     27  F   UNL     1       1.916   3.058  20.105  0.00  0.00    +0.000 F 
BRANCH  25  28
ATOM     28  C   UNL     1       5.048   4.282  18.484  0.00  0.00    +0.000 A 
ATOM     29  C   UNL     1       5.777   5.204  19.248  0.00  0.00    +0.000 A 
ATOM     30  C   UNL     1       6.802   5.945  18.658  0.00  0.00    +0.000 A 
ATOM     31  C   UNL     1       7.098   5.766  17.308  0.00  0.00    +0.000 A 
ATOM     32  F   UNL     1       8.127   6.457  16.793  0.00  0.00    +0.000 F 
ATOM     33  C   UNL     1       6.363   4.876  16.520  0.00  0.00    +0.000 A 
ATOM     34  C   UNL     1       5.324   4.146  17.115  0.00  0.00    +0.000 A 
BRANCH  33  35
ATOM     35  C   UNL     1       6.712   4.643  15.087  0.00  0.00    +0.000 C 
ATOM     36  N   UNL     1       7.454   5.444  14.386  0.00  0.00    +0.000 NA
ATOM     37  N   UNL     1       6.272   3.533  14.424  0.00  0.00    +0.000 N 
ATOM     38  H   UNL     1       7.754   6.252  14.946  0.00  0.00    +0.000 HD
ATOM     39  H   UNL     1       5.297   3.297  14.567  0.00  0.00    +0.000 HD
ATOM     40  H   UNL     1       6.486   3.625  13.434  0.00  0.00    +0.000 HD
ENDBRANCH  33  35
ENDBRANCH  25  28
ENDBRANCH   1  26
TORSDOF 7
ENDMDL
MODEL 7
REMARK VINA RESULT:      -9.2      1.263      1.640
REMARK  Name = 
REMARK  8 active torsions:
REMARK  status: ('A' for Active; 'I' for Inactive)
REMARK    1  A    between atoms: C_1  and  C_2
REMARK    2  A    between atoms: C_2  and  C_25
REMARK    3  A    between atoms: C_3  and  C_5
REMARK    4  A    between atoms: N_7  and  C_8
REMARK    5  A    between atoms: C_11  and  C_12
REMARK    6  A    between atoms: C_17  and  S_18
REMARK    7  A    between atoms: S_18  and  N_19
REMARK    8  A    between atoms: C_30  and  C_31
REMARK                            x       y       z     vdW  Elec       q    Type
REMARK                         _______ _______ _______ _____ _____    ______ ____
ROOT
ATOM      1  C   UNL     1       2.231   4.946  19.627  0.00  0.00    +0.000 C 
ATOM      2  O   UNL     1       1.311   4.835  18.822  0.00  0.00    +0.000 OA
ATOM      3  N   UNL     1       2.711   6.142  20.141  0.00  0.00    +0.000 N 
ATOM      4  H   UNL     1       3.569   6.136  20.680  0.00  0.00    +0.000 HD
ENDROOT
BRANCH   3   5
ATOM      5  C   UNL     1       2.144   7.401  19.824  0.00  0.00    +0.000 A 
ATOM      6  C   UNL     1       2.316   7.977  18.576  0.00  0.00    +0.000 A 
ATOM      7  C   UNL     1       1.906   9.281  18.314  0.00  0.00    +0.000 A 
ATOM      8  C   UNL     1       1.167  10.045  19.212  0.00  0.00    +0.000 A 
ATOM      9  C   UNL     1       0.915   9.410  20.455  0.00  0.00    +0.000 A 
ATOM     10  C   UNL     1       1.420   8.130  20.760  0.00  0.00    +0.000 A 
ATOM     11  F   UNL     1       1.243   7.641  21.998  0.00  0.00    +0.000 F 
BRANCH   8  12
ATOM     12  C   UNL     1       0.766  11.461  18.914  0.00  0.00    +0.000 A 
ATOM     13  C   UNL     1       1.757  12.460  19.109  0.00  0.00    +0.000 A 
ATOM     14  C   UNL     1       1.535  13.819  18.864  0.00  0.00    +0.000 A 
ATOM     15  C   UNL     1       0.309  14.242  18.385  0.00  0.00    +0.000 A 
ATOM     16  C   UNL     1      -0.690  13.306  18.153  0.00  0.00    +0.000 A 
ATOM     17  C   UNL     1      -0.485  11.931  18.410  0.00  0.00    +0.000 A 
BRANCH  17  18
ATOM     18  S   UNL     1      -1.900  10.885  18.094  0.00  0.00    +0.000 S 
ATOM     19  O   UNL     1      -2.028   9.910  19.150  0.00  0.00    +0.000 OA
ATOM     20  O   UNL     1      -2.997  11.703  17.626  0.00  0.00    +0.000 OA
BRANCH  18  21
ATOM     21  N   UNL     1      -1.491   9.914  16.775  0.00  0.00    +0.000 NA
ATOM     22  H   UNL     1      -1.561   8.946  17.090  0.00  0.00    +0.000 HD
ATOM     23  H   UNL     1      -2.119  10.129  15.999  0.00  0.00    +0.000 HD
ENDBRANCH  18  21
ENDBRANCH  17  18
ENDBRANCH   8  12
ENDBRANCH   3   5
BRANCH   1  26
ATOM     24  C   UNL     1       4.547   1.839  19.927  0.00  0.00    +0.000 C 
ATOM     25  C   UNL     1       3.991   3.173  19.537  0.00  0.00    +0.000 C 
ATOM     26  C   UNL     1       2.910   3.723  20.128  0.00  0.00    +0.000 C 
ATOM     27  F   UNL     1       2.309   3.114  21.176  0.00  0.00    +0.000 F 
BRANCH  25  28
ATOM     28  C   UNL     1       4.743   3.822  18.436  0.00  0.00    +0.000 A 
ATOM     29  C   UNL     1       4.425   3.528  17.103  0.00  0.00    +0.000 A 
ATOM     30  C   UNL     1       5.071   4.201  16.066  0.00  0.00    +0.000 A 
ATOM     31  C   UNL     1       6.031   5.167  16.358  0.00  0.00    +0.000 A 
ATOM     32  F   UNL     1       6.588   5.831  15.333  0.00  0.00    +0.000 F 
ATOM     33  C   UNL     1       6.387   5.455  17.679  0.00  0.00    +0.000 A 
ATOM     34  C   UNL     1       5.745   4.762  18.717  0.00  0.00    +0.000 A 
BRANCH  33  35
ATOM     35  C   UNL     1       7.376   6.526  17.997  0.00  0.00    +0.000 C 
ATOM     36  N   UNL     1       8.199   6.472  19.000  0.00  0.00    +0.000 NA
ATOM     37  N   UNL     1       7.486   7.643  17.220  0.00  0.00    +0.000 N 
ATOM     38  H   UNL     1       8.068   5.606  19.538  0.00  0.00    +0.000 HD
ATOM     39  H   UNL     1       6.609   8.075  16.951  0.00  0.00    +0.000 HD
ATOM     40  H   UNL     1       8.101   8.312  17.674  0.00  0.00    +0.000 HD
ENDBRANCH  33  35
ENDBRANCH  25  28
ENDBRANCH   1  26
TORSDOF 7
ENDMDL
MODEL 8
REMARK VINA RESULT:      -9.2      3.559      8.755
REMARK  Name = 
REMARK  8 active torsions:
REMARK  status: ('A' for Active; 'I' for Inactive)
REMARK    1  A    between atoms: C_1  and  C_2
REMARK    2  A    between atoms: C_2  and  C_25
REMARK    3  A    between atoms: C_3  and  C_5
REMARK    4  A    between atoms: N_7  and  C_8
REMARK    5  A    between atoms: C_11  and  C_12
REMARK    6  A    between atoms: C_17  and  S_18
REMARK    7  A    between atoms: S_18  and  N_19
REMARK    8  A    between atoms: C_30  and  C_31
REMARK                            x       y       z     vdW  Elec       q    Type
REMARK                         _______ _______ _______ _____ _____    ______ ____
ROOT
ATOM      1  C   UNL     1       0.889   9.442  22.033  0.00  0.00    +0.000 C 
ATOM      2  O   UNL     1       2.063   9.665  22.312  0.00  0.00    +0.000 OA
ATOM      3  N   UNL     1       0.447   8.644  20.986  0.00  0.00    +0.000 N 
ATOM      4  H   UNL     1      -0.538   8.646  20.749  0.00  0.00    +0.000 HD
ENDROOT
BRANCH   3   5
ATOM      5  C   UNL     1       1.328   7.939  20.129  0.00  0.00    +0.000 A 
ATOM      6  C   UNL     1       1.833   6.697  20.476  0.00  0.00    +0.000 A 
ATOM      7  C   UNL     1       2.824   6.078  19.720  0.00  0.00    +0.000 A 
ATOM      8  C   UNL     1       3.271   6.568  18.498  0.00  0.00    +0.000 A 
ATOM      9  C   UNL     1       2.680   7.796  18.106  0.00  0.00    +0.000 A 
ATOM     10  C   UNL     1       1.752   8.477  18.920  0.00  0.00    +0.000 A 
ATOM     11  F   UNL     1       1.324   9.691  18.540  0.00  0.00    +0.000 F 
BRANCH   8  12
ATOM     12  C   UNL     1       4.365   5.896  17.719  0.00  0.00    +0.000 A 
ATOM     13  C   UNL     1       5.397   6.731  17.215  0.00  0.00    +0.000 A 
ATOM     14  C   UNL     1       6.486   6.249  16.481  0.00  0.00    +0.000 A 
ATOM     15  C   UNL     1       6.608   4.895  16.238  0.00  0.00    +0.000 A 
ATOM     16  C   UNL     1       5.641   4.026  16.729  0.00  0.00    +0.000 A 
ATOM     17  C   UNL     1       4.527   4.500  17.458  0.00  0.00    +0.000 A 
BRANCH  17  18
ATOM     18  S   UNL     1       3.366   3.240  17.967  0.00  0.00    +0.000 S 
ATOM     19  O   UNL     1       3.343   3.155  19.408  0.00  0.00    +0.000 OA
ATOM     20  O   UNL     1       2.174   3.340  17.154  0.00  0.00    +0.000 OA
BRANCH  18  21
ATOM     21  N   UNL     1       4.054   1.757  17.545  0.00  0.00    +0.000 NA
ATOM     22  H   UNL     1       4.884   1.966  16.989  0.00  0.00    +0.000 HD
ATOM     23  H   UNL     1       4.264   1.236  18.397  0.00  0.00    +0.000 HD
ENDBRANCH  18  21
ENDBRANCH  17  18
ENDBRANCH   8  12
ENDBRANCH   3   5
BRANCH   1  26
ATOM     24  C   UNL     1      -1.781  11.881  23.456  0.00  0.00    +0.000 C 
ATOM     25  C   UNL     1      -0.847  11.171  22.526  0.00  0.00    +0.000 C 
ATOM     26  C   UNL     1      -0.183  10.046  22.865  0.00  0.00    +0.000 C 
ATOM     27  F   UNL     1      -0.392   9.453  24.063  0.00  0.00    +0.000 F 
BRANCH  25  28
ATOM     28  C   UNL     1      -0.723  11.829  21.204  0.00  0.00    +0.000 A 
ATOM     29  C   UNL     1       0.126  12.933  21.049  0.00  0.00    +0.000 A 
ATOM     30  C   UNL     1       0.312  13.501  19.788  0.00  0.00    +0.000 A 
ATOM     31  C   UNL     1      -0.349  12.967  18.684  0.00  0.00    +0.000 A 
ATOM     32  F   UNL     1      -0.100  13.507  17.480  0.00  0.00    +0.000 F 
ATOM     33  C   UNL     1      -1.226  11.887  18.820  0.00  0.00    +0.000 A 
ATOM     34  C   UNL     1      -1.420  11.331  20.093  0.00  0.00    +0.000 A 
BRANCH  33  35
ATOM     35  C   UNL     1      -1.894  11.280  17.631  0.00  0.00    +0.000 C 
ATOM     36  N   UNL     1      -1.505  10.176  17.071  0.00  0.00    +0.000 NA
ATOM     37  N   UNL     1      -2.994  11.859  17.065  0.00  0.00    +0.000 N 
ATOM     38  H   UNL     1      -0.679   9.791  17.548  0.00  0.00    +0.000 HD
ATOM     39  H   UNL     1      -2.940  12.862  16.934  0.00  0.00    +0.000 HD
ATOM     40  H   UNL     1      -3.213  11.386  16.192  0.00  0.00    +0.000 HD
ENDBRANCH  33  35
ENDBRANCH  25  28
ENDBRANCH   1  26
TORSDOF 7
ENDMDL
MODEL 9
REMARK VINA RESULT:      -9.2      3.563      8.850
REMARK  Name = 
REMARK  8 active torsions:
REMARK  status: ('A' for Active; 'I' for Inactive)
REMARK    1  A    between atoms: C_1  and  C_2
REMARK    2  A    between atoms: C_2  and  C_25
REMARK    3  A    between atoms: C_3  and  C_5
REMARK    4  A    between atoms: N_7  and  C_8
REMARK    5  A    between atoms: C_11  and  C_12
REMARK    6  A    between atoms: C_17  and  S_18
REMARK    7  A    between atoms: S_18  and  N_19
REMARK    8  A    between atoms: C_30  and  C_31
REMARK                            x       y       z     vdW  Elec       q    Type
REMARK                         _______ _______ _______ _____ _____    ______ ____
ROOT
ATOM      1  C   UNL     1       0.830   9.595  21.931  0.00  0.00    +0.000 C 
ATOM      2  O   UNL     1       1.979   9.909  22.227  0.00  0.00    +0.000 OA
ATOM      3  N   UNL     1       0.469   8.748  20.892  0.00  0.00    +0.000 N 
ATOM      4  H   UNL     1      -0.509   8.673  20.637  0.00  0.00    +0.000 HD
ENDROOT
BRANCH   3   5
ATOM      5  C   UNL     1       1.416   8.095  20.065  0.00  0.00    +0.000 A 
ATOM      6  C   UNL     1       1.790   8.622  18.839  0.00  0.00    +0.000 A 
ATOM      7  C   UNL     1       2.587   7.905  17.953  0.00  0.00    +0.000 A 
ATOM      8  C   UNL     1       3.190   6.694  18.275  0.00  0.00    +0.000 A 
ATOM      9  C   UNL     1       2.875   6.206  19.568  0.00  0.00    +0.000 A 
ATOM     10  C   UNL     1       1.984   6.880  20.428  0.00  0.00    +0.000 A 
ATOM     11  F   UNL     1       1.640   6.301  21.590  0.00  0.00    +0.000 F 
BRANCH   8  12
ATOM     12  C   UNL     1       4.020   5.927  17.286  0.00  0.00    +0.000 A 
ATOM     13  C   UNL     1       4.737   6.690  16.325  0.00  0.00    +0.000 A 
ATOM     14  C   UNL     1       5.558   6.117  15.349  0.00  0.00    +0.000 A 
ATOM     15  C   UNL     1       5.724   4.746  15.304  0.00  0.00    +0.000 A 
ATOM     16  C   UNL     1       5.066   3.952  16.234  0.00  0.00    +0.000 A 
ATOM     17  C   UNL     1       4.220   4.514  17.216  0.00  0.00    +0.000 A 
BRANCH  17  18
ATOM     18  S   UNL     1       3.425   3.331  18.296  0.00  0.00    +0.000 S 
ATOM     19  O   UNL     1       4.015   3.403  19.612  0.00  0.00    +0.000 OA
ATOM     20  O   UNL     1       2.000   3.357  18.056  0.00  0.00    +0.000 OA
BRANCH  18  21
ATOM     21  N   UNL     1       3.923   1.803  17.778  0.00  0.00    +0.000 NA
ATOM     22  H   UNL     1       4.059   1.864  16.769  0.00  0.00    +0.000 HD
ATOM     23  H   UNL     1       4.772   1.543  18.282  0.00  0.00    +0.000 HD
ENDBRANCH  18  21
ENDBRANCH  17  18
ENDBRANCH   8  12
ENDBRANCH   3   5
BRANCH   1  26
ATOM     24  C   UNL     1      -2.026  11.865  23.272  0.00  0.00    +0.000 C 
ATOM     25  C   UNL     1      -1.024  11.212  22.370  0.00  0.00    +0.000 C 
ATOM     26  C   UNL     1      -0.300  10.133  22.731  0.00  0.00    +0.000 C 
ATOM     27  F   UNL     1      -0.503   9.531  23.926  0.00  0.00    +0.000 F 
BRANCH  25  28
ATOM     28  C   UNL     1      -0.907  11.873  21.049  0.00  0.00    +0.000 A 
ATOM     29  C   UNL     1      -0.026  12.950  20.881  0.00  0.00    +0.000 A 
ATOM     30  C   UNL     1       0.151  13.518  19.619  0.00  0.00    +0.000 A 
ATOM     31  C   UNL     1      -0.549  13.012  18.526  0.00  0.00    +0.000 A 
ATOM     32  F   UNL     1      -0.308  13.550  17.320  0.00  0.00    +0.000 F 
ATOM     33  C   UNL     1      -1.457  11.960  18.676  0.00  0.00    +0.000 A 
ATOM     34  C   UNL     1      -1.643  11.403  19.951  0.00  0.00    +0.000 A 
BRANCH  33  35
ATOM     35  C   UNL     1      -2.170  11.380  17.499  0.00  0.00    +0.000 C 
ATOM     36  N   UNL     1      -1.711  10.393  16.793  0.00  0.00    +0.000 NA
ATOM     37  N   UNL     1      -3.385  11.859  17.101  0.00  0.00    +0.000 N 
ATOM     38  H   UNL     1      -0.799  10.078  17.148  0.00  0.00    +0.000 HD
ATOM     39  H   UNL     1      -3.468  12.869  17.071  0.00  0.00    +0.000 HD
ATOM     40  H   UNL     1      -3.637  11.443  16.209  0.00  0.00    +0.000 HD
ENDBRANCH  33  35
ENDBRANCH  25  28
ENDBRANCH   1  26
TORSDOF 7
ENDMDL
