MODEL 1
REMARK VINA RESULT:      -7.7      0.000      0.000
REMARK  Name = 
REMARK  10 active torsions:
REMARK  status: ('A' for Active; 'I' for Inactive)
REMARK    1  A    between atoms: C_1  and  C_2
REMARK    2  A    between atoms: C_2  and  C_3
REMARK    3  A    between atoms: C_2  and  C_4
REMARK    4  A    between atoms: C_4  and  C_5
REMARK    5  A    between atoms: C_7  and  C_8
REMARK    6  A    between atoms: N_10  and  C_11
REMARK    7  A    between atoms: C_11  and  C_12
REMARK    8  A    between atoms: C_11  and  C_16
REMARK    9  A    between atoms: C_12  and  C_13
REMARK   10  A    between atoms: C_13  and  O_15
REMARK                            x       y       z     vdW  Elec       q    Type
REMARK                         _______ _______ _______ _____ _____    ______ ____
ROOT
ATOM      1  C   UNL     1       6.597   4.390  16.318  0.00  0.00    +0.000 C 
ATOM      2  O   UNL     1       7.568   4.432  17.065  0.00  0.00    +0.000 OA
ATOM      3  N   UNL     1       5.293   4.347  16.753  0.00  0.00    +0.000 N 
ATOM      4  H   UNL     1       4.563   4.404  16.045  0.00  0.00    +0.000 HD
ENDROOT
BRANCH   1   7
ATOM      5  C   UNL     1       6.347   3.608  12.720  0.00  0.00    +0.000 A 
ATOM      6  C   UNL     1       6.066   3.574  14.064  0.00  0.00    +0.000 A 
ATOM      7  C   UNL     1       6.772   4.468  14.838  0.00  0.00    +0.000 A 
ATOM      8  N   UNL     1       7.668   5.359  14.357  0.00  0.00    +0.000 NA
ATOM      9  C   UNL     1       7.826   5.346  13.036  0.00  0.00    +0.000 A 
ATOM     10  N   UNL     1       8.655   6.293  12.471  0.00  0.00    +0.000 N 
ATOM     11  N   UNL     1       7.207   4.506  12.197  0.00  0.00    +0.000 NA
ATOM     12  H   UNL     1       8.709   7.113  13.056  0.00  0.00    +0.000 HD
ATOM     13  H   UNL     1       8.394   6.434  11.503  0.00  0.00    +0.000 HD
BRANCH   5  14
ATOM     14  C   UNL     1       5.761   2.579  11.784  0.00  0.00    +0.000 C 
BRANCH  14  16
ATOM     15  C   UNL     1       5.922   0.135  11.108  0.00  0.00    +0.000 C 
ATOM     16  C   UNL     1       6.700   1.411  11.434  0.00  0.00    +0.000 C 
ATOM     17  C   UNL     1       7.590   1.790  10.248  0.00  0.00    +0.000 C 
ENDBRANCH  14  16
ENDBRANCH   5  14
ENDBRANCH   1   7
BRANCH   3  18
ATOM     18  C   UNL     1       4.912   4.366  18.163  0.00  0.00    +0.000 C 
BRANCH  18  19
ATOM     19  C   UNL     1       3.554   3.725  18.407  0.00  0.00    +0.000 A 
ATOM     20  C   UNL     1       2.411   4.202  17.729  0.00  0.00    +0.000 A 
ATOM     21  C   UNL     1       1.158   3.616  17.914  0.00  0.00    +0.000 A 
ATOM     22  C   UNL     1       1.013   2.545  18.786  0.00  0.00    +0.000 A 
ATOM     23  C   UNL     1       2.118   2.068  19.486  0.00  0.00    +0.000 A 
ATOM     24  C   UNL     1       3.378   2.657  19.305  0.00  0.00    +0.000 A 
ATOM     25 CL   UNL     1       4.678   2.015  20.246  0.00  0.00    +0.000 Cl
ENDBRANCH  18  19
BRANCH  18  26
ATOM     26  C   UNL     1       5.051   5.768  18.775  0.00  0.00    +0.000 C 
BRANCH  26  27
ATOM     27  C   UNL     1       4.999   6.881  17.758  0.00  0.00    +0.000 C 
ATOM     28  O   UNL     1       3.978   7.315  17.244  0.00  0.00    +0.000 OA
BRANCH  27  29
ATOM     29  O   UNL     1       6.226   7.321  17.391  0.00  0.00    +0.000 OA
ATOM     30  H   UNL     1       6.248   8.242  17.068  0.00  0.00    +0.000 HD
ENDBRANCH  27  29
ENDBRANCH  26  27
ENDBRANCH  18  26
ENDBRANCH   3  18
TORSDOF 8
ENDMDL
MODEL 2
REMARK VINA RESULT:      -7.6      3.854      5.156
REMARK  Name = 
REMARK  10 active torsions:
REMARK  status: ('A' for Active; 'I' for Inactive)
REMARK    1  A    between atoms: C_1  and  C_2
REMARK    2  A    between atoms: C_2  and  C_3
REMARK    3  A    between atoms: C_2  and  C_4
REMARK    4  A    between atoms: C_4  and  C_5
REMARK    5  A    between atoms: C_7  and  C_8
REMARK    6  A    between atoms: N_10  and  C_11
REMARK    7  A    between atoms: C_11  and  C_12
REMARK    8  A    between atoms: C_11  and  C_16
REMARK    9  A    between atoms: C_12  and  C_13
REMARK   10  A    between atoms: C_13  and  O_15
REMARK                            x       y       z     vdW  Elec       q    Type
REMARK                         _______ _______ _______ _____ _____    ______ ____
ROOT
ATOM      1  C   UNL     1       3.447   5.565  17.834  0.00  0.00    +0.000 C 
ATOM      2  O   UNL     1       2.657   4.688  17.508  0.00  0.00    +0.000 OA
ATOM      3  N   UNL     1       3.255   6.416  18.897  0.00  0.00    +0.000 N 
ATOM      4  H   UNL     1       4.018   7.050  19.131  0.00  0.00    +0.000 HD
ENDROOT
BRANCH   1   7
ATOM      5  C   UNL     1       6.264   4.969  15.525  0.00  0.00    +0.000 A 
ATOM      6  C   UNL     1       5.008   4.866  16.073  0.00  0.00    +0.000 A 
ATOM      7  C   UNL     1       4.750   5.719  17.123  0.00  0.00    +0.000 A 
ATOM      8  N   UNL     1       5.623   6.633  17.600  0.00  0.00    +0.000 NA
ATOM      9  C   UNL     1       6.790   6.689  16.965  0.00  0.00    +0.000 A 
ATOM     10  N   UNL     1       7.691   7.663  17.341  0.00  0.00    +0.000 N 
ATOM     11  N   UNL     1       7.150   5.893  15.950  0.00  0.00    +0.000 NA
ATOM     12  H   UNL     1       7.211   8.452  17.749  0.00  0.00    +0.000 HD
ATOM     13  H   UNL     1       8.322   7.854  16.573  0.00  0.00    +0.000 HD
BRANCH   5  14
ATOM     14  C   UNL     1       6.729   3.989  14.475  0.00  0.00    +0.000 C 
BRANCH  14  16
ATOM     15  C   UNL     1       7.662   5.024  12.350  0.00  0.00    +0.000 C 
ATOM     16  C   UNL     1       6.434   4.407  13.023  0.00  0.00    +0.000 C 
ATOM     17  C   UNL     1       5.956   3.198  12.215  0.00  0.00    +0.000 C 
ENDBRANCH  14  16
ENDBRANCH   5  14
ENDBRANCH   1   7
BRANCH   3  18
ATOM     18  C   UNL     1       2.090   6.359  19.776  0.00  0.00    +0.000 C 
BRANCH  18  19
ATOM     19  C   UNL     1       1.629   7.739  20.222  0.00  0.00    +0.000 A 
ATOM     20  C   UNL     1       1.366   7.994  21.585  0.00  0.00    +0.000 A 
ATOM     21  C   UNL     1       0.967   9.258  22.025  0.00  0.00    +0.000 A 
ATOM     22  C   UNL     1       0.814  10.295  21.115  0.00  0.00    +0.000 A 
ATOM     23  C   UNL     1       1.044  10.066  19.760  0.00  0.00    +0.000 A 
ATOM     24  C   UNL     1       1.442   8.797  19.315  0.00  0.00    +0.000 A 
ATOM     25 CL   UNL     1       1.669   8.608  17.611  0.00  0.00    +0.000 Cl
ENDBRANCH  18  19
BRANCH  18  26
ATOM     26  C   UNL     1       2.297   5.374  20.937  0.00  0.00    +0.000 C 
BRANCH  26  27
ATOM     27  C   UNL     1       1.509   4.096  20.794  0.00  0.00    +0.000 C 
ATOM     28  O   UNL     1       1.456   3.207  21.633  0.00  0.00    +0.000 OA
BRANCH  27  29
ATOM     29  O   UNL     1       0.908   3.975  19.588  0.00  0.00    +0.000 OA
ATOM     30  H   UNL     1       1.518   3.814  18.843  0.00  0.00    +0.000 HD
ENDBRANCH  27  29
ENDBRANCH  26  27
ENDBRANCH  18  26
ENDBRANCH   3  18
TORSDOF 8
ENDMDL
MODEL 3
REMARK VINA RESULT:      -7.6      1.171      1.572
REMARK  Name = 
REMARK  10 active torsions:
REMARK  status: ('A' for Active; 'I' for Inactive)
REMARK    1  A    between atoms: C_1  and  C_2
REMARK    2  A    between atoms: C_2  and  C_3
REMARK    3  A    between atoms: C_2  and  C_4
REMARK    4  A    between atoms: C_4  and  C_5
REMARK    5  A    between atoms: C_7  and  C_8
REMARK    6  A    between atoms: N_10  and  C_11
REMARK    7  A    between atoms: C_11  and  C_12
REMARK    8  A    between atoms: C_11  and  C_16
REMARK    9  A    between atoms: C_12  and  C_13
REMARK   10  A    between atoms: C_13  and  O_15
REMARK                            x       y       z     vdW  Elec       q    Type
REMARK                         _______ _______ _______ _____ _____    ______ ____
ROOT
ATOM      1  C   UNL     1       5.572   5.078  16.198  0.00  0.00    +0.000 C 
ATOM      2  O   UNL     1       4.892   6.068  16.438  0.00  0.00    +0.000 OA
ATOM      3  N   UNL     1       5.794   4.060  17.096  0.00  0.00    +0.000 N 
ATOM      4  H   UNL     1       6.302   3.243  16.760  0.00  0.00    +0.000 HD
ENDROOT
BRANCH   1   7
ATOM      5  C   UNL     1       6.166   3.727  12.815  0.00  0.00    +0.000 A 
ATOM      6  C   UNL     1       5.527   3.972  14.006  0.00  0.00    +0.000 A 
ATOM      7  C   UNL     1       6.157   4.868  14.840  0.00  0.00    +0.000 A 
ATOM      8  N   UNL     1       7.307   5.513  14.545  0.00  0.00    +0.000 NA
ATOM      9  C   UNL     1       7.815   5.247  13.345  0.00  0.00    +0.000 A 
ATOM     10  N   UNL     1       8.936   5.941  12.942  0.00  0.00    +0.000 N 
ATOM     11  N   UNL     1       7.295   4.378  12.468  0.00  0.00    +0.000 NA
ATOM     12  H   UNL     1       8.989   6.834  13.412  0.00  0.00    +0.000 HD
ATOM     13  H   UNL     1       8.983   5.950  11.932  0.00  0.00    +0.000 HD
BRANCH   5  14
ATOM     14  C   UNL     1       5.667   2.652  11.879  0.00  0.00    +0.000 C 
BRANCH  14  16
ATOM     15  C   UNL     1       5.990   0.229  11.187  0.00  0.00    +0.000 C 
ATOM     16  C   UNL     1       6.683   1.537  11.572  0.00  0.00    +0.000 C 
ATOM     17  C   UNL     1       7.619   1.976  10.444  0.00  0.00    +0.000 C 
ENDBRANCH  14  16
ENDBRANCH   5  14
ENDBRANCH   1   7
BRANCH   3  18
ATOM     18  C   UNL     1       5.225   4.033  18.440  0.00  0.00    +0.000 C 
BRANCH  18  19
ATOM     19  C   UNL     1       3.738   3.709  18.437  0.00  0.00    +0.000 A 
ATOM     20  C   UNL     1       2.784   4.750  18.437  0.00  0.00    +0.000 A 
ATOM     21  C   UNL     1       1.415   4.481  18.407  0.00  0.00    +0.000 A 
ATOM     22  C   UNL     1       0.964   3.168  18.385  0.00  0.00    +0.000 A 
ATOM     23  C   UNL     1       1.882   2.121  18.409  0.00  0.00    +0.000 A 
ATOM     24  C   UNL     1       3.258   2.388  18.442  0.00  0.00    +0.000 A 
ATOM     25 CL   UNL     1       4.313   1.019  18.504  0.00  0.00    +0.000 Cl
ENDBRANCH  18  19
BRANCH  18  26
ATOM     26  C   UNL     1       5.578   5.299  19.237  0.00  0.00    +0.000 C 
BRANCH  26  27
ATOM     27  C   UNL     1       7.061   5.553  19.345  0.00  0.00    +0.000 C 
ATOM     28  O   UNL     1       7.766   5.206  20.282  0.00  0.00    +0.000 OA
BRANCH  27  29
ATOM     29  O   UNL     1       7.548   6.291  18.320  0.00  0.00    +0.000 OA
ATOM     30  H   UNL     1       7.085   6.165  17.471  0.00  0.00    +0.000 HD
ENDBRANCH  27  29
ENDBRANCH  26  27
ENDBRANCH  18  26
ENDBRANCH   3  18
TORSDOF 8
ENDMDL
MODEL 4
REMARK VINA RESULT:      -7.5      3.510      4.764
REMARK  Name = 
REMARK  10 active torsions:
REMARK  status: ('A' for Active; 'I' for Inactive)
REMARK    1  A    between atoms: C_1  and  C_2
REMARK    2  A    between atoms: C_2  and  C_3
REMARK    3  A    between atoms: C_2  and  C_4
REMARK    4  A    between atoms: C_4  and  C_5
REMARK    5  A    between atoms: C_7  and  C_8
REMARK    6  A    between atoms: N_10  and  C_11
REMARK    7  A    between atoms: C_11  and  C_12
REMARK    8  A    between atoms: C_11  and  C_16
REMARK    9  A    between atoms: C_12  and  C_13
REMARK   10  A    between atoms: C_13  and  O_15
REMARK                            x       y       z     vdW  Elec       q    Type
REMARK                         _______ _______ _______ _____ _____    ______ ____
ROOT
ATOM      1  C   UNL     1       3.684   4.655  17.671  0.00  0.00    +0.000 C 
ATOM      2  O   UNL     1       2.829   3.871  17.275  0.00  0.00    +0.000 OA
ATOM      3  N   UNL     1       3.513   5.503  18.740  0.00  0.00    +0.000 N 
ATOM      4  H   UNL     1       4.322   6.049  19.036  0.00  0.00    +0.000 HD
ENDROOT
BRANCH   1   7
ATOM      5  C   UNL     1       6.366   4.780  15.139  0.00  0.00    +0.000 A 
ATOM      6  C   UNL     1       5.109   4.877  15.684  0.00  0.00    +0.000 A 
ATOM      7  C   UNL     1       5.039   4.683  17.045  0.00  0.00    +0.000 A 
ATOM      8  N   UNL     1       6.104   4.441  17.841  0.00  0.00    +0.000 NA
ATOM      9  C   UNL     1       7.281   4.421  17.223  0.00  0.00    +0.000 A 
ATOM     10  N   UNL     1       8.417   4.273  17.990  0.00  0.00    +0.000 N 
ATOM     11  N   UNL     1       7.458   4.576  15.905  0.00  0.00    +0.000 NA
ATOM     12  H   UNL     1       8.258   4.607  18.930  0.00  0.00    +0.000 HD
ATOM     13  H   UNL     1       9.211   4.655  17.494  0.00  0.00    +0.000 HD
BRANCH   5  14
ATOM     14  C   UNL     1       6.563   4.817  13.643  0.00  0.00    +0.000 C 
BRANCH  14  16
ATOM     15  C   UNL     1       4.786   3.615  12.280  0.00  0.00    +0.000 C 
ATOM     16  C   UNL     1       6.178   3.521  12.906  0.00  0.00    +0.000 C 
ATOM     17  C   UNL     1       7.211   3.207  11.821  0.00  0.00    +0.000 C 
ENDBRANCH  14  16
ENDBRANCH   5  14
ENDBRANCH   1   7
BRANCH   3  18
ATOM     18  C   UNL     1       2.295   5.554  19.543  0.00  0.00    +0.000 C 
BRANCH  18  19
ATOM     19  C   UNL     1       1.861   6.978  19.854  0.00  0.00    +0.000 A 
ATOM     20  C   UNL     1       1.308   7.295  21.113  0.00  0.00    +0.000 A 
ATOM     21  C   UNL     1       0.926   8.598  21.434  0.00  0.00    +0.000 A 
ATOM     22  C   UNL     1       1.080   9.617  20.503  0.00  0.00    +0.000 A 
ATOM     23  C   UNL     1       1.601   9.330  19.243  0.00  0.00    +0.000 A 
ATOM     24  C   UNL     1       1.983   8.021  18.918  0.00  0.00    +0.000 A 
ATOM     25 CL   UNL     1       2.585   7.763  17.317  0.00  0.00    +0.000 Cl
ENDBRANCH  18  19
BRANCH  18  26
ATOM     26  C   UNL     1       2.392   4.655  20.786  0.00  0.00    +0.000 C 
BRANCH  26  27
ATOM     27  C   UNL     1       1.494   3.444  20.728  0.00  0.00    +0.000 C 
ATOM     28  O   UNL     1       1.224   2.724  21.680  0.00  0.00    +0.000 OA
BRANCH  27  29
ATOM     29  O   UNL     1       1.059   3.165  19.477  0.00  0.00    +0.000 OA
ATOM     30  H   UNL     1       1.768   3.030  18.821  0.00  0.00    +0.000 HD
ENDBRANCH  27  29
ENDBRANCH  26  27
ENDBRANCH  18  26
ENDBRANCH   3  18
TORSDOF 8
ENDMDL
MODEL 5
REMARK VINA RESULT:      -7.5      5.109      8.658
REMARK  Name = 
REMARK  10 active torsions:
REMARK  status: ('A' for Active; 'I' for Inactive)
REMARK    1  A    between atoms: C_1  and  C_2
REMARK    2  A    between atoms: C_2  and  C_3
REMARK    3  A    between atoms: C_2  and  C_4
REMARK    4  A    between atoms: C_4  and  C_5
REMARK    5  A    between atoms: C_7  and  C_8
REMARK    6  A    between atoms: N_10  and  C_11
REMARK    7  A    between atoms: C_11  and  C_12
REMARK    8  A    between atoms: C_11  and  C_16
REMARK    9  A    between atoms: C_12  and  C_13
REMARK   10  A    between atoms: C_13  and  O_15
REMARK                            x       y       z     vdW  Elec       q    Type
REMARK                         _______ _______ _______ _____ _____    ______ ____
ROOT
ATOM      1  C   UNL     1       2.515   8.059  18.055  0.00  0.00    +0.000 C 
ATOM      2  O   UNL     1       2.940   7.998  16.908  0.00  0.00    +0.000 OA
ATOM      3  N   UNL     1       2.614   7.036  18.968  0.00  0.00    +0.000 N 
ATOM      4  H   UNL     1       2.305   7.228  19.920  0.00  0.00    +0.000 HD
ENDROOT
BRANCH   1   7
ATOM      5  C   UNL     1       0.381  10.391  19.961  0.00  0.00    +0.000 A 
ATOM      6  C   UNL     1       0.991   9.216  19.594  0.00  0.00    +0.000 A 
ATOM      7  C   UNL     1       1.912   9.322  18.577  0.00  0.00    +0.000 A 
ATOM      8  N   UNL     1       2.254  10.479  17.968  0.00  0.00    +0.000 NA
ATOM      9  C   UNL     1       1.645  11.566  18.435  0.00  0.00    +0.000 A 
ATOM     10  N   UNL     1       2.016  12.791  17.923  0.00  0.00    +0.000 N 
ATOM     11  N   UNL     1       0.720  11.571  19.404  0.00  0.00    +0.000 NA
ATOM     12  H   UNL     1       2.963  12.758  17.573  0.00  0.00    +0.000 HD
ATOM     13  H   UNL     1       1.798  13.517  18.593  0.00  0.00    +0.000 HD
BRANCH   5  14
ATOM     14  C   UNL     1      -0.758  10.391  20.953  0.00  0.00    +0.000 C 
BRANCH  14  16
ATOM     15  C   UNL     1      -1.476  11.594  23.073  0.00  0.00    +0.000 C 
ATOM     16  C   UNL     1      -0.368  10.792  22.387  0.00  0.00    +0.000 C 
ATOM     17  C   UNL     1      -0.050   9.543  23.213  0.00  0.00    +0.000 C 
ENDBRANCH  14  16
ENDBRANCH   5  14
ENDBRANCH   1   7
BRANCH   3  18
ATOM     18  C   UNL     1       3.259   5.758  18.680  0.00  0.00    +0.000 C 
BRANCH  18  19
ATOM     19  C   UNL     1       2.588   4.593  19.392  0.00  0.00    +0.000 A 
ATOM     20  C   UNL     1       2.343   4.654  20.780  0.00  0.00    +0.000 A 
ATOM     21  C   UNL     1       1.705   3.611  21.454  0.00  0.00    +0.000 A 
ATOM     22  C   UNL     1       1.302   2.479  20.759  0.00  0.00    +0.000 A 
ATOM     23  C   UNL     1       1.551   2.380  19.393  0.00  0.00    +0.000 A 
ATOM     24  C   UNL     1       2.195   3.425  18.714  0.00  0.00    +0.000 A 
ATOM     25 CL   UNL     1       2.489   3.190  17.026  0.00  0.00    +0.000 Cl
ENDBRANCH  18  19
BRANCH  18  26
ATOM     26  C   UNL     1       4.779   5.821  18.900  0.00  0.00    +0.000 C 
BRANCH  26  27
ATOM     27  C   UNL     1       5.544   4.757  18.153  0.00  0.00    +0.000 C 
ATOM     28  O   UNL     1       5.725   4.743  16.943  0.00  0.00    +0.000 OA
BRANCH  27  29
ATOM     29  O   UNL     1       5.960   3.744  18.948  0.00  0.00    +0.000 OA
ATOM     30  H   UNL     1       6.269   2.952  18.470  0.00  0.00    +0.000 HD
ENDBRANCH  27  29
ENDBRANCH  26  27
ENDBRANCH  18  26
ENDBRANCH   3  18
TORSDOF 8
ENDMDL
MODEL 6
REMARK VINA RESULT:      -7.3      6.010      8.559
REMARK  Name = 
REMARK  10 active torsions:
REMARK  status: ('A' for Active; 'I' for Inactive)
REMARK    1  A    between atoms: C_1  and  C_2
REMARK    2  A    between atoms: C_2  and  C_3
REMARK    3  A    between atoms: C_2  and  C_4
REMARK    4  A    between atoms: C_4  and  C_5
REMARK    5  A    between atoms: C_7  and  C_8
REMARK    6  A    between atoms: N_10  and  C_11
REMARK    7  A    between atoms: C_11  and  C_12
REMARK    8  A    between atoms: C_11  and  C_16
REMARK    9  A    between atoms: C_12  and  C_13
REMARK   10  A    between atoms: C_13  and  O_15
REMARK                            x       y       z     vdW  Elec       q    Type
REMARK                         _______ _______ _______ _____ _____    ______ ____
ROOT
ATOM      1  C   UNL     1       1.466   8.714  19.693  0.00  0.00    +0.000 C 
ATOM      2  O   UNL     1       1.442   8.948  20.896  0.00  0.00    +0.000 OA
ATOM      3  N   UNL     1       0.873   9.512  18.743  0.00  0.00    +0.000 N 
ATOM      4  H   UNL     1       1.030   9.269  17.766  0.00  0.00    +0.000 HD
ENDROOT
BRANCH   1   7
ATOM      5  C   UNL     1       2.862   5.318  19.320  0.00  0.00    +0.000 A 
ATOM      6  C   UNL     1       2.050   6.331  19.770  0.00  0.00    +0.000 A 
ATOM      7  C   UNL     1       2.233   7.550  19.159  0.00  0.00    +0.000 A 
ATOM      8  N   UNL     1       3.114   7.783  18.161  0.00  0.00    +0.000 NA
ATOM      9  C   UNL     1       3.812   6.724  17.762  0.00  0.00    +0.000 A 
ATOM     10  N   UNL     1       4.660   6.871  16.684  0.00  0.00    +0.000 N 
ATOM     11  N   UNL     1       3.727   5.501  18.301  0.00  0.00    +0.000 NA
ATOM     12  H   UNL     1       4.348   7.622  16.086  0.00  0.00    +0.000 HD
ATOM     13  H   UNL     1       4.813   5.970  16.250  0.00  0.00    +0.000 HD
BRANCH   5  14
ATOM     14  C   UNL     1       2.872   3.974  20.009  0.00  0.00    +0.000 C 
BRANCH  14  16
ATOM     15  C   UNL     1       0.866   2.603  19.265  0.00  0.00    +0.000 C 
ATOM     16  C   UNL     1       1.484   3.432  20.393  0.00  0.00    +0.000 C 
ATOM     17  C   UNL     1       1.585   2.582  21.662  0.00  0.00    +0.000 C 
ENDBRANCH  14  16
ENDBRANCH   5  14
ENDBRANCH   1   7
BRANCH   3  18
ATOM     18  C   UNL     1       0.161  10.747  19.057  0.00  0.00    +0.000 C 
BRANCH  18  19
ATOM     19  C   UNL     1      -1.236  10.783  18.455  0.00  0.00    +0.000 A 
ATOM     20  C   UNL     1      -1.551   9.974  17.343  0.00  0.00    +0.000 A 
ATOM     21  C   UNL     1      -2.832   9.968  16.787  0.00  0.00    +0.000 A 
ATOM     22  C   UNL     1      -3.826  10.774  17.323  0.00  0.00    +0.000 A 
ATOM     23  C   UNL     1      -3.538  11.601  18.406  0.00  0.00    +0.000 A 
ATOM     24  C   UNL     1      -2.252  11.612  18.964  0.00  0.00    +0.000 A 
ATOM     25 CL   UNL     1      -1.987  12.698  20.284  0.00  0.00    +0.000 Cl
ENDBRANCH  18  19
BRANCH  18  26
ATOM     26  C   UNL     1       1.003  11.992  18.735  0.00  0.00    +0.000 C 
BRANCH  26  27
ATOM     27  C   UNL     1       1.678  12.595  19.941  0.00  0.00    +0.000 C 
ATOM     28  O   UNL     1       2.457  13.538  19.911  0.00  0.00    +0.000 OA
BRANCH  27  29
ATOM     29  O   UNL     1       1.402  11.934  21.090  0.00  0.00    +0.000 OA
ATOM     30  H   UNL     1       1.386  10.962  21.006  0.00  0.00    +0.000 HD
ENDBRANCH  27  29
ENDBRANCH  26  27
ENDBRANCH  18  26
ENDBRANCH   3  18
TORSDOF 8
ENDMDL
MODEL 7
REMARK VINA RESULT:      -7.2      4.624      8.558
REMARK  Name = 
REMARK  10 active torsions:
REMARK  status: ('A' for Active; 'I' for Inactive)
REMARK    1  A    between atoms: C_1  and  C_2
REMARK    2  A    between atoms: C_2  and  C_3
REMARK    3  A    between atoms: C_2  and  C_4
REMARK    4  A    between atoms: C_4  and  C_5
REMARK    5  A    between atoms: C_7  and  C_8
REMARK    6  A    between atoms: N_10  and  C_11
REMARK    7  A    between atoms: C_11  and  C_12
REMARK    8  A    between atoms: C_11  and  C_16
REMARK    9  A    between atoms: C_12  and  C_13
REMARK   10  A    between atoms: C_13  and  O_15
REMARK                            x       y       z     vdW  Elec       q    Type
REMARK                         _______ _______ _______ _____ _____    ______ ____
ROOT
ATOM      1  C   UNL     1       2.574   5.947  19.685  0.00  0.00    +0.000 C 
ATOM      2  O   UNL     1       2.616   5.127  20.595  0.00  0.00    +0.000 OA
ATOM      3  N   UNL     1       3.024   5.704  18.409  0.00  0.00    +0.000 N 
ATOM      4  H   UNL     1       2.859   6.427  17.710  0.00  0.00    +0.000 HD
ENDROOT
BRANCH   1   7
ATOM      5  C   UNL     1       1.502   9.436  19.136  0.00  0.00    +0.000 A 
ATOM      6  C   UNL     1       2.001   8.186  18.858  0.00  0.00    +0.000 A 
ATOM      7  C   UNL     1       1.936   7.281  19.893  0.00  0.00    +0.000 A 
ATOM      8  N   UNL     1       1.403   7.540  21.107  0.00  0.00    +0.000 NA
ATOM      9  C   UNL     1       0.899   8.763  21.255  0.00  0.00    +0.000 A 
ATOM     10  N   UNL     1       0.256   9.063  22.438  0.00  0.00    +0.000 N 
ATOM     11  N   UNL     1       0.929   9.723  20.323  0.00  0.00    +0.000 NA
ATOM     12  H   UNL     1      -0.111   8.225  22.865  0.00  0.00    +0.000 HD
ATOM     13  H   UNL     1      -0.392   9.824  22.285  0.00  0.00    +0.000 HD
BRANCH   5  14
ATOM     14  C   UNL     1       1.653  10.564  18.144  0.00  0.00    +0.000 C 
BRANCH  14  16
ATOM     15  C   UNL     1       2.678  12.889  18.182  0.00  0.00    +0.000 C 
ATOM     16  C   UNL     1       1.592  11.976  18.755  0.00  0.00    +0.000 C 
ATOM     17  C   UNL     1       0.214  12.596  18.510  0.00  0.00    +0.000 C 
ENDBRANCH  14  16
ENDBRANCH   5  14
ENDBRANCH   1   7
BRANCH   3  18
ATOM     18  C   UNL     1       3.589   4.427  17.982  0.00  0.00    +0.000 C 
BRANCH  18  19
ATOM     19  C   UNL     1       4.840   4.598  17.134  0.00  0.00    +0.000 A 
ATOM     20  C   UNL     1       4.803   4.323  15.750  0.00  0.00    +0.000 A 
ATOM     21  C   UNL     1       5.929   4.496  14.943  0.00  0.00    +0.000 A 
ATOM     22  C   UNL     1       7.121   4.942  15.499  0.00  0.00    +0.000 A 
ATOM     23  C   UNL     1       7.194   5.199  16.866  0.00  0.00    +0.000 A 
ATOM     24  C   UNL     1       6.065   5.022  17.679  0.00  0.00    +0.000 A 
ATOM     25 CL   UNL     1       6.268   5.335  19.368  0.00  0.00    +0.000 Cl
ENDBRANCH  18  19
BRANCH  18  26
ATOM     26  C   UNL     1       2.529   3.517  17.340  0.00  0.00    +0.000 C 
BRANCH  26  27
ATOM     27  C   UNL     1       2.044   2.417  18.250  0.00  0.00    +0.000 C 
ATOM     28  O   UNL     1       2.761   1.580  18.783  0.00  0.00    +0.000 OA
BRANCH  27  29
ATOM     29  O   UNL     1       0.697   2.382  18.371  0.00  0.00    +0.000 OA
ATOM     30  H   UNL     1       0.210   2.514  17.535  0.00  0.00    +0.000 HD
ENDBRANCH  27  29
ENDBRANCH  26  27
ENDBRANCH  18  26
ENDBRANCH   3  18
TORSDOF 8
ENDMDL
MODEL 8
REMARK VINA RESULT:      -7.2      4.957      8.477
REMARK  Name = 
REMARK  10 active torsions:
REMARK  status: ('A' for Active; 'I' for Inactive)
REMARK    1  A    between atoms: C_1  and  C_2
REMARK    2  A    between atoms: C_2  and  C_3
REMARK    3  A    between atoms: C_2  and  C_4
REMARK    4  A    between atoms: C_4  and  C_5
REMARK    5  A    between atoms: C_7  and  C_8
REMARK    6  A    between atoms: N_10  and  C_11
REMARK    7  A    between atoms: C_11  and  C_12
REMARK    8  A    between atoms: C_11  and  C_16
REMARK    9  A    between atoms: C_12  and  C_13
REMARK   10  A    between atoms: C_13  and  O_15
REMARK                            x       y       z     vdW  Elec       q    Type
REMARK                         _______ _______ _______ _____ _____    ______ ____
ROOT
ATOM      1  C   UNL     1       2.748   8.056  17.835  0.00  0.00    +0.000 C 
ATOM      2  O   UNL     1       3.239   8.005  16.714  0.00  0.00    +0.000 OA
ATOM      3  N   UNL     1       2.781   7.019  18.737  0.00  0.00    +0.000 N 
ATOM      4  H   UNL     1       2.418   7.201  19.672  0.00  0.00    +0.000 HD
ENDROOT
BRANCH   1   7
ATOM      5  C   UNL     1       0.579  10.389  19.699  0.00  0.00    +0.000 A 
ATOM      6  C   UNL     1       1.202   9.215  19.350  0.00  0.00    +0.000 A 
ATOM      7  C   UNL     1       2.130   9.318  18.338  0.00  0.00    +0.000 A 
ATOM      8  N   UNL     1       2.465  10.472  17.719  0.00  0.00    +0.000 NA
ATOM      9  C   UNL     1       1.844  11.558  18.170  0.00  0.00    +0.000 A 
ATOM     10  N   UNL     1       2.207  12.781  17.646  0.00  0.00    +0.000 N 
ATOM     11  N   UNL     1       0.911  11.566  19.131  0.00  0.00    +0.000 NA
ATOM     12  H   UNL     1       3.157  12.753  17.304  0.00  0.00    +0.000 HD
ATOM     13  H   UNL     1       1.978  13.512  18.306  0.00  0.00    +0.000 HD
BRANCH   5  14
ATOM     14  C   UNL     1      -0.567  10.389  20.682  0.00  0.00    +0.000 C 
BRANCH  14  16
ATOM     15  C   UNL     1      -1.140  11.667  22.803  0.00  0.00    +0.000 C 
ATOM     16  C   UNL     1      -0.170  10.687  22.140  0.00  0.00    +0.000 C 
ATOM     17  C   UNL     1      -0.119   9.387  22.946  0.00  0.00    +0.000 C 
ENDBRANCH  14  16
ENDBRANCH   5  14
ENDBRANCH   1   7
BRANCH   3  18
ATOM     18  C   UNL     1       3.427   5.737  18.469  0.00  0.00    +0.000 C 
BRANCH  18  19
ATOM     19  C   UNL     1       2.498   4.556  18.705  0.00  0.00    +0.000 A 
ATOM     20  C   UNL     1       2.449   3.494  17.777  0.00  0.00    +0.000 A 
ATOM     21  C   UNL     1       1.625   2.386  17.982  0.00  0.00    +0.000 A 
ATOM     22  C   UNL     1       0.824   2.314  19.114  0.00  0.00    +0.000 A 
ATOM     23  C   UNL     1       0.834   3.358  20.035  0.00  0.00    +0.000 A 
ATOM     24  C   UNL     1       1.658   4.474  19.830  0.00  0.00    +0.000 A 
ATOM     25 CL   UNL     1       1.571   5.731  21.015  0.00  0.00    +0.000 Cl
ENDBRANCH  18  19
BRANCH  18  26
ATOM     26  C   UNL     1       4.777   5.613  19.195  0.00  0.00    +0.000 C 
BRANCH  26  27
ATOM     27  C   UNL     1       5.706   4.599  18.575  0.00  0.00    +0.000 C 
ATOM     28  O   UNL     1       6.387   4.789  17.577  0.00  0.00    +0.000 OA
BRANCH  27  29
ATOM     29  O   UNL     1       5.664   3.395  19.191  0.00  0.00    +0.000 OA
ATOM     30  H   UNL     1       6.501   3.124  19.613  0.00  0.00    +0.000 HD
ENDBRANCH  27  29
ENDBRANCH  26  27
ENDBRANCH  18  26
ENDBRANCH   3  18
TORSDOF 8
ENDMDL
MODEL 9
REMARK VINA RESULT:      -7.2      2.074      2.977
REMARK  Name = 
REMARK  10 active torsions:
REMARK  status: ('A' for Active; 'I' for Inactive)
REMARK    1  A    between atoms: C_1  and  C_2
REMARK    2  A    between atoms: C_2  and  C_3
REMARK    3  A    between atoms: C_2  and  C_4
REMARK    4  A    between atoms: C_4  and  C_5
REMARK    5  A    between atoms: C_7  and  C_8
REMARK    6  A    between atoms: N_10  and  C_11
REMARK    7  A    between atoms: C_11  and  C_12
REMARK    8  A    between atoms: C_11  and  C_16
REMARK    9  A    between atoms: C_12  and  C_13
REMARK   10  A    between atoms: C_13  and  O_15
REMARK                            x       y       z     vdW  Elec       q    Type
REMARK                         _______ _______ _______ _____ _____    ______ ____
ROOT
ATOM      1  C   UNL     1       5.839   4.445  16.494  0.00  0.00    +0.000 C 
ATOM      2  O   UNL     1       6.618   4.657  17.415  0.00  0.00    +0.000 OA
ATOM      3  N   UNL     1       4.490   4.233  16.660  0.00  0.00    +0.000 N 
ATOM      4  H   UNL     1       3.922   4.154  15.817  0.00  0.00    +0.000 HD
ENDROOT
BRANCH   1   7
ATOM      5  C   UNL     1       6.205   3.657  12.907  0.00  0.00    +0.000 A 
ATOM      6  C   UNL     1       5.665   3.672  14.170  0.00  0.00    +0.000 A 
ATOM      7  C   UNL     1       6.307   4.484  15.077  0.00  0.00    +0.000 A 
ATOM      8  N   UNL     1       7.379   5.256  14.791  0.00  0.00    +0.000 NA
ATOM      9  C   UNL     1       7.789   5.210  13.526  0.00  0.00    +0.000 A 
ATOM     10  N   UNL     1       8.818   6.045  13.145  0.00  0.00    +0.000 N 
ATOM     11  N   UNL     1       7.250   4.440  12.572  0.00  0.00    +0.000 NA
ATOM     12  H   UNL     1       8.854   6.860  13.740  0.00  0.00    +0.000 HD
ATOM     13  H   UNL     1       8.770   6.205  12.147  0.00  0.00    +0.000 HD
BRANCH   5  14
ATOM     14  C   UNL     1       5.694   2.694  11.862  0.00  0.00    +0.000 C 
BRANCH  14  16
ATOM     15  C   UNL     1       5.889   0.273  11.114  0.00  0.00    +0.000 C 
ATOM     16  C   UNL     1       6.650   1.534  11.526  0.00  0.00    +0.000 C 
ATOM     17  C   UNL     1       7.606   1.950  10.405  0.00  0.00    +0.000 C 
ENDBRANCH  14  16
ENDBRANCH   5  14
ENDBRANCH   1   7
BRANCH   3  18
ATOM     18  C   UNL     1       3.824   4.256  17.959  0.00  0.00    +0.000 C 
BRANCH  18  19
ATOM     19  C   UNL     1       3.274   5.631  18.307  0.00  0.00    +0.000 A 
ATOM     20  C   UNL     1       3.543   6.736  17.471  0.00  0.00    +0.000 A 
ATOM     21  C   UNL     1       3.029   8.003  17.753  0.00  0.00    +0.000 A 
ATOM     22  C   UNL     1       2.241   8.200  18.878  0.00  0.00    +0.000 A 
ATOM     23  C   UNL     1       1.979   7.133  19.735  0.00  0.00    +0.000 A 
ATOM     24  C   UNL     1       2.496   5.860  19.456  0.00  0.00    +0.000 A 
ATOM     25 CL   UNL     1       2.141   4.611  20.598  0.00  0.00    +0.000 Cl
ENDBRANCH  18  19
BRANCH  18  26
ATOM     26  C   UNL     1       4.702   3.646  19.064  0.00  0.00    +0.000 C 
BRANCH  26  27
ATOM     27  C   UNL     1       4.385   2.201  19.360  0.00  0.00    +0.000 C 
ATOM     28  O   UNL     1       3.471   1.565  18.853  0.00  0.00    +0.000 OA
BRANCH  27  29
ATOM     29  O   UNL     1       5.174   1.671  20.323  0.00  0.00    +0.000 OA
ATOM     30  H   UNL     1       5.525   0.784  20.120  0.00  0.00    +0.000 HD
ENDBRANCH  27  29
ENDBRANCH  26  27
ENDBRANCH  18  26
ENDBRANCH   3  18
TORSDOF 8
ENDMDL
