MODEL 1
REMARK VINA RESULT:      -6.5      0.000      0.000
REMARK  Name = 
REMARK  8 active torsions:
REMARK  status: ('A' for Active; 'I' for Inactive)
REMARK    1  A    between atoms: C_2  and  C_3
REMARK    2  A    between atoms: C_3  and  N_4
REMARK    3  A    between atoms: C_8  and  N_9
REMARK    4  A    between atoms: C_10  and  O_12
REMARK    5  A    between atoms: O_12  and  C_13
REMARK    6  A    between atoms: C_13  and  C_14
REMARK    7  A    between atoms: C_13  and  C_15
REMARK    8  A    between atoms: C_13  and  C_16
REMARK                            x       y       z     vdW  Elec       q    Type
REMARK                         _______ _______ _______ _____ _____    ______ ____
ROOT
ATOM      1  N   UNL     1       6.775   6.155  18.084  0.00  0.00    +0.000 NA
ATOM      2  C   UNL     1       6.257   6.946  16.951  0.00  0.00    +0.000 C 
ATOM      3  C   UNL     1       4.921   6.398  16.445  0.00  0.00    +0.000 C 
ATOM      4  C   UNL     1       5.033   4.924  16.071  0.00  0.00    +0.000 C 
ATOM      5  C   UNL     1       5.630   4.112  17.228  0.00  0.00    +0.000 C 
ATOM      6  C   UNL     1       6.958   4.746  17.677  0.00  0.00    +0.000 C 
ENDROOT
BRANCH   5   7
ATOM      7  N   UNL     1       4.689   3.991  18.343  0.00  0.00    +0.000 N 
ATOM      8  C   UNL     1       3.836   2.932  18.414  0.00  0.00    +0.000 C 
ATOM      9  O   UNL     1       3.866   2.005  17.617  0.00  0.00    +0.000 OA
ATOM     10  H   UNL     1       4.544   4.780  18.959  0.00  0.00    +0.000 HD
BRANCH   8  11
ATOM     11  O   UNL     1       2.968   3.042  19.456  0.00  0.00    +0.000 OA
BRANCH  11  12
ATOM     12  C   UNL     1       1.627   3.535  19.169  0.00  0.00    +0.000 C 
ATOM     13  C   UNL     1       1.620   4.408  17.903  0.00  0.00    +0.000 C 
ATOM     14  C   UNL     1       0.726   2.317  18.892  0.00  0.00    +0.000 C 
ATOM     15  C   UNL     1       1.043   4.261  20.391  0.00  0.00    +0.000 C 
ENDBRANCH  11  12
ENDBRANCH   8  11
ENDBRANCH   5   7
BRANCH   1  16
ATOM     16  C   UNL     1       8.053   6.692  18.578  0.00  0.00    +0.000 C 
BRANCH  16  18
ATOM     17  C   UNL     1       8.334   9.286  18.015  0.00  0.00    +0.000 C 
ATOM     18  C   UNL     1       8.184   8.122  18.279  0.00  0.00    +0.000 C 
ENDBRANCH  16  18
ENDBRANCH   1  16
TORSDOF 5
ENDMDL
MODEL 2
REMARK VINA RESULT:      -6.4      0.055      1.045
REMARK  Name = 
REMARK  8 active torsions:
REMARK  status: ('A' for Active; 'I' for Inactive)
REMARK    1  A    between atoms: C_2  and  C_3
REMARK    2  A    between atoms: C_3  and  N_4
REMARK    3  A    between atoms: C_8  and  N_9
REMARK    4  A    between atoms: C_10  and  O_12
REMARK    5  A    between atoms: O_12  and  C_13
REMARK    6  A    between atoms: C_13  and  C_14
REMARK    7  A    between atoms: C_13  and  C_15
REMARK    8  A    between atoms: C_13  and  C_16
REMARK                            x       y       z     vdW  Elec       q    Type
REMARK                         _______ _______ _______ _____ _____    ______ ____
ROOT
ATOM      1  N   UNL     1       6.768   6.173  18.103  0.00  0.00    +0.000 NA
ATOM      2  C   UNL     1       6.238   6.975  16.983  0.00  0.00    +0.000 C 
ATOM      3  C   UNL     1       4.897   6.431  16.487  0.00  0.00    +0.000 C 
ATOM      4  C   UNL     1       5.005   4.959  16.099  0.00  0.00    +0.000 C 
ATOM      5  C   UNL     1       5.615   4.138  17.242  0.00  0.00    +0.000 C 
ATOM      6  C   UNL     1       6.947   4.768  17.682  0.00  0.00    +0.000 C 
ENDROOT
BRANCH   5   7
ATOM      7  N   UNL     1       4.686   4.007  18.366  0.00  0.00    +0.000 N 
ATOM      8  C   UNL     1       3.800   2.974  18.412  0.00  0.00    +0.000 C 
ATOM      9  O   UNL     1       3.788   2.076  17.581  0.00  0.00    +0.000 OA
ATOM     10  H   UNL     1       4.575   4.777  19.012  0.00  0.00    +0.000 HD
BRANCH   8  11
ATOM     11  O   UNL     1       2.950   3.074  19.470  0.00  0.00    +0.000 OA
BRANCH  11  12
ATOM     12  C   UNL     1       1.585   3.509  19.202  0.00  0.00    +0.000 C 
ATOM     13  C   UNL     1       1.045   4.372  20.354  0.00  0.00    +0.000 C 
ATOM     14  C   UNL     1       1.612   4.391  17.940  0.00  0.00    +0.000 C 
ATOM     15  C   UNL     1       0.683   2.304  18.893  0.00  0.00    +0.000 C 
ENDBRANCH  11  12
ENDBRANCH   8  11
ENDBRANCH   5   7
BRANCH   1  16
ATOM     16  C   UNL     1       8.052   6.706  18.589  0.00  0.00    +0.000 C 
BRANCH  16  18
ATOM     17  C   UNL     1       8.340   9.306  18.056  0.00  0.00    +0.000 C 
ATOM     18  C   UNL     1       8.186   8.135  18.285  0.00  0.00    +0.000 C 
ENDBRANCH  16  18
ENDBRANCH   1  16
TORSDOF 5
ENDMDL
MODEL 3
REMARK VINA RESULT:      -6.3      2.782      5.906
REMARK  Name = 
REMARK  8 active torsions:
REMARK  status: ('A' for Active; 'I' for Inactive)
REMARK    1  A    between atoms: C_2  and  C_3
REMARK    2  A    between atoms: C_3  and  N_4
REMARK    3  A    between atoms: C_8  and  N_9
REMARK    4  A    between atoms: C_10  and  O_12
REMARK    5  A    between atoms: O_12  and  C_13
REMARK    6  A    between atoms: C_13  and  C_14
REMARK    7  A    between atoms: C_13  and  C_15
REMARK    8  A    between atoms: C_13  and  C_16
REMARK                            x       y       z     vdW  Elec       q    Type
REMARK                         _______ _______ _______ _____ _____    ______ ____
ROOT
ATOM      1  N   UNL     1       3.244   3.172  18.496  0.00  0.00    +0.000 NA
ATOM      2  C   UNL     1       2.472   4.428  18.426  0.00  0.00    +0.000 C 
ATOM      3  C   UNL     1       3.302   5.567  17.831  0.00  0.00    +0.000 C 
ATOM      4  C   UNL     1       4.600   5.771  18.606  0.00  0.00    +0.000 C 
ATOM      5  C   UNL     1       5.371   4.451  18.734  0.00  0.00    +0.000 C 
ATOM      6  C   UNL     1       4.453   3.366  19.323  0.00  0.00    +0.000 C 
ENDROOT
BRANCH   5   7
ATOM      7  N   UNL     1       5.939   4.034  17.450  0.00  0.00    +0.000 N 
ATOM      8  C   UNL     1       7.061   4.633  16.965  0.00  0.00    +0.000 C 
ATOM      9  O   UNL     1       7.688   5.472  17.596  0.00  0.00    +0.000 OA
ATOM     10  H   UNL     1       5.401   3.434  16.840  0.00  0.00    +0.000 HD
BRANCH   8  11
ATOM     11  O   UNL     1       7.380   4.191  15.718  0.00  0.00    +0.000 OA
BRANCH  11  12
ATOM     12  C   UNL     1       6.700   4.810  14.587  0.00  0.00    +0.000 C 
ATOM     13  C   UNL     1       7.711   5.387  13.583  0.00  0.00    +0.000 C 
ATOM     14  C   UNL     1       5.904   3.712  13.857  0.00  0.00    +0.000 C 
ATOM     15  C   UNL     1       5.685   5.857  15.072  0.00  0.00    +0.000 C 
ENDBRANCH  11  12
ENDBRANCH   8  11
ENDBRANCH   5   7
BRANCH   1  16
ATOM     16  C   UNL     1       2.439   2.074  19.056  0.00  0.00    +0.000 C 
BRANCH  16  18
ATOM     17  C   UNL     1       1.371   2.780  21.398  0.00  0.00    +0.000 C 
ATOM     18  C   UNL     1       1.828   2.456  20.333  0.00  0.00    +0.000 C 
ENDBRANCH  16  18
ENDBRANCH   1  16
TORSDOF 5
ENDMDL
MODEL 4
REMARK VINA RESULT:      -6.3      2.775      5.977
REMARK  Name = 
REMARK  8 active torsions:
REMARK  status: ('A' for Active; 'I' for Inactive)
REMARK    1  A    between atoms: C_2  and  C_3
REMARK    2  A    between atoms: C_3  and  N_4
REMARK    3  A    between atoms: C_8  and  N_9
REMARK    4  A    between atoms: C_10  and  O_12
REMARK    5  A    between atoms: O_12  and  C_13
REMARK    6  A    between atoms: C_13  and  C_14
REMARK    7  A    between atoms: C_13  and  C_15
REMARK    8  A    between atoms: C_13  and  C_16
REMARK                            x       y       z     vdW  Elec       q    Type
REMARK                         _______ _______ _______ _____ _____    ______ ____
ROOT
ATOM      1  N   UNL     1       3.197   3.226  18.439  0.00  0.00    +0.000 NA
ATOM      2  C   UNL     1       2.456   4.502  18.391  0.00  0.00    +0.000 C 
ATOM      3  C   UNL     1       3.321   5.634  17.834  0.00  0.00    +0.000 C 
ATOM      4  C   UNL     1       4.613   5.788  18.629  0.00  0.00    +0.000 C 
ATOM      5  C   UNL     1       5.352   4.447  18.732  0.00  0.00    +0.000 C 
ATOM      6  C   UNL     1       4.401   3.371  19.284  0.00  0.00    +0.000 C 
ENDROOT
BRANCH   5   7
ATOM      7  N   UNL     1       5.924   4.047  17.445  0.00  0.00    +0.000 N 
ATOM      8  C   UNL     1       7.082   4.608  17.002  0.00  0.00    +0.000 C 
ATOM      9  O   UNL     1       7.736   5.394  17.673  0.00  0.00    +0.000 OA
ATOM     10  H   UNL     1       5.370   3.495  16.804  0.00  0.00    +0.000 HD
BRANCH   8  11
ATOM     11  O   UNL     1       7.405   4.195  15.746  0.00  0.00    +0.000 OA
BRANCH  11  12
ATOM     12  C   UNL     1       6.662   4.773  14.632  0.00  0.00    +0.000 C 
ATOM     13  C   UNL     1       5.738   5.903  15.115  0.00  0.00    +0.000 C 
ATOM     14  C   UNL     1       7.681   5.397  13.660  0.00  0.00    +0.000 C 
ATOM     15  C   UNL     1       5.908   3.681  13.859  0.00  0.00    +0.000 C 
ENDBRANCH  11  12
ENDBRANCH   8  11
ENDBRANCH   5   7
BRANCH   1  16
ATOM     16  C   UNL     1       2.359   2.135  18.962  0.00  0.00    +0.000 C 
BRANCH  16  18
ATOM     17  C   UNL     1       1.403   2.730  21.382  0.00  0.00    +0.000 C 
ATOM     18  C   UNL     1       1.851   2.446  20.302  0.00  0.00    +0.000 C 
ENDBRANCH  16  18
ENDBRANCH   1  16
TORSDOF 5
ENDMDL
MODEL 5
REMARK VINA RESULT:      -6.2      1.151      1.604
REMARK  Name = 
REMARK  8 active torsions:
REMARK  status: ('A' for Active; 'I' for Inactive)
REMARK    1  A    between atoms: C_2  and  C_3
REMARK    2  A    between atoms: C_3  and  N_4
REMARK    3  A    between atoms: C_8  and  N_9
REMARK    4  A    between atoms: C_10  and  O_12
REMARK    5  A    between atoms: O_12  and  C_13
REMARK    6  A    between atoms: C_13  and  C_14
REMARK    7  A    between atoms: C_13  and  C_15
REMARK    8  A    between atoms: C_13  and  C_16
REMARK                            x       y       z     vdW  Elec       q    Type
REMARK                         _______ _______ _______ _____ _____    ______ ____
ROOT
ATOM      1  N   UNL     1       6.825   6.239  17.899  0.00  0.00    +0.000 NA
ATOM      2  C   UNL     1       6.590   6.634  16.496  0.00  0.00    +0.000 C 
ATOM      3  C   UNL     1       5.292   6.034  15.952  0.00  0.00    +0.000 C 
ATOM      4  C   UNL     1       5.279   4.515  16.098  0.00  0.00    +0.000 C 
ATOM      5  C   UNL     1       5.586   4.104  17.544  0.00  0.00    +0.000 C 
ATOM      6  C   UNL     1       6.895   4.767  18.006  0.00  0.00    +0.000 C 
ENDROOT
BRANCH   5   7
ATOM      7  N   UNL     1       4.476   4.426  18.442  0.00  0.00    +0.000 N 
ATOM      8  C   UNL     1       4.247   3.674  19.553  0.00  0.00    +0.000 C 
ATOM      9  O   UNL     1       4.986   2.763  19.899  0.00  0.00    +0.000 OA
ATOM     10  H   UNL     1       3.772   5.088  18.145  0.00  0.00    +0.000 HD
BRANCH   8  11
ATOM     11  O   UNL     1       3.115   4.055  20.207  0.00  0.00    +0.000 OA
BRANCH  11  12
ATOM     12  C   UNL     1       2.025   3.090  20.288  0.00  0.00    +0.000 C 
ATOM     13  C   UNL     1       2.001   2.400  21.661  0.00  0.00    +0.000 C 
ATOM     14  C   UNL     1       0.701   3.864  20.139  0.00  0.00    +0.000 C 
ATOM     15  C   UNL     1       2.098   2.090  19.124  0.00  0.00    +0.000 C 
ENDBRANCH  11  12
ENDBRANCH   8  11
ENDBRANCH   5   7
BRANCH   1  16
ATOM     16  C   UNL     1       8.067   6.828  18.425  0.00  0.00    +0.000 C 
BRANCH  16  18
ATOM     17  C   UNL     1       8.225   9.433  17.862  0.00  0.00    +0.000 C 
ATOM     18  C   UNL     1       8.140   8.265  18.137  0.00  0.00    +0.000 C 
ENDBRANCH  16  18
ENDBRANCH   1  16
TORSDOF 5
ENDMDL
MODEL 6
REMARK VINA RESULT:      -6.2      2.783      5.975
REMARK  Name = 
REMARK  8 active torsions:
REMARK  status: ('A' for Active; 'I' for Inactive)
REMARK    1  A    between atoms: C_2  and  C_3
REMARK    2  A    between atoms: C_3  and  N_4
REMARK    3  A    between atoms: C_8  and  N_9
REMARK    4  A    between atoms: C_10  and  O_12
REMARK    5  A    between atoms: O_12  and  C_13
REMARK    6  A    between atoms: C_13  and  C_14
REMARK    7  A    between atoms: C_13  and  C_15
REMARK    8  A    between atoms: C_13  and  C_16
REMARK                            x       y       z     vdW  Elec       q    Type
REMARK                         _______ _______ _______ _____ _____    ______ ____
ROOT
ATOM      1  N   UNL     1       3.261   3.184  18.507  0.00  0.00    +0.000 NA
ATOM      2  C   UNL     1       2.479   4.432  18.405  0.00  0.00    +0.000 C 
ATOM      3  C   UNL     1       3.305   5.565  17.792  0.00  0.00    +0.000 C 
ATOM      4  C   UNL     1       4.595   5.795  18.572  0.00  0.00    +0.000 C 
ATOM      5  C   UNL     1       5.376   4.485  18.732  0.00  0.00    +0.000 C 
ATOM      6  C   UNL     1       4.462   3.405  19.338  0.00  0.00    +0.000 C 
ENDROOT
BRANCH   5   7
ATOM      7  N   UNL     1       5.956   4.045  17.462  0.00  0.00    +0.000 N 
ATOM      8  C   UNL     1       7.071   4.649  16.967  0.00  0.00    +0.000 C 
ATOM      9  O   UNL     1       7.682   5.514  17.580  0.00  0.00    +0.000 OA
ATOM     10  H   UNL     1       5.430   3.422  16.864  0.00  0.00    +0.000 HD
BRANCH   8  11
ATOM     11  O   UNL     1       7.403   4.182  15.732  0.00  0.00    +0.000 OA
BRANCH  11  12
ATOM     12  C   UNL     1       6.706   4.751  14.585  0.00  0.00    +0.000 C 
ATOM     13  C   UNL     1       5.799   3.704  13.916  0.00  0.00    +0.000 C 
ATOM     14  C   UNL     1       5.797   5.883  15.100  0.00  0.00    +0.000 C 
ATOM     15  C   UNL     1       7.704   5.383  13.603  0.00  0.00    +0.000 C 
ENDBRANCH  11  12
ENDBRANCH   8  11
ENDBRANCH   5   7
BRANCH   1  16
ATOM     16  C   UNL     1       2.460   2.092  19.084  0.00  0.00    +0.000 C 
BRANCH  16  18
ATOM     17  C   UNL     1       1.396   2.759  21.439  0.00  0.00    +0.000 C 
ATOM     18  C   UNL     1       1.898   2.470  20.385  0.00  0.00    +0.000 C 
ENDBRANCH  16  18
ENDBRANCH   1  16
TORSDOF 5
ENDMDL
MODEL 7
REMARK VINA RESULT:      -6.2      2.082      3.691
REMARK  Name = 
REMARK  8 active torsions:
REMARK  status: ('A' for Active; 'I' for Inactive)
REMARK    1  A    between atoms: C_2  and  C_3
REMARK    2  A    between atoms: C_3  and  N_4
REMARK    3  A    between atoms: C_8  and  N_9
REMARK    4  A    between atoms: C_10  and  O_12
REMARK    5  A    between atoms: O_12  and  C_13
REMARK    6  A    between atoms: C_13  and  C_14
REMARK    7  A    between atoms: C_13  and  C_15
REMARK    8  A    between atoms: C_13  and  C_16
REMARK                            x       y       z     vdW  Elec       q    Type
REMARK                         _______ _______ _______ _____ _____    ______ ____
ROOT
ATOM      1  N   UNL     1       6.267   4.807  15.782  0.00  0.00    +0.000 NA
ATOM      2  C   UNL     1       7.235   4.570  16.870  0.00  0.00    +0.000 C 
ATOM      3  C   UNL     1       6.552   4.560  18.239  0.00  0.00    +0.000 C 
ATOM      4  C   UNL     1       5.771   5.848  18.478  0.00  0.00    +0.000 C 
ATOM      5  C   UNL     1       4.810   6.127  17.315  0.00  0.00    +0.000 C 
ATOM      6  C   UNL     1       5.582   6.101  15.985  0.00  0.00    +0.000 C 
ENDROOT
BRANCH   5   7
ATOM      7  N   UNL     1       3.691   5.184  17.305  0.00  0.00    +0.000 N 
ATOM      8  C   UNL     1       2.572   5.433  18.039  0.00  0.00    +0.000 C 
ATOM      9  O   UNL     1       2.410   6.471  18.666  0.00  0.00    +0.000 OA
ATOM     10  H   UNL     1       3.818   4.265  16.902  0.00  0.00    +0.000 HD
BRANCH   8  11
ATOM     11  O   UNL     1       1.685   4.402  17.990  0.00  0.00    +0.000 OA
BRANCH  11  12
ATOM     12  C   UNL     1       1.614   3.516  19.146  0.00  0.00    +0.000 C 
ATOM     13  C   UNL     1       0.841   2.230  18.809  0.00  0.00    +0.000 C 
ATOM     14  C   UNL     1       3.052   3.105  19.514  0.00  0.00    +0.000 C 
ATOM     15  C   UNL     1       1.031   4.256  20.360  0.00  0.00    +0.000 C 
ENDBRANCH  11  12
ENDBRANCH   8  11
ENDBRANCH   5   7
BRANCH   1  16
ATOM     16  C   UNL     1       6.924   4.802  14.464  0.00  0.00    +0.000 C 
BRANCH  16  18
ATOM     17  C   UNL     1       5.539   3.363  12.693  0.00  0.00    +0.000 C 
ATOM     18  C   UNL     1       6.177   3.991  13.498  0.00  0.00    +0.000 C 
ENDBRANCH  16  18
ENDBRANCH   1  16
TORSDOF 5
ENDMDL
MODEL 8
REMARK VINA RESULT:      -6.2      2.138      3.752
REMARK  Name = 
REMARK  8 active torsions:
REMARK  status: ('A' for Active; 'I' for Inactive)
REMARK    1  A    between atoms: C_2  and  C_3
REMARK    2  A    between atoms: C_3  and  N_4
REMARK    3  A    between atoms: C_8  and  N_9
REMARK    4  A    between atoms: C_10  and  O_12
REMARK    5  A    between atoms: O_12  and  C_13
REMARK    6  A    between atoms: C_13  and  C_14
REMARK    7  A    between atoms: C_13  and  C_15
REMARK    8  A    between atoms: C_13  and  C_16
REMARK                            x       y       z     vdW  Elec       q    Type
REMARK                         _______ _______ _______ _____ _____    ______ ____
ROOT
ATOM      1  N   UNL     1       6.297   4.776  15.701  0.00  0.00    +0.000 NA
ATOM      2  C   UNL     1       7.248   4.588  16.814  0.00  0.00    +0.000 C 
ATOM      3  C   UNL     1       6.535   4.568  18.167  0.00  0.00    +0.000 C 
ATOM      4  C   UNL     1       5.702   5.829  18.373  0.00  0.00    +0.000 C 
ATOM      5  C   UNL     1       4.757   6.058  17.186  0.00  0.00    +0.000 C 
ATOM      6  C   UNL     1       5.560   6.045  15.873  0.00  0.00    +0.000 C 
ENDROOT
BRANCH   5   7
ATOM      7  N   UNL     1       3.674   5.073  17.162  0.00  0.00    +0.000 N 
ATOM      8  C   UNL     1       2.548   5.268  17.901  0.00  0.00    +0.000 C 
ATOM      9  O   UNL     1       2.347   6.290  18.543  0.00  0.00    +0.000 OA
ATOM     10  H   UNL     1       3.836   4.166  16.745  0.00  0.00    +0.000 HD
BRANCH   8  11
ATOM     11  O   UNL     1       1.701   4.205  17.837  0.00  0.00    +0.000 OA
BRANCH  11  12
ATOM     12  C   UNL     1       2.002   3.050  18.675  0.00  0.00    +0.000 C 
ATOM     13  C   UNL     1       2.610   3.488  20.018  0.00  0.00    +0.000 C 
ATOM     14  C   UNL     1       0.674   2.333  18.983  0.00  0.00    +0.000 C 
ATOM     15  C   UNL     1       2.892   2.050  17.921  0.00  0.00    +0.000 C 
ENDBRANCH  11  12
ENDBRANCH   8  11
ENDBRANCH   5   7
BRANCH   1  16
ATOM     16  C   UNL     1       6.983   4.781  14.399  0.00  0.00    +0.000 C 
BRANCH  16  18
ATOM     17  C   UNL     1       5.644   3.363  12.576  0.00  0.00    +0.000 C 
ATOM     18  C   UNL     1       6.230   4.021  13.395  0.00  0.00    +0.000 C 
ENDBRANCH  16  18
ENDBRANCH   1  16
TORSDOF 5
ENDMDL
MODEL 9
REMARK VINA RESULT:      -6.1      1.154      1.344
REMARK  Name = 
REMARK  8 active torsions:
REMARK  status: ('A' for Active; 'I' for Inactive)
REMARK    1  A    between atoms: C_2  and  C_3
REMARK    2  A    between atoms: C_3  and  N_4
REMARK    3  A    between atoms: C_8  and  N_9
REMARK    4  A    between atoms: C_10  and  O_12
REMARK    5  A    between atoms: O_12  and  C_13
REMARK    6  A    between atoms: C_13  and  C_14
REMARK    7  A    between atoms: C_13  and  C_15
REMARK    8  A    between atoms: C_13  and  C_16
REMARK                            x       y       z     vdW  Elec       q    Type
REMARK                         _______ _______ _______ _____ _____    ______ ____
ROOT
ATOM      1  N   UNL     1       6.814   6.190  17.892  0.00  0.00    +0.000 NA
ATOM      2  C   UNL     1       6.569   6.664  16.515  0.00  0.00    +0.000 C 
ATOM      3  C   UNL     1       5.239   6.141  15.969  0.00  0.00    +0.000 C 
ATOM      4  C   UNL     1       5.171   4.619  16.039  0.00  0.00    +0.000 C 
ATOM      5  C   UNL     1       5.488   4.124  17.457  0.00  0.00    +0.000 C 
ATOM      6  C   UNL     1       6.830   4.714  17.925  0.00  0.00    +0.000 C 
ENDROOT
BRANCH   5   7
ATOM      7  N   UNL     1       4.408   4.442  18.392  0.00  0.00    +0.000 N 
ATOM      8  C   UNL     1       4.241   3.712  19.528  0.00  0.00    +0.000 C 
ATOM      9  O   UNL     1       5.016   2.827  19.864  0.00  0.00    +0.000 OA
ATOM     10  H   UNL     1       3.676   5.081  18.108  0.00  0.00    +0.000 HD
BRANCH   8  11
ATOM     11  O   UNL     1       3.128   4.082  20.219  0.00  0.00    +0.000 OA
BRANCH  11  12
ATOM     12  C   UNL     1       2.019   3.137  20.269  0.00  0.00    +0.000 C 
ATOM     13  C   UNL     1       2.159   2.064  19.178  0.00  0.00    +0.000 C 
ATOM     14  C   UNL     1       2.076   2.418  21.630  0.00  0.00    +0.000 C 
ATOM     15  C   UNL     1       0.674   3.876  20.204  0.00  0.00    +0.000 C 
ENDBRANCH  11  12
ENDBRANCH   8  11
ENDBRANCH   5   7
BRANCH   1  16
ATOM     16  C   UNL     1       8.087   6.706  18.421  0.00  0.00    +0.000 C 
BRANCH  16  18
ATOM     17  C   UNL     1       8.293   9.336  18.009  0.00  0.00    +0.000 C 
ATOM     18  C   UNL     1       8.202   8.155  18.221  0.00  0.00    +0.000 C 
ENDBRANCH  16  18
ENDBRANCH   1  16
TORSDOF 5
ENDMDL
