MODEL 1
REMARK VINA RESULT:      -9.2      0.000      0.000
REMARK  Name = 
REMARK  4 active torsions:
REMARK  status: ('A' for Active; 'I' for Inactive)
REMARK    1  A    between atoms: C_2  and  C_21
REMARK    2  A    between atoms: N_3  and  C_4
REMARK    3  A    between atoms: N_7  and  S_8
REMARK    4  A    between atoms: S_8  and  C_11
REMARK                            x       y       z     vdW  Elec       q    Type
REMARK                         _______ _______ _______ _____ _____    ______ ____
ROOT
ATOM      1  C   UNL     1       8.137   7.164  18.620  0.00  0.00    +0.000 A 
ATOM      2  C   UNL     1       7.985   5.899  19.241  0.00  0.00    +0.000 A 
ATOM      3  N   UNL     1       7.161   5.083  18.578  0.00  0.00    +0.000 NA
ATOM      4  N   UNL     1       6.828   5.808  17.479  0.00  0.00    +0.000 N 
ATOM      5  C   UNL     1       7.352   7.086  17.494  0.00  0.00    +0.000 A 
ENDROOT
BRANCH   1   8
ATOM      6  O   UNL     1       7.766   9.835  17.720  0.00  0.00    +0.000 OA
ATOM      7  C   UNL     1       8.650   9.538  18.520  0.00  0.00    +0.000 C 
ATOM      8  N   UNL     1       8.886   8.262  19.010  0.00  0.00    +0.000 N 
ATOM      9  H   UNL     1       9.636   8.153  19.688  0.00  0.00    +0.000 HD
BRANCH   7  10
ATOM     10  C   UNL     1       9.552  10.613  19.035  0.00  0.00    +0.000 A 
ATOM     11  C   UNL     1      10.447  11.208  18.147  0.00  0.00    +0.000 A 
ATOM     12  C   UNL     1      11.320  12.173  18.631  0.00  0.00    +0.000 A 
ATOM     13  C   UNL     1      11.271  12.513  19.976  0.00  0.00    +0.000 A 
ATOM     14  C   UNL     1      10.339  11.877  20.788  0.00  0.00    +0.000 A 
ATOM     15  N   UNL     1       9.467  10.932  20.355  0.00  0.00    +0.000 NA
ENDBRANCH   7  10
ENDBRANCH   1   8
BRANCH   4  16
ATOM     16  S   UNL     1       5.796   5.227  16.218  0.00  0.00    +0.000 S 
ATOM     17  O   UNL     1       5.485   6.365  15.372  0.00  0.00    +0.000 OA
ATOM     18  O   UNL     1       6.456   4.043  15.699  0.00  0.00    +0.000 OA
BRANCH  16  19
ATOM     19  C   UNL     1       4.299   4.719  16.987  0.00  0.00    +0.000 A 
ATOM     20  C   UNL     1       3.917   3.374  16.915  0.00  0.00    +0.000 A 
ATOM     21  C   UNL     1       2.699   2.990  17.470  0.00  0.00    +0.000 A 
ATOM     22  F   UNL     1       2.313   1.710  17.386  0.00  0.00    +0.000 F 
ATOM     23  C   UNL     1       1.876   3.927  18.089  0.00  0.00    +0.000 A 
ATOM     24  F   UNL     1       0.698   3.553  18.605  0.00  0.00    +0.000 F 
ATOM     25  C   UNL     1       2.259   5.260  18.165  0.00  0.00    +0.000 A 
ATOM     26  C   UNL     1       3.473   5.652  17.604  0.00  0.00    +0.000 A 
ATOM     27  F   UNL     1       3.801   6.947  17.643  0.00  0.00    +0.000 F 
ENDBRANCH  16  19
ENDBRANCH   4  16
TORSDOF 4
ENDMDL
MODEL 2
REMARK VINA RESULT:      -8.8      4.623      7.179
REMARK  Name = 
REMARK  4 active torsions:
REMARK  status: ('A' for Active; 'I' for Inactive)
REMARK    1  A    between atoms: C_2  and  C_21
REMARK    2  A    between atoms: N_3  and  C_4
REMARK    3  A    between atoms: N_7  and  S_8
REMARK    4  A    between atoms: S_8  and  C_11
REMARK                            x       y       z     vdW  Elec       q    Type
REMARK                         _______ _______ _______ _____ _____    ______ ____
ROOT
ATOM      1  C   UNL     1       1.755   5.700  20.504  0.00  0.00    +0.000 A 
ATOM      2  C   UNL     1       1.142   4.431  20.354  0.00  0.00    +0.000 A 
ATOM      3  N   UNL     1       1.932   3.532  19.762  0.00  0.00    +0.000 NA
ATOM      4  N   UNL     1       3.095   4.212  19.586  0.00  0.00    +0.000 N 
ATOM      5  C   UNL     1       3.012   5.536  19.970  0.00  0.00    +0.000 A 
ENDROOT
BRANCH   1   8
ATOM      6  O   UNL     1       1.834   8.270  19.290  0.00  0.00    +0.000 OA
ATOM      7  C   UNL     1       1.338   8.093  20.400  0.00  0.00    +0.000 C 
ATOM      8  N   UNL     1       1.255   6.871  21.051  0.00  0.00    +0.000 N 
ATOM      9  H   UNL     1       0.797   6.855  21.958  0.00  0.00    +0.000 HD
BRANCH   7  10
ATOM     10  C   UNL     1       0.757   9.261  21.129  0.00  0.00    +0.000 A 
ATOM     11  C   UNL     1       0.102   9.029  22.338  0.00  0.00    +0.000 A 
ATOM     12  C   UNL     1      -0.480  10.104  22.995  0.00  0.00    +0.000 A 
ATOM     13  C   UNL     1      -0.389  11.369  22.430  0.00  0.00    +0.000 A 
ATOM     14  C   UNL     1       0.293  11.512  21.227  0.00  0.00    +0.000 A 
ATOM     15  N   UNL     1       0.877  10.489  20.555  0.00  0.00    +0.000 NA
ENDBRANCH   7  10
ENDBRANCH   1   8
BRANCH   4  16
ATOM     16  S   UNL     1       4.518   3.520  18.887  0.00  0.00    +0.000 S 
ATOM     17  O   UNL     1       5.245   2.875  19.966  0.00  0.00    +0.000 OA
ATOM     18  O   UNL     1       4.054   2.783  17.725  0.00  0.00    +0.000 OA
BRANCH  16  19
ATOM     19  C   UNL     1       5.502   4.862  18.319  0.00  0.00    +0.000 A 
ATOM     20  C   UNL     1       6.709   5.147  18.970  0.00  0.00    +0.000 A 
ATOM     21  C   UNL     1       7.452   6.250  18.556  0.00  0.00    +0.000 A 
ATOM     22  F   UNL     1       8.595   6.545  19.187  0.00  0.00    +0.000 F 
ATOM     23  C   UNL     1       7.004   7.053  17.511  0.00  0.00    +0.000 A 
ATOM     24  F   UNL     1       7.715   8.123  17.131  0.00  0.00    +0.000 F 
ATOM     25  C   UNL     1       5.809   6.766  16.863  0.00  0.00    +0.000 A 
ATOM     26  C   UNL     1       5.058   5.669  17.277  0.00  0.00    +0.000 A 
ATOM     27  F   UNL     1       3.887   5.437  16.674  0.00  0.00    +0.000 F 
ENDBRANCH  16  19
ENDBRANCH   4  16
TORSDOF 4
ENDMDL
MODEL 3
REMARK VINA RESULT:      -8.5      1.054      1.807
REMARK  Name = 
REMARK  4 active torsions:
REMARK  status: ('A' for Active; 'I' for Inactive)
REMARK    1  A    between atoms: C_2  and  C_21
REMARK    2  A    between atoms: N_3  and  C_4
REMARK    3  A    between atoms: N_7  and  S_8
REMARK    4  A    between atoms: S_8  and  C_11
REMARK                            x       y       z     vdW  Elec       q    Type
REMARK                         _______ _______ _______ _____ _____    ______ ____
ROOT
ATOM      1  C   UNL     1       7.952   6.961  18.653  0.00  0.00    +0.000 A 
ATOM      2  C   UNL     1       7.977   5.648  19.186  0.00  0.00    +0.000 A 
ATOM      3  N   UNL     1       7.053   4.845  18.651  0.00  0.00    +0.000 NA
ATOM      4  N   UNL     1       6.466   5.633  17.713  0.00  0.00    +0.000 N 
ATOM      5  C   UNL     1       6.941   6.930  17.720  0.00  0.00    +0.000 A 
ENDROOT
BRANCH   1   8
ATOM      6  O   UNL     1       7.573   9.601  17.665  0.00  0.00    +0.000 OA
ATOM      7  C   UNL     1       8.491   9.321  18.433  0.00  0.00    +0.000 C 
ATOM      8  N   UNL     1       8.733   8.062  18.961  0.00  0.00    +0.000 N 
ATOM      9  H   UNL     1       9.514   7.968  19.607  0.00  0.00    +0.000 HD
BRANCH   7  10
ATOM     10  C   UNL     1       9.432  10.401  18.860  0.00  0.00    +0.000 A 
ATOM     11  C   UNL     1      10.266  10.972  17.899  0.00  0.00    +0.000 A 
ATOM     12  C   UNL     1      11.174  11.942  18.298  0.00  0.00    +0.000 A 
ATOM     13  C   UNL     1      11.221  12.310  19.637  0.00  0.00    +0.000 A 
ATOM     14  C   UNL     1      10.345  11.698  20.526  0.00  0.00    +0.000 A 
ATOM     15  N   UNL     1       9.442  10.750  20.175  0.00  0.00    +0.000 NA
ENDBRANCH   7  10
ENDBRANCH   1   8
BRANCH   4  16
ATOM     16  S   UNL     1       5.202   5.098  16.661  0.00  0.00    +0.000 S 
ATOM     17  O   UNL     1       4.938   6.185  15.735  0.00  0.00    +0.000 OA
ATOM     18  O   UNL     1       5.615   3.784  16.203  0.00  0.00    +0.000 OA
BRANCH  16  19
ATOM     19  C   UNL     1       3.768   4.897  17.658  0.00  0.00    +0.000 A 
ATOM     20  C   UNL     1       3.588   5.728  18.771  0.00  0.00    +0.000 A 
ATOM     21  C   UNL     1       2.484   5.522  19.594  0.00  0.00    +0.000 A 
ATOM     22  F   UNL     1       2.316   6.297  20.673  0.00  0.00    +0.000 F 
ATOM     23  C   UNL     1       1.573   4.508  19.314  0.00  0.00    +0.000 A 
ATOM     24  F   UNL     1       0.523   4.303  20.120  0.00  0.00    +0.000 F 
ATOM     25  C   UNL     1       1.749   3.686  18.206  0.00  0.00    +0.000 A 
ATOM     26  C   UNL     1       2.856   3.883  17.384  0.00  0.00    +0.000 A 
ATOM     27  F   UNL     1       3.037   3.051  16.353  0.00  0.00    +0.000 F 
ENDBRANCH  16  19
ENDBRANCH   4  16
TORSDOF 4
ENDMDL
MODEL 4
REMARK VINA RESULT:      -8.3      1.006      1.982
REMARK  Name = 
REMARK  4 active torsions:
REMARK  status: ('A' for Active; 'I' for Inactive)
REMARK    1  A    between atoms: C_2  and  C_21
REMARK    2  A    between atoms: N_3  and  C_4
REMARK    3  A    between atoms: N_7  and  S_8
REMARK    4  A    between atoms: S_8  and  C_11
REMARK                            x       y       z     vdW  Elec       q    Type
REMARK                         _______ _______ _______ _____ _____    ______ ____
ROOT
ATOM      1  C   UNL     1       8.088   7.079  18.625  0.00  0.00    +0.000 A 
ATOM      2  C   UNL     1       8.107   5.770  19.168  0.00  0.00    +0.000 A 
ATOM      3  N   UNL     1       7.233   4.946  18.584  0.00  0.00    +0.000 NA
ATOM      4  N   UNL     1       6.689   5.716  17.606  0.00  0.00    +0.000 N 
ATOM      5  C   UNL     1       7.137   7.022  17.633  0.00  0.00    +0.000 A 
ENDROOT
BRANCH   1   8
ATOM      6  O   UNL     1       7.720   9.705  17.596  0.00  0.00    +0.000 OA
ATOM      7  C   UNL     1       8.594   9.448  18.421  0.00  0.00    +0.000 C 
ATOM      8  N   UNL     1       8.828   8.197  18.973  0.00  0.00    +0.000 N 
ATOM      9  H   UNL     1       9.570   8.123  19.665  0.00  0.00    +0.000 HD
BRANCH   7  10
ATOM     10  C   UNL     1       9.487  10.549  18.897  0.00  0.00    +0.000 A 
ATOM     11  C   UNL     1       9.559  10.797  20.267  0.00  0.00    +0.000 A 
ATOM     12  C   UNL     1      10.349  11.849  20.711  0.00  0.00    +0.000 A 
ATOM     13  C   UNL     1      11.039  12.613  19.779  0.00  0.00    +0.000 A 
ATOM     14  C   UNL     1      10.918  12.288  18.433  0.00  0.00    +0.000 A 
ATOM     15  N   UNL     1      10.161  11.268  17.959  0.00  0.00    +0.000 NA
ENDBRANCH   7  10
ENDBRANCH   1   8
BRANCH   4  16
ATOM     16  S   UNL     1       5.501   5.150  16.483  0.00  0.00    +0.000 S 
ATOM     17  O   UNL     1       5.229   6.247  15.571  0.00  0.00    +0.000 OA
ATOM     18  O   UNL     1       5.997   3.869  16.015  0.00  0.00    +0.000 OA
BRANCH  16  19
ATOM     19  C   UNL     1       4.034   4.858  17.407  0.00  0.00    +0.000 A 
ATOM     20  C   UNL     1       3.486   5.900  18.165  0.00  0.00    +0.000 A 
ATOM     21  C   UNL     1       2.361   5.644  18.945  0.00  0.00    +0.000 A 
ATOM     22  F   UNL     1       1.842   6.628  19.691  0.00  0.00    +0.000 F 
ATOM     23  C   UNL     1       1.789   4.375  18.968  0.00  0.00    +0.000 A 
ATOM     24  F   UNL     1       0.719   4.132  19.735  0.00  0.00    +0.000 F 
ATOM     25  C   UNL     1       2.331   3.343  18.211  0.00  0.00    +0.000 A 
ATOM     26  C   UNL     1       3.461   3.591  17.436  0.00  0.00    +0.000 A 
ATOM     27  F   UNL     1       3.998   2.574  16.753  0.00  0.00    +0.000 F 
ENDBRANCH  16  19
ENDBRANCH   4  16
TORSDOF 4
ENDMDL
MODEL 5
REMARK VINA RESULT:      -8.2      5.298      7.082
REMARK  Name = 
REMARK  4 active torsions:
REMARK  status: ('A' for Active; 'I' for Inactive)
REMARK    1  A    between atoms: C_2  and  C_21
REMARK    2  A    between atoms: N_3  and  C_4
REMARK    3  A    between atoms: N_7  and  S_8
REMARK    4  A    between atoms: S_8  and  C_11
REMARK                            x       y       z     vdW  Elec       q    Type
REMARK                         _______ _______ _______ _____ _____    ______ ____
ROOT
ATOM      1  C   UNL     1       1.720   5.214  20.687  0.00  0.00    +0.000 A 
ATOM      2  C   UNL     1       2.074   4.053  21.417  0.00  0.00    +0.000 A 
ATOM      3  N   UNL     1       2.563   3.076  20.648  0.00  0.00    +0.000 NA
ATOM      4  N   UNL     1       2.586   3.639  19.412  0.00  0.00    +0.000 N 
ATOM      5  C   UNL     1       2.037   4.906  19.384  0.00  0.00    +0.000 A 
ENDROOT
BRANCH   1   8
ATOM      6  O   UNL     1       2.303   7.792  19.636  0.00  0.00    +0.000 OA
ATOM      7  C   UNL     1       1.516   7.633  20.566  0.00  0.00    +0.000 C 
ATOM      8  N   UNL     1       1.177   6.410  21.125  0.00  0.00    +0.000 N 
ATOM      9  H   UNL     1       0.493   6.414  21.878  0.00  0.00    +0.000 HD
BRANCH   7  10
ATOM     10  C   UNL     1       0.846   8.831  21.160  0.00  0.00    +0.000 A 
ATOM     11  C   UNL     1       0.176   8.682  22.374  0.00  0.00    +0.000 A 
ATOM     12  C   UNL     1      -0.488   9.778  22.905  0.00  0.00    +0.000 A 
ATOM     13  C   UNL     1      -0.461  10.983  22.214  0.00  0.00    +0.000 A 
ATOM     14  C   UNL     1       0.241  11.045  21.016  0.00  0.00    +0.000 A 
ATOM     15  N   UNL     1       0.904   9.999  20.464  0.00  0.00    +0.000 NA
ENDBRANCH   7  10
ENDBRANCH   1   8
BRANCH   4  16
ATOM     16  S   UNL     1       3.174   2.835  17.998  0.00  0.00    +0.000 S 
ATOM     17  O   UNL     1       3.710   1.558  18.434  0.00  0.00    +0.000 OA
ATOM     18  O   UNL     1       2.095   2.924  17.031  0.00  0.00    +0.000 OA
BRANCH  16  19
ATOM     19  C   UNL     1       4.520   3.793  17.397  0.00  0.00    +0.000 A 
ATOM     20  C   UNL     1       4.606   4.065  16.026  0.00  0.00    +0.000 A 
ATOM     21  C   UNL     1       5.708   4.769  15.547  0.00  0.00    +0.000 A 
ATOM     22  F   UNL     1       5.810   5.014  14.235  0.00  0.00    +0.000 F 
ATOM     23  C   UNL     1       6.706   5.197  16.418  0.00  0.00    +0.000 A 
ATOM     24  F   UNL     1       7.772   5.858  15.948  0.00  0.00    +0.000 F 
ATOM     25  C   UNL     1       6.617   4.931  17.779  0.00  0.00    +0.000 A 
ATOM     26  C   UNL     1       5.521   4.221  18.262  0.00  0.00    +0.000 A 
ATOM     27  F   UNL     1       5.478   3.930  19.567  0.00  0.00    +0.000 F 
ENDBRANCH  16  19
ENDBRANCH   4  16
TORSDOF 4
ENDMDL
MODEL 6
REMARK VINA RESULT:      -8.1      5.196      7.142
REMARK  Name = 
REMARK  4 active torsions:
REMARK  status: ('A' for Active; 'I' for Inactive)
REMARK    1  A    between atoms: C_2  and  C_21
REMARK    2  A    between atoms: N_3  and  C_4
REMARK    3  A    between atoms: N_7  and  S_8
REMARK    4  A    between atoms: S_8  and  C_11
REMARK                            x       y       z     vdW  Elec       q    Type
REMARK                         _______ _______ _______ _____ _____    ______ ____
ROOT
ATOM      1  C   UNL     1       2.604   7.347  19.260  0.00  0.00    +0.000 A 
ATOM      2  C   UNL     1       3.009   7.747  17.962  0.00  0.00    +0.000 A 
ATOM      3  N   UNL     1       3.769   6.839  17.345  0.00  0.00    +0.000 NA
ATOM      4  N   UNL     1       3.801   5.810  18.231  0.00  0.00    +0.000 N 
ATOM      5  C   UNL     1       3.157   6.098  19.418  0.00  0.00    +0.000 A 
ENDROOT
BRANCH   1   8
ATOM      6  O   UNL     1       1.029   9.665  18.773  0.00  0.00    +0.000 OA
ATOM      7  C   UNL     1       1.095   9.147  19.886  0.00  0.00    +0.000 C 
ATOM      8  N   UNL     1       1.833   8.015  20.197  0.00  0.00    +0.000 N 
ATOM      9  H   UNL     1       1.783   7.673  21.153  0.00  0.00    +0.000 HD
BRANCH   7  10
ATOM     10  C   UNL     1       0.322   9.753  21.013  0.00  0.00    +0.000 A 
ATOM     11  C   UNL     1       0.313   9.092  22.241  0.00  0.00    +0.000 A 
ATOM     12  C   UNL     1      -0.441   9.625  23.277  0.00  0.00    +0.000 A 
ATOM     13  C   UNL     1      -1.157  10.794  23.058  0.00  0.00    +0.000 A 
ATOM     14  C   UNL     1      -1.082  11.393  21.805  0.00  0.00    +0.000 A 
ATOM     15  N   UNL     1      -0.355  10.907  20.769  0.00  0.00    +0.000 NA
ENDBRANCH   7  10
ENDBRANCH   1   8
BRANCH   4  16
ATOM     16  S   UNL     1       4.623   4.316  17.942  0.00  0.00    +0.000 S 
ATOM     17  O   UNL     1       5.588   4.153  19.015  0.00  0.00    +0.000 OA
ATOM     18  O   UNL     1       3.573   3.343  17.701  0.00  0.00    +0.000 OA
BRANCH  16  19
ATOM     19  C   UNL     1       5.526   4.518  16.447  0.00  0.00    +0.000 A 
ATOM     20  C   UNL     1       4.984   4.033  15.251  0.00  0.00    +0.000 A 
ATOM     21  C   UNL     1       5.733   4.139  14.082  0.00  0.00    +0.000 A 
ATOM     22  F   UNL     1       5.233   3.656  12.937  0.00  0.00    +0.000 F 
ATOM     23  C   UNL     1       6.998   4.720  14.101  0.00  0.00    +0.000 A 
ATOM     24  F   UNL     1       7.719   4.802  12.976  0.00  0.00    +0.000 F 
ATOM     25  C   UNL     1       7.532   5.206  15.288  0.00  0.00    +0.000 A 
ATOM     26  C   UNL     1       6.791   5.096  16.462  0.00  0.00    +0.000 A 
ATOM     27  F   UNL     1       7.342   5.524  17.603  0.00  0.00    +0.000 F 
ENDBRANCH  16  19
ENDBRANCH   4  16
TORSDOF 4
ENDMDL
MODEL 7
REMARK VINA RESULT:      -8.1      1.738      1.886
REMARK  Name = 
REMARK  4 active torsions:
REMARK  status: ('A' for Active; 'I' for Inactive)
REMARK    1  A    between atoms: C_2  and  C_21
REMARK    2  A    between atoms: N_3  and  C_4
REMARK    3  A    between atoms: N_7  and  S_8
REMARK    4  A    between atoms: S_8  and  C_11
REMARK                            x       y       z     vdW  Elec       q    Type
REMARK                         _______ _______ _______ _____ _____    ______ ____
ROOT
ATOM      1  C   UNL     1       7.962   8.246  17.810  0.00  0.00    +0.000 A 
ATOM      2  C   UNL     1       8.306   7.267  18.775  0.00  0.00    +0.000 A 
ATOM      3  N   UNL     1       7.554   6.166  18.698  0.00  0.00    +0.000 NA
ATOM      4  N   UNL     1       6.757   6.410  17.627  0.00  0.00    +0.000 N 
ATOM      5  C   UNL     1       6.933   7.674  17.097  0.00  0.00    +0.000 A 
ENDROOT
BRANCH   1   8
ATOM      6  O   UNL     1       9.146   9.922  19.778  0.00  0.00    +0.000 OA
ATOM      7  C   UNL     1       9.053  10.268  18.603  0.00  0.00    +0.000 C 
ATOM      8  N   UNL     1       8.497   9.504  17.588  0.00  0.00    +0.000 N 
ATOM      9  H   UNL     1       8.503   9.897  16.650  0.00  0.00    +0.000 HD
BRANCH   7  10
ATOM     10  C   UNL     1       9.580  11.607  18.198  0.00  0.00    +0.000 A 
ATOM     11  C   UNL     1      10.872  11.680  17.676  0.00  0.00    +0.000 A 
ATOM     12  C   UNL     1      11.384  12.926  17.343  0.00  0.00    +0.000 A 
ATOM     13  C   UNL     1      10.596  14.053  17.539  0.00  0.00    +0.000 A 
ATOM     14  C   UNL     1       9.316  13.887  18.054  0.00  0.00    +0.000 A 
ATOM     15  N   UNL     1       8.777  12.689  18.389  0.00  0.00    +0.000 NA
ENDBRANCH   7  10
ENDBRANCH   1   8
BRANCH   4  16
ATOM     16  S   UNL     1       5.585   5.290  17.022  0.00  0.00    +0.000 S 
ATOM     17  O   UNL     1       5.008   5.888  15.832  0.00  0.00    +0.000 OA
ATOM     18  O   UNL     1       6.266   4.009  16.984  0.00  0.00    +0.000 OA
BRANCH  16  19
ATOM     19  C   UNL     1       4.312   5.191  18.232  0.00  0.00    +0.000 A 
ATOM     20  C   UNL     1       4.081   3.973  18.881  0.00  0.00    +0.000 A 
ATOM     21  C   UNL     1       3.030   3.884  19.790  0.00  0.00    +0.000 A 
ATOM     22  F   UNL     1       2.786   2.717  20.399  0.00  0.00    +0.000 F 
ATOM     23  C   UNL     1       2.225   4.989  20.051  0.00  0.00    +0.000 A 
ATOM     24  F   UNL     1       1.205   4.891  20.913  0.00  0.00    +0.000 F 
ATOM     25  C   UNL     1       2.459   6.199  19.410  0.00  0.00    +0.000 A 
ATOM     26  C   UNL     1       3.504   6.292  18.494  0.00  0.00    +0.000 A 
ATOM     27  F   UNL     1       3.682   7.450  17.849  0.00  0.00    +0.000 F 
ENDBRANCH  16  19
ENDBRANCH   4  16
TORSDOF 4
ENDMDL
MODEL 8
REMARK VINA RESULT:      -8.0      1.776      2.031
REMARK  Name = 
REMARK  4 active torsions:
REMARK  status: ('A' for Active; 'I' for Inactive)
REMARK    1  A    between atoms: C_2  and  C_21
REMARK    2  A    between atoms: N_3  and  C_4
REMARK    3  A    between atoms: N_7  and  S_8
REMARK    4  A    between atoms: S_8  and  C_11
REMARK                            x       y       z     vdW  Elec       q    Type
REMARK                         _______ _______ _______ _____ _____    ______ ____
ROOT
ATOM      1  C   UNL     1       7.843   6.698  18.631  0.00  0.00    +0.000 A 
ATOM      2  C   UNL     1       8.158   5.330  18.823  0.00  0.00    +0.000 A 
ATOM      3  N   UNL     1       7.193   4.504  18.408  0.00  0.00    +0.000 NA
ATOM      4  N   UNL     1       6.270   5.349  17.881  0.00  0.00    +0.000 N 
ATOM      5  C   UNL     1       6.599   6.681  18.044  0.00  0.00    +0.000 A 
ENDROOT
BRANCH   1   8
ATOM      6  O   UNL     1       7.598   9.235  17.370  0.00  0.00    +0.000 OA
ATOM      7  C   UNL     1       8.404   9.036  18.276  0.00  0.00    +0.000 C 
ATOM      8  N   UNL     1       8.575   7.832  18.942  0.00  0.00    +0.000 N 
ATOM      9  H   UNL     1       9.261   7.806  19.692  0.00  0.00    +0.000 HD
BRANCH   7  10
ATOM     10  C   UNL     1       9.277  10.162  18.728  0.00  0.00    +0.000 A 
ATOM     11  C   UNL     1       9.305  10.474  20.087  0.00  0.00    +0.000 A 
ATOM     12  C   UNL     1      10.077  11.549  20.506  0.00  0.00    +0.000 A 
ATOM     13  C   UNL     1      10.795  12.272  19.562  0.00  0.00    +0.000 A 
ATOM     14  C   UNL     1      10.718  11.884  18.230  0.00  0.00    +0.000 A 
ATOM     15  N   UNL     1       9.979  10.840  17.780  0.00  0.00    +0.000 NA
ENDBRANCH   7  10
ENDBRANCH   1   8
BRANCH   4  16
ATOM     16  S   UNL     1       4.796   4.826  17.142  0.00  0.00    +0.000 S 
ATOM     17  O   UNL     1       4.097   6.022  16.707  0.00  0.00    +0.000 OA
ATOM     18  O   UNL     1       5.184   3.783  16.211  0.00  0.00    +0.000 OA
BRANCH  16  19
ATOM     19  C   UNL     1       3.832   4.086  18.413  0.00  0.00    +0.000 A 
ATOM     20  C   UNL     1       4.467   3.297  19.380  0.00  0.00    +0.000 A 
ATOM     21  C   UNL     1       3.690   2.661  20.345  0.00  0.00    +0.000 A 
ATOM     22  F   UNL     1       4.286   1.886  21.260  0.00  0.00    +0.000 F 
ATOM     23  C   UNL     1       2.306   2.809  20.350  0.00  0.00    +0.000 A 
ATOM     24  F   UNL     1       1.564   2.180  21.270  0.00  0.00    +0.000 F 
ATOM     25  C   UNL     1       1.678   3.597  19.393  0.00  0.00    +0.000 A 
ATOM     26  C   UNL     1       2.449   4.229  18.420  0.00  0.00    +0.000 A 
ATOM     27  F   UNL     1       1.822   4.942  17.478  0.00  0.00    +0.000 F 
ENDBRANCH  16  19
ENDBRANCH   4  16
TORSDOF 4
ENDMDL
MODEL 9
REMARK VINA RESULT:      -7.9      5.359      7.458
REMARK  Name = 
REMARK  4 active torsions:
REMARK  status: ('A' for Active; 'I' for Inactive)
REMARK    1  A    between atoms: C_2  and  C_21
REMARK    2  A    between atoms: N_3  and  C_4
REMARK    3  A    between atoms: N_7  and  S_8
REMARK    4  A    between atoms: S_8  and  C_11
REMARK                            x       y       z     vdW  Elec       q    Type
REMARK                         _______ _______ _______ _____ _____    ______ ____
ROOT
ATOM      1  C   UNL     1       1.981   8.100  19.393  0.00  0.00    +0.000 A 
ATOM      2  C   UNL     1       2.532   8.431  18.130  0.00  0.00    +0.000 A 
ATOM      3  N   UNL     1       3.218   7.428  17.576  0.00  0.00    +0.000 NA
ATOM      4  N   UNL     1       3.053   6.413  18.464  0.00  0.00    +0.000 N 
ATOM      5  C   UNL     1       2.360   6.793  19.597  0.00  0.00    +0.000 A 
ENDROOT
BRANCH   1   8
ATOM      6  O   UNL     1      -0.026   9.974  18.654  0.00  0.00    +0.000 OA
ATOM      7  C   UNL     1       0.270   9.771  19.829  0.00  0.00    +0.000 C 
ATOM      8  N   UNL     1       1.230   8.869  20.265  0.00  0.00    +0.000 N 
ATOM      9  H   UNL     1       1.363   8.778  21.269  0.00  0.00    +0.000 HD
BRANCH   7  10
ATOM     10  C   UNL     1      -0.448  10.529  20.898  0.00  0.00    +0.000 A 
ATOM     11  C   UNL     1      -0.397  10.042  22.204  0.00  0.00    +0.000 A 
ATOM     12  C   UNL     1      -1.101  10.715  23.192  0.00  0.00    +0.000 A 
ATOM     13  C   UNL     1      -1.827  11.849  22.849  0.00  0.00    +0.000 A 
ATOM     14  C   UNL     1      -1.812  12.271  21.525  0.00  0.00    +0.000 A 
ATOM     15  N   UNL     1      -1.136  11.644  20.531  0.00  0.00    +0.000 NA
ENDBRANCH   7  10
ENDBRANCH   1   8
BRANCH   4  16
ATOM     16  S   UNL     1       3.701   4.825  18.243  0.00  0.00    +0.000 S 
ATOM     17  O   UNL     1       4.380   4.473  19.478  0.00  0.00    +0.000 OA
ATOM     18  O   UNL     1       2.602   4.033  17.720  0.00  0.00    +0.000 OA
BRANCH  16  19
ATOM     19  C   UNL     1       4.924   4.950  16.987  0.00  0.00    +0.000 A 
ATOM     20  C   UNL     1       4.717   4.296  15.765  0.00  0.00    +0.000 A 
ATOM     21  C   UNL     1       5.718   4.346  14.799  0.00  0.00    +0.000 A 
ATOM     22  F   UNL     1       5.540   3.705  13.636  0.00  0.00    +0.000 F 
ATOM     23  C   UNL     1       6.903   5.036  15.041  0.00  0.00    +0.000 A 
ATOM     24  F   UNL     1       7.869   5.063  14.114  0.00  0.00    +0.000 F 
ATOM     25  C   UNL     1       7.104   5.688  16.251  0.00  0.00    +0.000 A 
ATOM     26  C   UNL     1       6.110   5.635  17.225  0.00  0.00    +0.000 A 
ATOM     27  F   UNL     1       6.343   6.226  18.402  0.00  0.00    +0.000 F 
ENDBRANCH  16  19
ENDBRANCH   4  16
TORSDOF 4
ENDMDL
