MODEL 1
REMARK VINA RESULT:      -7.4      0.000      0.000
REMARK  Name = 
REMARK  2 active torsions:
REMARK  status: ('A' for Active; 'I' for Inactive)
REMARK    1  A    between atoms: C_1  and  C_2
REMARK    2  A    between atoms: C_14  and  C_16
REMARK                            x       y       z     vdW  Elec       q    Type
REMARK                         _______ _______ _______ _____ _____    ______ ____
ROOT
ATOM      1  C   UNL     1       1.249  10.456  18.645  0.00  0.00    +0.000 C 
ATOM      2  C   UNL     1       1.441   8.944  18.750  0.00  0.00    +0.000 C 
ATOM      3  C   UNL     1       1.539   8.488  20.222  0.00  0.00    +0.000 C 
ATOM      4  C   UNL     1       1.600   6.952  20.343  0.00  0.00    +0.000 C 
ATOM      5  C   UNL     1       2.569   6.387  19.345  0.00  0.00    +0.000 A 
ATOM      6  C   UNL     1       3.045   7.086  18.257  0.00  0.00    +0.000 A 
ATOM      7  C   UNL     1       3.894   6.228  17.532  0.00  0.00    +0.000 A 
ATOM      8  C   UNL     1       4.683   6.437  16.382  0.00  0.00    +0.000 A 
ATOM      9  C   UNL     1       5.462   5.403  15.870  0.00  0.00    +0.000 A 
ATOM     10  C   UNL     1       5.459   4.167  16.500  0.00  0.00    +0.000 A 
ATOM     11  C   UNL     1       4.686   3.932  17.647  0.00  0.00    +0.000 A 
ATOM     12  C   UNL     1       3.880   4.974  18.167  0.00  0.00    +0.000 A 
ATOM     13  N   UNL     1       3.030   5.072  19.292  0.00  0.00    +0.000 N 
ATOM     14  C   UNL     1       2.667   4.069  20.229  0.00  0.00    +0.000 C 
ATOM     15  O   UNL     1       2.348   4.402  21.366  0.00  0.00    +0.000 OA
ATOM     16  C   UNL     1       2.701   8.511  17.973  0.00  0.00    +0.000 C 
ENDROOT
BRANCH  14  17
ATOM     17  C   UNL     1       2.665   2.661  19.710  0.00  0.00    +0.000 C 
ATOM     18 CL   UNL     1       1.160   2.348  18.796  0.00  0.00    +0.000 Cl
ENDBRANCH  14  17
TORSDOF 1
ENDMDL
MODEL 2
REMARK VINA RESULT:      -7.0      2.444      3.877
REMARK  Name = 
REMARK  2 active torsions:
REMARK  status: ('A' for Active; 'I' for Inactive)
REMARK    1  A    between atoms: C_1  and  C_2
REMARK    2  A    between atoms: C_14  and  C_16
REMARK                            x       y       z     vdW  Elec       q    Type
REMARK                         _______ _______ _______ _____ _____    ______ ____
ROOT
ATOM      1  C   UNL     1       0.597   9.706  19.967  0.00  0.00    +0.000 C 
ATOM      2  C   UNL     1       1.739   8.764  19.593  0.00  0.00    +0.000 C 
ATOM      3  C   UNL     1       1.951   8.712  18.064  0.00  0.00    +0.000 C 
ATOM      4  C   UNL     1       3.184   7.868  17.684  0.00  0.00    +0.000 C 
ATOM      5  C   UNL     1       3.195   6.582  18.458  0.00  0.00    +0.000 A 
ATOM      6  C   UNL     1       2.436   6.358  19.586  0.00  0.00    +0.000 A 
ATOM      7  C   UNL     1       2.735   5.066  20.058  0.00  0.00    +0.000 A 
ATOM      8  C   UNL     1       2.215   4.312  21.129  0.00  0.00    +0.000 A 
ATOM      9  C   UNL     1       2.683   3.023  21.371  0.00  0.00    +0.000 A 
ATOM     10  C   UNL     1       3.663   2.485  20.550  0.00  0.00    +0.000 A 
ATOM     11  C   UNL     1       4.196   3.212  19.475  0.00  0.00    +0.000 A 
ATOM     12  C   UNL     1       3.736   4.529  19.230  0.00  0.00    +0.000 A 
ATOM     13  N   UNL     1       4.037   5.492  18.240  0.00  0.00    +0.000 N 
ATOM     14  C   UNL     1       4.999   5.433  17.198  0.00  0.00    +0.000 C 
ATOM     15  O   UNL     1       4.811   6.084  16.175  0.00  0.00    +0.000 OA
ATOM     16  C   UNL     1       1.464   7.347  20.139  0.00  0.00    +0.000 C 
ENDROOT
BRANCH  14  17
ATOM     17  C   UNL     1       6.210   4.589  17.473  0.00  0.00    +0.000 C 
ATOM     18 CL   UNL     1       7.473   5.574  18.269  0.00  0.00    +0.000 Cl
ENDBRANCH  14  17
TORSDOF 1
ENDMDL
MODEL 3
REMARK VINA RESULT:      -7.0      2.431      3.829
REMARK  Name = 
REMARK  2 active torsions:
REMARK  status: ('A' for Active; 'I' for Inactive)
REMARK    1  A    between atoms: C_1  and  C_2
REMARK    2  A    between atoms: C_14  and  C_16
REMARK                            x       y       z     vdW  Elec       q    Type
REMARK                         _______ _______ _______ _____ _____    ______ ____
ROOT
ATOM      1  C   UNL     1       0.870   8.815  20.662  0.00  0.00    +0.000 C 
ATOM      2  C   UNL     1       1.926   7.968  19.956  0.00  0.00    +0.000 C 
ATOM      3  C   UNL     1       2.213   8.495  18.533  0.00  0.00    +0.000 C 
ATOM      4  C   UNL     1       3.371   7.729  17.860  0.00  0.00    +0.000 C 
ATOM      5  C   UNL     1       3.206   6.251  18.064  0.00  0.00    +0.000 A 
ATOM      6  C   UNL     1       2.368   5.694  19.005  0.00  0.00    +0.000 A 
ATOM      7  C   UNL     1       2.505   4.295  18.931  0.00  0.00    +0.000 A 
ATOM      8  C   UNL     1       1.852   3.247  19.613  0.00  0.00    +0.000 A 
ATOM      9  C   UNL     1       2.170   1.922  19.331  0.00  0.00    +0.000 A 
ATOM     10  C   UNL     1       3.132   1.638  18.371  0.00  0.00    +0.000 A 
ATOM     11  C   UNL     1       3.795   2.660  17.676  0.00  0.00    +0.000 A 
ATOM     12  C   UNL     1       3.488   4.011  17.966  0.00  0.00    +0.000 A 
ATOM     13  N   UNL     1       3.941   5.243  17.441  0.00  0.00    +0.000 N 
ATOM     14  C   UNL     1       4.946   5.484  16.467  0.00  0.00    +0.000 C 
ATOM     15  O   UNL     1       4.882   6.501  15.783  0.00  0.00    +0.000 OA
ATOM     16  C   UNL     1       1.476   6.494  19.896  0.00  0.00    +0.000 C 
ENDROOT
BRANCH  14  17
ATOM     17  C   UNL     1       6.045   4.465  16.397  0.00  0.00    +0.000 C 
ATOM     18 CL   UNL     1       6.157   3.799  14.741  0.00  0.00    +0.000 Cl
ENDBRANCH  14  17
TORSDOF 1
ENDMDL
MODEL 4
REMARK VINA RESULT:      -6.8      1.111      1.140
REMARK  Name = 
REMARK  2 active torsions:
REMARK  status: ('A' for Active; 'I' for Inactive)
REMARK    1  A    between atoms: C_1  and  C_2
REMARK    2  A    between atoms: C_14  and  C_16
REMARK                            x       y       z     vdW  Elec       q    Type
REMARK                         _______ _______ _______ _____ _____    ______ ____
ROOT
ATOM      1  C   UNL     1       1.581  10.012  19.088  0.00  0.00    +0.000 C 
ATOM      2  C   UNL     1       1.732   8.511  18.851  0.00  0.00    +0.000 C 
ATOM      3  C   UNL     1       1.798   7.732  20.182  0.00  0.00    +0.000 C 
ATOM      4  C   UNL     1       1.817   6.206  19.954  0.00  0.00    +0.000 C 
ATOM      5  C   UNL     1       2.785   5.854  18.862  0.00  0.00    +0.000 A 
ATOM      6  C   UNL     1       3.294   6.766  17.963  0.00  0.00    +0.000 A 
ATOM      7  C   UNL     1       4.131   6.071  17.070  0.00  0.00    +0.000 A 
ATOM      8  C   UNL     1       4.941   6.510  16.003  0.00  0.00    +0.000 A 
ATOM      9  C   UNL     1       5.700   5.597  15.277  0.00  0.00    +0.000 A 
ATOM     10  C   UNL     1       5.656   4.251  15.612  0.00  0.00    +0.000 A 
ATOM     11  C   UNL     1       4.861   3.786  16.670  0.00  0.00    +0.000 A 
ATOM     12  C   UNL     1       4.075   4.706  17.406  0.00  0.00    +0.000 A 
ATOM     13  N   UNL     1       3.212   4.573  18.517  0.00  0.00    +0.000 N 
ATOM     14  C   UNL     1       2.810   3.394  19.200  0.00  0.00    +0.000 C 
ATOM     15  O   UNL     1       2.484   3.471  20.380  0.00  0.00    +0.000 OA
ATOM     16  C   UNL     1       2.992   8.228  18.006  0.00  0.00    +0.000 C 
ENDROOT
BRANCH  14  17
ATOM     17  C   UNL     1       2.779   2.140  18.376  0.00  0.00    +0.000 C 
ATOM     18 CL   UNL     1       4.119   1.059  18.858  0.00  0.00    +0.000 Cl
ENDBRANCH  14  17
TORSDOF 1
ENDMDL
MODEL 5
REMARK VINA RESULT:      -6.8      1.419      4.551
REMARK  Name = 
REMARK  2 active torsions:
REMARK  status: ('A' for Active; 'I' for Inactive)
REMARK    1  A    between atoms: C_1  and  C_2
REMARK    2  A    between atoms: C_14  and  C_16
REMARK                            x       y       z     vdW  Elec       q    Type
REMARK                         _______ _______ _______ _____ _____    ______ ____
ROOT
ATOM      1  C   UNL     1       7.054   5.268  14.251  0.00  0.00    +0.000 C 
ATOM      2  C   UNL     1       6.348   4.966  15.571  0.00  0.00    +0.000 C 
ATOM      3  C   UNL     1       5.690   3.569  15.554  0.00  0.00    +0.000 C 
ATOM      4  C   UNL     1       5.088   3.201  16.926  0.00  0.00    +0.000 C 
ATOM      5  C   UNL     1       4.312   4.359  17.482  0.00  0.00    +0.000 A 
ATOM      6  C   UNL     1       4.425   5.652  17.022  0.00  0.00    +0.000 A 
ATOM      7  C   UNL     1       3.581   6.464  17.803  0.00  0.00    +0.000 A 
ATOM      8  C   UNL     1       3.266   7.836  17.733  0.00  0.00    +0.000 A 
ATOM      9  C   UNL     1       2.366   8.396  18.635  0.00  0.00    +0.000 A 
ATOM     10  C   UNL     1       1.778   7.593  19.602  0.00  0.00    +0.000 A 
ATOM     11  C   UNL     1       2.070   6.224  19.693  0.00  0.00    +0.000 A 
ATOM     12  C   UNL     1       2.995   5.649  18.788  0.00  0.00    +0.000 A 
ATOM     13  N   UNL     1       3.474   4.333  18.597  0.00  0.00    +0.000 N 
ATOM     14  C   UNL     1       3.201   3.163  19.354  0.00  0.00    +0.000 C 
ATOM     15  O   UNL     1       3.276   2.068  18.806  0.00  0.00    +0.000 OA
ATOM     16  C   UNL     1       5.290   6.048  15.871  0.00  0.00    +0.000 C 
ENDROOT
BRANCH  14  17
ATOM     17  C   UNL     1       2.879   3.383  20.803  0.00  0.00    +0.000 C 
ATOM     18 CL   UNL     1       1.152   3.032  21.106  0.00  0.00    +0.000 Cl
ENDBRANCH  14  17
TORSDOF 1
ENDMDL
MODEL 6
REMARK VINA RESULT:      -6.7      2.338      5.001
REMARK  Name = 
REMARK  2 active torsions:
REMARK  status: ('A' for Active; 'I' for Inactive)
REMARK    1  A    between atoms: C_1  and  C_2
REMARK    2  A    between atoms: C_14  and  C_16
REMARK                            x       y       z     vdW  Elec       q    Type
REMARK                         _______ _______ _______ _____ _____    ______ ____
ROOT
ATOM      1  C   UNL     1       1.551   2.337  21.956  0.00  0.00    +0.000 C 
ATOM      2  C   UNL     1       2.139   2.974  20.699  0.00  0.00    +0.000 C 
ATOM      3  C   UNL     1       3.638   2.638  20.544  0.00  0.00    +0.000 C 
ATOM      4  C   UNL     1       4.209   3.165  19.211  0.00  0.00    +0.000 C 
ATOM      5  C   UNL     1       3.756   4.576  18.971  0.00  0.00    +0.000 A 
ATOM      6  C   UNL     1       2.709   5.171  19.640  0.00  0.00    +0.000 A 
ATOM      7  C   UNL     1       2.552   6.472  19.126  0.00  0.00    +0.000 A 
ATOM      8  C   UNL     1       1.684   7.526  19.480  0.00  0.00    +0.000 A 
ATOM      9  C   UNL     1       1.751   8.744  18.809  0.00  0.00    +0.000 A 
ATOM     10  C   UNL     1       2.680   8.915  17.792  0.00  0.00    +0.000 A 
ATOM     11  C   UNL     1       3.557   7.885  17.421  0.00  0.00    +0.000 A 
ATOM     12  C   UNL     1       3.487   6.638  18.088  0.00  0.00    +0.000 A 
ATOM     13  N   UNL     1       4.225   5.438  17.980  0.00  0.00    +0.000 N 
ATOM     14  C   UNL     1       5.256   5.102  17.064  0.00  0.00    +0.000 C 
ATOM     15  O   UNL     1       6.098   4.272  17.391  0.00  0.00    +0.000 OA
ATOM     16  C   UNL     1       1.937   4.503  20.730  0.00  0.00    +0.000 C 
ENDROOT
BRANCH  14  17
ATOM     17  C   UNL     1       5.190   5.782  15.728  0.00  0.00    +0.000 C 
ATOM     18 CL   UNL     1       5.691   4.649  14.439  0.00  0.00    +0.000 Cl
ENDBRANCH  14  17
TORSDOF 1
ENDMDL
MODEL 7
REMARK VINA RESULT:      -6.3      2.316      5.233
REMARK  Name = 
REMARK  2 active torsions:
REMARK  status: ('A' for Active; 'I' for Inactive)
REMARK    1  A    between atoms: C_1  and  C_2
REMARK    2  A    between atoms: C_14  and  C_16
REMARK                            x       y       z     vdW  Elec       q    Type
REMARK                         _______ _______ _______ _____ _____    ______ ____
ROOT
ATOM      1  C   UNL     1       6.259   3.680  14.699  0.00  0.00    +0.000 C 
ATOM      2  C   UNL     1       5.189   4.463  15.458  0.00  0.00    +0.000 C 
ATOM      3  C   UNL     1       5.649   5.908  15.753  0.00  0.00    +0.000 C 
ATOM      4  C   UNL     1       4.527   6.745  16.400  0.00  0.00    +0.000 C 
ATOM      5  C   UNL     1       3.856   5.964  17.491  0.00  0.00    +0.000 A 
ATOM      6  C   UNL     1       3.971   4.599  17.642  0.00  0.00    +0.000 A 
ATOM      7  C   UNL     1       3.178   4.217  18.740  0.00  0.00    +0.000 A 
ATOM      8  C   UNL     1       2.975   2.971  19.367  0.00  0.00    +0.000 A 
ATOM      9  C   UNL     1       2.136   2.870  20.472  0.00  0.00    +0.000 A 
ATOM     10  C   UNL     1       1.502   4.006  20.956  0.00  0.00    +0.000 A 
ATOM     11  C   UNL     1       1.687   5.259  20.354  0.00  0.00    +0.000 A 
ATOM     12  C   UNL     1       2.529   5.369  19.220  0.00  0.00    +0.000 A 
ATOM     13  N   UNL     1       2.940   6.458  18.420  0.00  0.00    +0.000 N 
ATOM     14  C   UNL     1       2.539   7.819  18.487  0.00  0.00    +0.000 C 
ATOM     15  O   UNL     1       3.308   8.687  18.088  0.00  0.00    +0.000 OA
ATOM     16  C   UNL     1       4.830   3.740  16.773  0.00  0.00    +0.000 C 
ENDROOT
BRANCH  14  17
ATOM     17  C   UNL     1       1.157   8.067  19.015  0.00  0.00    +0.000 C 
ATOM     18 CL   UNL     1       1.247   8.820  20.635  0.00  0.00    +0.000 Cl
ENDBRANCH  14  17
TORSDOF 1
ENDMDL
MODEL 8
REMARK VINA RESULT:      -6.2      2.488      5.412
REMARK  Name = 
REMARK  2 active torsions:
REMARK  status: ('A' for Active; 'I' for Inactive)
REMARK    1  A    between atoms: C_1  and  C_2
REMARK    2  A    between atoms: C_14  and  C_16
REMARK                            x       y       z     vdW  Elec       q    Type
REMARK                         _______ _______ _______ _____ _____    ______ ____
ROOT
ATOM      1  C   UNL     1       6.445   3.564  13.481  0.00  0.00    +0.000 C 
ATOM      2  C   UNL     1       5.492   4.324  14.402  0.00  0.00    +0.000 C 
ATOM      3  C   UNL     1       6.185   5.543  15.051  0.00  0.00    +0.000 C 
ATOM      4  C   UNL     1       5.197   6.391  15.877  0.00  0.00    +0.000 C 
ATOM      5  C   UNL     1       4.340   5.506  16.735  0.00  0.00    +0.000 A 
ATOM      6  C   UNL     1       4.203   4.149  16.542  0.00  0.00    +0.000 A 
ATOM      7  C   UNL     1       3.297   3.665  17.505  0.00  0.00    +0.000 A 
ATOM      8  C   UNL     1       2.843   2.363  17.800  0.00  0.00    +0.000 A 
ATOM      9  C   UNL     1       1.941   2.155  18.839  0.00  0.00    +0.000 A 
ATOM     10  C   UNL     1       1.494   3.236  19.585  0.00  0.00    +0.000 A 
ATOM     11  C   UNL     1       1.931   4.542  19.315  0.00  0.00    +0.000 A 
ATOM     12  C   UNL     1       2.838   4.765  18.251  0.00  0.00    +0.000 A 
ATOM     13  N   UNL     1       3.479   5.921  17.750  0.00  0.00    +0.000 N 
ATOM     14  C   UNL     1       3.323   7.274  18.150  0.00  0.00    +0.000 C 
ATOM     15  O   UNL     1       4.254   8.056  17.985  0.00  0.00    +0.000 OA
ATOM     16  C   UNL     1       4.941   3.383  15.493  0.00  0.00    +0.000 C 
ENDROOT
BRANCH  14  17
ATOM     17  C   UNL     1       1.980   7.639  18.713  0.00  0.00    +0.000 C 
ATOM     18 CL   UNL     1       1.357   9.107  17.905  0.00  0.00    +0.000 Cl
ENDBRANCH  14  17
TORSDOF 1
ENDMDL
MODEL 9
REMARK VINA RESULT:      -6.2      1.908      4.850
REMARK  Name = 
REMARK  2 active torsions:
REMARK  status: ('A' for Active; 'I' for Inactive)
REMARK    1  A    between atoms: C_1  and  C_2
REMARK    2  A    between atoms: C_14  and  C_16
REMARK                            x       y       z     vdW  Elec       q    Type
REMARK                         _______ _______ _______ _____ _____    ______ ____
ROOT
ATOM      1  C   UNL     1       7.433   5.459  13.752  0.00  0.00    +0.000 C 
ATOM      2  C   UNL     1       6.716   4.981  15.012  0.00  0.00    +0.000 C 
ATOM      3  C   UNL     1       6.065   3.597  14.801  0.00  0.00    +0.000 C 
ATOM      4  C   UNL     1       5.452   3.046  16.105  0.00  0.00    +0.000 C 
ATOM      5  C   UNL     1       4.665   4.116  16.804  0.00  0.00    +0.000 A 
ATOM      6  C   UNL     1       4.776   5.460  16.522  0.00  0.00    +0.000 A 
ATOM      7  C   UNL     1       3.921   6.157  17.396  0.00  0.00    +0.000 A 
ATOM      8  C   UNL     1       3.600   7.525  17.507  0.00  0.00    +0.000 A 
ATOM      9  C   UNL     1       2.689   7.956  18.467  0.00  0.00    +0.000 A 
ATOM     10  C   UNL     1       2.095   7.029  19.312  0.00  0.00    +0.000 A 
ATOM     11  C   UNL     1       2.393   5.661  19.222  0.00  0.00    +0.000 A 
ATOM     12  C   UNL     1       3.330   5.216  18.257  0.00  0.00    +0.000 A 
ATOM     13  N   UNL     1       3.816   3.939  17.896  0.00  0.00    +0.000 N 
ATOM     14  C   UNL     1       3.541   2.677  18.487  0.00  0.00    +0.000 C 
ATOM     15  O   UNL     1       3.627   1.665  17.799  0.00  0.00    +0.000 OA
ATOM     16  C   UNL     1       5.650   6.010  15.443  0.00  0.00    +0.000 C 
ENDROOT
BRANCH  14  17
ATOM     17  C   UNL     1       3.205   2.700  19.949  0.00  0.00    +0.000 C 
ATOM     18 CL   UNL     1       4.533   1.964  20.894  0.00  0.00    +0.000 Cl
ENDBRANCH  14  17
TORSDOF 1
ENDMDL
