MODEL 1
REMARK VINA RESULT:      -8.8      0.000      0.000
REMARK  Name = 
REMARK  3 active torsions:
REMARK  status: ('A' for Active; 'I' for Inactive)
REMARK    1  A    between atoms: C_1  and  N_2
REMARK    2  A    between atoms: C_6  and  C_7
REMARK    3  A    between atoms: N_16  and  C_17
REMARK                            x       y       z     vdW  Elec       q    Type
REMARK                         _______ _______ _______ _____ _____    ______ ____
ROOT
ATOM      1  C   UNL     1       5.898   3.631  15.920  0.00  0.00    +0.000 C 
ATOM      2  N   UNL     1       5.037   4.660  16.484  0.00  0.00    +0.000 N 
ATOM      3  C   UNL     1       5.425   6.020  16.321  0.00  0.00    +0.000 C 
ATOM      4  C   UNL     1       4.694   7.015  16.790  0.00  0.00    +0.000 C 
ATOM      5  C   UNL     1       3.385   6.818  17.539  0.00  0.00    +0.000 C 
ATOM      6  C   UNL     1       2.856   8.014  17.995  0.00  0.00    +0.000 C 
ATOM      7  C   UNL     1       3.021   5.381  17.780  0.00  0.00    +0.000 A 
ATOM      8  C   UNL     1       1.899   5.009  18.528  0.00  0.00    +0.000 A 
ATOM      9  C   UNL     1       1.552   3.660  18.688  0.00  0.00    +0.000 A 
ATOM     10  C   UNL     1       2.311   2.655  18.127  0.00  0.00    +0.000 A 
ATOM     11  C   UNL     1       3.478   2.998  17.388  0.00  0.00    +0.000 A 
ATOM     12  C   UNL     1       3.827   4.347  17.184  0.00  0.00    +0.000 A 
ENDROOT
BRANCH   6  13
ATOM     13  C   UNL     1       1.794   8.712  18.907  0.00  0.00    +0.000 A 
ATOM     14  C   UNL     1       1.080   9.565  18.073  0.00  0.00    +0.000 A 
ATOM     15  C   UNL     1       0.028  10.221  18.519  0.00  0.00    +0.000 A 
ATOM     16  C   UNL     1      -0.207  10.358  19.825  0.00  0.00    +0.000 A 
ATOM     17  C   UNL     1      -1.086  11.371  20.208  0.00  0.00    +0.000 A 
ATOM     18  C   UNL     1      -1.318  11.610  21.541  0.00  0.00    +0.000 A 
ATOM     19  C   UNL     1      -0.749  10.763  22.491  0.00  0.00    +0.000 A 
ATOM     20  C   UNL     1       0.120   9.686  22.091  0.00  0.00    +0.000 A 
ATOM     21  C   UNL     1       0.436   9.496  20.750  0.00  0.00    +0.000 A 
ATOM     22  N   UNL     1       1.343   8.550  20.258  0.00  0.00    +0.000 N 
ATOM     23  C   UNL     1       1.676   7.303  21.001  0.00  0.00    +0.000 C 
ENDBRANCH   6  13
TORSDOF 1
ENDMDL
MODEL 2
REMARK VINA RESULT:      -8.6      1.292      2.235
REMARK  Name = 
REMARK  3 active torsions:
REMARK  status: ('A' for Active; 'I' for Inactive)
REMARK    1  A    between atoms: C_1  and  N_2
REMARK    2  A    between atoms: C_6  and  C_7
REMARK    3  A    between atoms: N_16  and  C_17
REMARK                            x       y       z     vdW  Elec       q    Type
REMARK                         _______ _______ _______ _____ _____    ______ ____
ROOT
ATOM      1  C   UNL     1       4.828   3.411  17.089  0.00  0.00    +0.000 C 
ATOM      2  N   UNL     1       4.087   4.545  17.621  0.00  0.00    +0.000 N 
ATOM      3  C   UNL     1       4.371   5.837  17.094  0.00  0.00    +0.000 C 
ATOM      4  C   UNL     1       3.735   6.917  17.512  0.00  0.00    +0.000 C 
ATOM      5  C   UNL     1       2.653   6.896  18.579  0.00  0.00    +0.000 C 
ATOM      6  C   UNL     1       2.202   8.167  18.895  0.00  0.00    +0.000 C 
ATOM      7  C   UNL     1       2.414   5.544  19.191  0.00  0.00    +0.000 A 
ATOM      8  C   UNL     1       1.519   5.351  20.248  0.00  0.00    +0.000 A 
ATOM      9  C   UNL     1       1.273   4.069  20.762  0.00  0.00    +0.000 A 
ATOM     10  C   UNL     1       1.915   2.960  20.251  0.00  0.00    +0.000 A 
ATOM     11  C   UNL     1       2.857   3.128  19.197  0.00  0.00    +0.000 A 
ATOM     12  C   UNL     1       3.093   4.400  18.642  0.00  0.00    +0.000 A 
ENDROOT
BRANCH   6  13
ATOM     13  C   UNL     1       1.363   9.052  19.874  0.00  0.00    +0.000 A 
ATOM     14  C   UNL     1       1.354   8.372  21.086  0.00  0.00    +0.000 A 
ATOM     15  C   UNL     1       0.820   8.915  22.162  0.00  0.00    +0.000 A 
ATOM     16  C   UNL     1      -0.002   9.962  22.080  0.00  0.00    +0.000 A 
ATOM     17  C   UNL     1      -0.816  10.218  23.184  0.00  0.00    +0.000 A 
ATOM     18  C   UNL     1      -1.734  11.239  23.138  0.00  0.00    +0.000 A 
ATOM     19  C   UNL     1      -1.764  12.074  22.020  0.00  0.00    +0.000 A 
ATOM     20  C   UNL     1      -0.890  11.838  20.901  0.00  0.00    +0.000 A 
ATOM     21  C   UNL     1      -0.023  10.750  20.900  0.00  0.00    +0.000 A 
ATOM     22  N   UNL     1       0.795  10.368  19.830  0.00  0.00    +0.000 N 
ATOM     23  C   UNL     1       1.251  11.332  18.790  0.00  0.00    +0.000 C 
ENDBRANCH   6  13
TORSDOF 1
ENDMDL
MODEL 3
REMARK VINA RESULT:      -8.3      1.400      7.808
REMARK  Name = 
REMARK  3 active torsions:
REMARK  status: ('A' for Active; 'I' for Inactive)
REMARK    1  A    between atoms: C_1  and  N_2
REMARK    2  A    between atoms: C_6  and  C_7
REMARK    3  A    between atoms: N_16  and  C_17
REMARK                            x       y       z     vdW  Elec       q    Type
REMARK                         _______ _______ _______ _____ _____    ______ ____
ROOT
ATOM      1  C   UNL     1      -1.710  12.054  23.065  0.00  0.00    +0.000 C 
ATOM      2  N   UNL     1      -0.961  11.017  22.370  0.00  0.00    +0.000 N 
ATOM      3  C   UNL     1      -0.204  10.100  23.153  0.00  0.00    +0.000 C 
ATOM      4  C   UNL     1       0.492   9.122  22.603  0.00  0.00    +0.000 C 
ATOM      5  C   UNL     1       0.557   8.874  21.104  0.00  0.00    +0.000 C 
ATOM      6  C   UNL     1       1.418   7.839  20.780  0.00  0.00    +0.000 C 
ATOM      7  C   UNL     1      -0.176   9.892  20.277  0.00  0.00    +0.000 A 
ATOM      8  C   UNL     1      -0.153   9.875  18.879  0.00  0.00    +0.000 A 
ATOM      9  C   UNL     1      -0.893  10.803  18.133  0.00  0.00    +0.000 A 
ATOM     10  C   UNL     1      -1.657  11.770  18.751  0.00  0.00    +0.000 A 
ATOM     11  C   UNL     1      -1.676  11.835  20.173  0.00  0.00    +0.000 A 
ATOM     12  C   UNL     1      -0.968  10.893  20.943  0.00  0.00    +0.000 A 
ENDROOT
BRANCH   6  13
ATOM     13  C   UNL     1       2.187   7.082  19.647  0.00  0.00    +0.000 A 
ATOM     14  C   UNL     1       1.979   5.729  19.888  0.00  0.00    +0.000 A 
ATOM     15  C   UNL     1       2.407   4.818  19.036  0.00  0.00    +0.000 A 
ATOM     16  C   UNL     1       3.314   5.108  18.102  0.00  0.00    +0.000 A 
ATOM     17  C   UNL     1       3.991   4.035  17.521  0.00  0.00    +0.000 A 
ATOM     18  C   UNL     1       4.985   4.268  16.602  0.00  0.00    +0.000 A 
ATOM     19  C   UNL     1       5.232   5.577  16.186  0.00  0.00    +0.000 A 
ATOM     20  C   UNL     1       4.499   6.679  16.751  0.00  0.00    +0.000 A 
ATOM     21  C   UNL     1       3.556   6.461  17.751  0.00  0.00    +0.000 A 
ATOM     22  N   UNL     1       2.860   7.462  18.439  0.00  0.00    +0.000 N 
ATOM     23  C   UNL     1       2.626   8.814  17.860  0.00  0.00    +0.000 C 
ENDBRANCH   6  13
TORSDOF 1
ENDMDL
MODEL 4
REMARK VINA RESULT:      -8.2      1.400      1.586
REMARK  Name = 
REMARK  3 active torsions:
REMARK  status: ('A' for Active; 'I' for Inactive)
REMARK    1  A    between atoms: C_1  and  N_2
REMARK    2  A    between atoms: C_6  and  C_7
REMARK    3  A    between atoms: N_16  and  C_17
REMARK                            x       y       z     vdW  Elec       q    Type
REMARK                         _______ _______ _______ _____ _____    ______ ____
ROOT
ATOM      1  C   UNL     1       5.740   4.085  17.734  0.00  0.00    +0.000 C 
ATOM      2  N   UNL     1       4.759   5.131  17.980  0.00  0.00    +0.000 N 
ATOM      3  C   UNL     1       4.891   6.354  17.264  0.00  0.00    +0.000 C 
ATOM      4  C   UNL     1       4.036   7.349  17.419  0.00  0.00    +0.000 C 
ATOM      5  C   UNL     1       2.843   7.296  18.360  0.00  0.00    +0.000 C 
ATOM      6  C   UNL     1       2.151   8.495  18.399  0.00  0.00    +0.000 C 
ATOM      7  C   UNL     1       2.754   6.036  19.173  0.00  0.00    +0.000 A 
ATOM      8  C   UNL     1       1.774   5.848  20.154  0.00  0.00    +0.000 A 
ATOM      9  C   UNL     1       1.680   4.639  20.858  0.00  0.00    +0.000 A 
ATOM     10  C   UNL     1       2.557   3.602  20.619  0.00  0.00    +0.000 A 
ATOM     11  C   UNL     1       3.587   3.774  19.651  0.00  0.00    +0.000 A 
ATOM     12  C   UNL     1       3.679   4.966  18.907  0.00  0.00    +0.000 A 
ENDROOT
BRANCH   6  13
ATOM     13  C   UNL     1       1.057   9.351  19.117  0.00  0.00    +0.000 A 
ATOM     14  C   UNL     1       0.194   9.780  18.116  0.00  0.00    +0.000 A 
ATOM     15  C   UNL     1      -0.910  10.437  18.411  0.00  0.00    +0.000 A 
ATOM     16  C   UNL     1      -1.091  10.995  19.609  0.00  0.00    +0.000 A 
ATOM     17  C   UNL     1      -2.073  11.981  19.708  0.00  0.00    +0.000 A 
ATOM     18  C   UNL     1      -2.263  12.643  20.897  0.00  0.00    +0.000 A 
ATOM     19  C   UNL     1      -1.537  12.244  22.019  0.00  0.00    +0.000 A 
ATOM     20  C   UNL     1      -0.557  11.193  21.927  0.00  0.00    +0.000 A 
ATOM     21  C   UNL     1      -0.291  10.582  20.706  0.00  0.00    +0.000 A 
ATOM     22  N   UNL     1       0.705   9.625  20.480  0.00  0.00    +0.000 N 
ATOM     23  C   UNL     1       1.238   8.756  21.566  0.00  0.00    +0.000 C 
ENDBRANCH   6  13
TORSDOF 1
ENDMDL
MODEL 5
REMARK VINA RESULT:      -8.0      1.643      3.015
REMARK  Name = 
REMARK  3 active torsions:
REMARK  status: ('A' for Active; 'I' for Inactive)
REMARK    1  A    between atoms: C_1  and  N_2
REMARK    2  A    between atoms: C_6  and  C_7
REMARK    3  A    between atoms: N_16  and  C_17
REMARK                            x       y       z     vdW  Elec       q    Type
REMARK                         _______ _______ _______ _____ _____    ______ ____
ROOT
ATOM      1  C   UNL     1       3.627   1.689  18.557  0.00  0.00    +0.000 C 
ATOM      2  N   UNL     1       3.228   3.050  18.882  0.00  0.00    +0.000 N 
ATOM      3  C   UNL     1       2.300   3.239  19.946  0.00  0.00    +0.000 C 
ATOM      4  C   UNL     1       1.896   4.442  20.314  0.00  0.00    +0.000 C 
ATOM      5  C   UNL     1       2.370   5.728  19.656  0.00  0.00    +0.000 C 
ATOM      6  C   UNL     1       1.737   6.846  20.172  0.00  0.00    +0.000 C 
ATOM      7  C   UNL     1       3.285   5.520  18.482  0.00  0.00    +0.000 A 
ATOM      8  C   UNL     1       3.750   6.583  17.700  0.00  0.00    +0.000 A 
ATOM      9  C   UNL     1       4.648   6.365  16.646  0.00  0.00    +0.000 A 
ATOM     10  C   UNL     1       5.093   5.097  16.336  0.00  0.00    +0.000 A 
ATOM     11  C   UNL     1       4.612   3.990  17.091  0.00  0.00    +0.000 A 
ATOM     12  C   UNL     1       3.737   4.188  18.177  0.00  0.00    +0.000 A 
ENDROOT
BRANCH   6  13
ATOM     13  C   UNL     1       1.455   8.377  20.019  0.00  0.00    +0.000 A 
ATOM     14  C   UNL     1       1.813   8.700  18.715  0.00  0.00    +0.000 A 
ATOM     15  C   UNL     1       1.586   9.905  18.232  0.00  0.00    +0.000 A 
ATOM     16  C   UNL     1       1.317  10.938  19.031  0.00  0.00    +0.000 A 
ATOM     17  C   UNL     1       1.482  12.215  18.494  0.00  0.00    +0.000 A 
ATOM     18  C   UNL     1       1.287  13.322  19.284  0.00  0.00    +0.000 A 
ATOM     19  C   UNL     1       0.823  13.151  20.589  0.00  0.00    +0.000 A 
ATOM     20  C   UNL     1       0.606  11.833  21.126  0.00  0.00    +0.000 A 
ATOM     21  C   UNL     1       0.891  10.705  20.364  0.00  0.00    +0.000 A 
ATOM     22  N   UNL     1       0.815   9.382  20.816  0.00  0.00    +0.000 N 
ATOM     23  C   UNL     1      -0.066   8.975  21.947  0.00  0.00    +0.000 C 
ENDBRANCH   6  13
TORSDOF 1
ENDMDL
MODEL 6
REMARK VINA RESULT:      -7.9      1.818      7.721
REMARK  Name = 
REMARK  3 active torsions:
REMARK  status: ('A' for Active; 'I' for Inactive)
REMARK    1  A    between atoms: C_1  and  N_2
REMARK    2  A    between atoms: C_6  and  C_7
REMARK    3  A    between atoms: N_16  and  C_17
REMARK                            x       y       z     vdW  Elec       q    Type
REMARK                         _______ _______ _______ _____ _____    ______ ____
ROOT
ATOM      1  C   UNL     1      -2.106  13.678  20.783  0.00  0.00    +0.000 C 
ATOM      2  N   UNL     1      -1.348  12.442  20.652  0.00  0.00    +0.000 N 
ATOM      3  C   UNL     1      -0.444  12.097  21.697  0.00  0.00    +0.000 C 
ATOM      4  C   UNL     1       0.271  10.988  21.664  0.00  0.00    +0.000 C 
ATOM      5  C   UNL     1       0.208   9.979  20.527  0.00  0.00    +0.000 C 
ATOM      6  C   UNL     1       1.114   8.945  20.692  0.00  0.00    +0.000 C 
ATOM      7  C   UNL     1      -0.684  10.386  19.389  0.00  0.00    +0.000 A 
ATOM      8  C   UNL     1      -0.797   9.626  18.220  0.00  0.00    +0.000 A 
ATOM      9  C   UNL     1      -1.681  10.000  17.198  0.00  0.00    +0.000 A 
ATOM     10  C   UNL     1      -2.457  11.135  17.304  0.00  0.00    +0.000 A 
ATOM     11  C   UNL     1      -2.340  11.949  18.466  0.00  0.00    +0.000 A 
ATOM     12  C   UNL     1      -1.485  11.575  19.521  0.00  0.00    +0.000 A 
ENDROOT
BRANCH   6  13
ATOM     13  C   UNL     1       1.826   7.713  20.043  0.00  0.00    +0.000 A 
ATOM     14  C   UNL     1       1.473   6.617  20.823  0.00  0.00    +0.000 A 
ATOM     15  C   UNL     1       1.824   5.397  20.470  0.00  0.00    +0.000 A 
ATOM     16  C   UNL     1       2.778   5.179  19.564  0.00  0.00    +0.000 A 
ATOM     17  C   UNL     1       3.353   3.908  19.541  0.00  0.00    +0.000 A 
ATOM     18  C   UNL     1       4.387   3.638  18.677  0.00  0.00    +0.000 A 
ATOM     19  C   UNL     1       4.778   4.615  17.761  0.00  0.00    +0.000 A 
ATOM     20  C   UNL     1       4.150   5.910  17.753  0.00  0.00    +0.000 A 
ATOM     21  C   UNL     1       3.167   6.224  18.686  0.00  0.00    +0.000 A 
ATOM     22  N   UNL     1       2.563   7.478  18.836  0.00  0.00    +0.000 N 
ATOM     23  C   UNL     1       2.484   8.463  17.722  0.00  0.00    +0.000 C 
ENDBRANCH   6  13
TORSDOF 1
ENDMDL
MODEL 7
REMARK VINA RESULT:      -7.9      1.951      7.383
REMARK  Name = 
REMARK  3 active torsions:
REMARK  status: ('A' for Active; 'I' for Inactive)
REMARK    1  A    between atoms: C_1  and  N_2
REMARK    2  A    between atoms: C_6  and  C_7
REMARK    3  A    between atoms: N_16  and  C_17
REMARK                            x       y       z     vdW  Elec       q    Type
REMARK                         _______ _______ _______ _____ _____    ______ ____
ROOT
ATOM      1  C   UNL     1      -0.559  13.243  19.829  0.00  0.00    +0.000 C 
ATOM      2  N   UNL     1       0.083  11.939  19.769  0.00  0.00    +0.000 N 
ATOM      3  C   UNL     1       0.774  11.587  18.576  0.00  0.00    +0.000 C 
ATOM      4  C   UNL     1       1.396  10.429  18.444  0.00  0.00    +0.000 C 
ATOM      5  C   UNL     1       1.439   9.368  19.533  0.00  0.00    +0.000 C 
ATOM      6  C   UNL     1       2.083   8.215  19.117  0.00  0.00    +0.000 C 
ATOM      7  C   UNL     1       0.641   9.709  20.759  0.00  0.00    +0.000 A 
ATOM      8  C   UNL     1       0.493   8.816  21.826  0.00  0.00    +0.000 A 
ATOM      9  C   UNL     1      -0.210   9.183  22.983  0.00  0.00    +0.000 A 
ATOM     10  C   UNL     1      -0.790  10.428  23.102  0.00  0.00    +0.000 A 
ATOM     11  C   UNL     1      -0.687  11.348  22.020  0.00  0.00    +0.000 A 
ATOM     12  C   UNL     1       0.044  11.015  20.863  0.00  0.00    +0.000 A 
ENDROOT
BRANCH   6  13
ATOM     13  C   UNL     1       2.408   6.715  19.421  0.00  0.00    +0.000 A 
ATOM     14  C   UNL     1       1.463   6.305  20.354  0.00  0.00    +0.000 A 
ATOM     15  C   UNL     1       1.393   5.046  20.736  0.00  0.00    +0.000 A 
ATOM     16  C   UNL     1       2.393   4.192  20.512  0.00  0.00    +0.000 A 
ATOM     17  C   UNL     1       2.413   3.024  21.274  0.00  0.00    +0.000 A 
ATOM     18  C   UNL     1       3.452   2.135  21.140  0.00  0.00    +0.000 A 
ATOM     19  C   UNL     1       4.422   2.367  20.164  0.00  0.00    +0.000 A 
ATOM     20  C   UNL     1       4.373   3.549  19.344  0.00  0.00    +0.000 A 
ATOM     21  C   UNL     1       3.377   4.501  19.537  0.00  0.00    +0.000 A 
ATOM     22  N   UNL     1       3.290   5.729  18.870  0.00  0.00    +0.000 N 
ATOM     23  C   UNL     1       3.903   5.954  17.531  0.00  0.00    +0.000 C 
ENDBRANCH   6  13
TORSDOF 1
ENDMDL
MODEL 8
REMARK VINA RESULT:      -7.8      1.451      3.209
REMARK  Name = 
REMARK  3 active torsions:
REMARK  status: ('A' for Active; 'I' for Inactive)
REMARK    1  A    between atoms: C_1  and  N_2
REMARK    2  A    between atoms: C_6  and  C_7
REMARK    3  A    between atoms: N_16  and  C_17
REMARK                            x       y       z     vdW  Elec       q    Type
REMARK                         _______ _______ _______ _____ _____    ______ ____
ROOT
ATOM      1  C   UNL     1       3.663   1.609  18.576  0.00  0.00    +0.000 C 
ATOM      2  N   UNL     1       3.222   2.939  18.970  0.00  0.00    +0.000 N 
ATOM      3  C   UNL     1       2.275   3.044  20.028  0.00  0.00    +0.000 C 
ATOM      4  C   UNL     1       1.834   4.213  20.456  0.00  0.00    +0.000 C 
ATOM      5  C   UNL     1       2.281   5.546  19.876  0.00  0.00    +0.000 C 
ATOM      6  C   UNL     1       1.610   6.617  20.443  0.00  0.00    +0.000 C 
ATOM      7  C   UNL     1       3.216   5.427  18.706  0.00  0.00    +0.000 A 
ATOM      8  C   UNL     1       3.661   6.544  17.990  0.00  0.00    +0.000 A 
ATOM      9  C   UNL     1       4.579   6.408  16.938  0.00  0.00    +0.000 A 
ATOM     10  C   UNL     1       5.062   5.171  16.567  0.00  0.00    +0.000 A 
ATOM     11  C   UNL     1       4.603   4.012  17.253  0.00  0.00    +0.000 A 
ATOM     12  C   UNL     1       3.709   4.127  18.335  0.00  0.00    +0.000 A 
ENDROOT
BRANCH   6  13
ATOM     13  C   UNL     1       1.287   8.145  20.370  0.00  0.00    +0.000 A 
ATOM     14  C   UNL     1       1.166   8.570  21.688  0.00  0.00    +0.000 A 
ATOM     15  C   UNL     1       1.007   9.846  21.975  0.00  0.00    +0.000 A 
ATOM     16  C   UNL     1       0.634  10.729  21.046  0.00  0.00    +0.000 A 
ATOM     17  C   UNL     1       0.113  11.942  21.496  0.00  0.00    +0.000 A 
ATOM     18  C   UNL     1      -0.351  12.867  20.592  0.00  0.00    +0.000 A 
ATOM     19  C   UNL     1      -0.198  12.619  19.228  0.00  0.00    +0.000 A 
ATOM     20  C   UNL     1       0.386  11.386  18.765  0.00  0.00    +0.000 A 
ATOM     21  C   UNL     1       0.772  10.404  19.672  0.00  0.00    +0.000 A 
ATOM     22  N   UNL     1       1.254   9.135  19.333  0.00  0.00    +0.000 N 
ATOM     23  C   UNL     1       1.913   8.854  18.027  0.00  0.00    +0.000 C 
ENDBRANCH   6  13
TORSDOF 1
ENDMDL
MODEL 9
REMARK VINA RESULT:      -7.6      1.638      7.692
REMARK  Name = 
REMARK  3 active torsions:
REMARK  status: ('A' for Active; 'I' for Inactive)
REMARK    1  A    between atoms: C_1  and  N_2
REMARK    2  A    between atoms: C_6  and  C_7
REMARK    3  A    between atoms: N_16  and  C_17
REMARK                            x       y       z     vdW  Elec       q    Type
REMARK                         _______ _______ _______ _____ _____    ______ ____
ROOT
ATOM      1  C   UNL     1      -1.477  12.257  22.819  0.00  0.00    +0.000 C 
ATOM      2  N   UNL     1      -0.822  11.077  22.275  0.00  0.00    +0.000 N 
ATOM      3  C   UNL     1      -0.467  10.033  23.175  0.00  0.00    +0.000 C 
ATOM      4  C   UNL     1       0.118   8.923  22.761  0.00  0.00    +0.000 C 
ATOM      5  C   UNL     1       0.468   8.648  21.308  0.00  0.00    +0.000 C 
ATOM      6  C   UNL     1       1.147   7.451  21.149  0.00  0.00    +0.000 C 
ATOM      7  C   UNL     1       0.167   9.785  20.373  0.00  0.00    +0.000 A 
ATOM      8  C   UNL     1       0.503   9.745  19.016  0.00  0.00    +0.000 A 
ATOM      9  C   UNL     1       0.158  10.797  18.156  0.00  0.00    +0.000 A 
ATOM     10  C   UNL     1      -0.510  11.911  18.620  0.00  0.00    +0.000 A 
ATOM     11  C   UNL     1      -0.836  11.997  20.003  0.00  0.00    +0.000 A 
ATOM     12  C   UNL     1      -0.531  10.938  20.879  0.00  0.00    +0.000 A 
ENDROOT
BRANCH   6  13
ATOM     13  C   UNL     1       1.979   6.536  20.192  0.00  0.00    +0.000 A 
ATOM     14  C   UNL     1       2.612   7.395  19.302  0.00  0.00    +0.000 A 
ATOM     15  C   UNL     1       3.487   6.938  18.429  0.00  0.00    +0.000 A 
ATOM     16  C   UNL     1       3.568   5.639  18.135  0.00  0.00    +0.000 A 
ATOM     17  C   UNL     1       4.217   5.296  16.949  0.00  0.00    +0.000 A 
ATOM     18  C   UNL     1       4.275   3.980  16.555  0.00  0.00    +0.000 A 
ATOM     19  C   UNL     1       3.771   2.995  17.404  0.00  0.00    +0.000 A 
ATOM     20  C   UNL     1       3.144   3.348  18.651  0.00  0.00    +0.000 A 
ATOM     21  C   UNL     1       2.997   4.683  19.014  0.00  0.00    +0.000 A 
ATOM     22  N   UNL     1       2.318   5.143  20.149  0.00  0.00    +0.000 N 
ATOM     23  C   UNL     1       2.136   4.303  21.365  0.00  0.00    +0.000 C 
ENDBRANCH   6  13
TORSDOF 1
ENDMDL
