MODEL 1
REMARK VINA RESULT:      -7.6      0.000      0.000
REMARK  Name = 
REMARK  3 active torsions:
REMARK  status: ('A' for Active; 'I' for Inactive)
REMARK    1  A    between atoms: C_1  and  N_2
REMARK    2  A    between atoms: C_8  and  O_9
REMARK    3  A    between atoms: O_9  and  C_10
REMARK                            x       y       z     vdW  Elec       q    Type
REMARK                         _______ _______ _______ _____ _____    ______ ____
ROOT
ATOM      1  C   UNL     1       9.354  10.373  18.985  0.00  0.00    +0.000 C 
ATOM      2  N   UNL     1       8.510   9.742  18.001  0.00  0.00    +0.000 N 
ATOM      3  C   UNL     1       8.232   8.400  18.133  0.00  0.00    +0.000 C 
ATOM      4  O   UNL     1       8.648   7.732  19.074  0.00  0.00    +0.000 OA
ATOM      5  N   UNL     1       7.500   7.926  17.082  0.00  0.00    +0.000 N 
ATOM      6  C   UNL     1       7.114   6.585  16.996  0.00  0.00    +0.000 A 
ATOM      7  C   UNL     1       6.585   5.914  18.088  0.00  0.00    +0.000 A 
ATOM      8  C   UNL     1       6.127   4.614  17.901  0.00  0.00    +0.000 A 
ATOM      9  C   UNL     1       6.356   3.975  16.690  0.00  0.00    +0.000 A 
ATOM     10  C   UNL     1       6.912   4.720  15.666  0.00  0.00    +0.000 A 
ATOM     11  N   UNL     1       7.236   6.027  15.775  0.00  0.00    +0.000 NA
ATOM     12  H   UNL     1       7.747  10.285  17.622  0.00  0.00    +0.000 HD
ATOM     13  H   UNL     1       7.731   8.326  16.187  0.00  0.00    +0.000 HD
ENDROOT
BRANCH   8  14
ATOM     14  O   UNL     1       5.467   3.899  18.876  0.00  0.00    +0.000 OA
BRANCH  14  15
ATOM     15  C   UNL     1       4.122   3.635  18.701  0.00  0.00    +0.000 A 
ATOM     16  C   UNL     1       3.583   2.353  18.543  0.00  0.00    +0.000 A 
ATOM     17  C   UNL     1       2.217   2.188  18.307  0.00  0.00    +0.000 A 
ATOM     18  C   UNL     1       1.376   3.298  18.289  0.00  0.00    +0.000 A 
ATOM     19  C   UNL     1       1.898   4.571  18.517  0.00  0.00    +0.000 A 
ATOM     20  C   UNL     1       3.269   4.740  18.723  0.00  0.00    +0.000 A 
ENDBRANCH  14  15
ENDBRANCH   8  14
TORSDOF 2
ENDMDL
MODEL 2
REMARK VINA RESULT:      -7.6      1.998      4.325
REMARK  Name = 
REMARK  3 active torsions:
REMARK  status: ('A' for Active; 'I' for Inactive)
REMARK    1  A    between atoms: C_1  and  N_2
REMARK    2  A    between atoms: C_8  and  O_9
REMARK    3  A    between atoms: O_9  and  C_10
REMARK                            x       y       z     vdW  Elec       q    Type
REMARK                         _______ _______ _______ _____ _____    ______ ____
ROOT
ATOM      1  C   UNL     1       5.746   3.199  11.857  0.00  0.00    +0.000 C 
ATOM      2  N   UNL     1       6.692   3.667  12.839  0.00  0.00    +0.000 N 
ATOM      3  C   UNL     1       6.224   4.047  14.077  0.00  0.00    +0.000 C 
ATOM      4  O   UNL     1       5.040   3.971  14.384  0.00  0.00    +0.000 OA
ATOM      5  N   UNL     1       7.220   4.551  14.864  0.00  0.00    +0.000 N 
ATOM      6  C   UNL     1       6.974   5.015  16.160  0.00  0.00    +0.000 A 
ATOM      7  C   UNL     1       6.192   4.294  17.049  0.00  0.00    +0.000 A 
ATOM      8  C   UNL     1       6.075   4.765  18.353  0.00  0.00    +0.000 A 
ATOM      9  C   UNL     1       6.601   6.007  18.682  0.00  0.00    +0.000 A 
ATOM     10  C   UNL     1       7.347   6.663  17.720  0.00  0.00    +0.000 A 
ATOM     11  N   UNL     1       7.596   6.164  16.489  0.00  0.00    +0.000 NA
ATOM     12  H   UNL     1       7.601   3.226  12.860  0.00  0.00    +0.000 HD
ATOM     13  H   UNL     1       7.914   5.096  14.378  0.00  0.00    +0.000 HD
ENDROOT
BRANCH   8  14
ATOM     14  O   UNL     1       5.435   4.067  19.353  0.00  0.00    +0.000 OA
BRANCH  14  15
ATOM     15  C   UNL     1       4.089   3.790  19.205  0.00  0.00    +0.000 A 
ATOM     16  C   UNL     1       3.112   4.752  18.923  0.00  0.00    +0.000 A 
ATOM     17  C   UNL     1       1.767   4.388  18.856  0.00  0.00    +0.000 A 
ATOM     18  C   UNL     1       1.398   3.054  19.009  0.00  0.00    +0.000 A 
ATOM     19  C   UNL     1       2.376   2.081  19.220  0.00  0.00    +0.000 A 
ATOM     20  C   UNL     1       3.720   2.448  19.317  0.00  0.00    +0.000 A 
ENDBRANCH  14  15
ENDBRANCH   8  14
TORSDOF 2
ENDMDL
MODEL 3
REMARK VINA RESULT:      -7.6      1.995      4.131
REMARK  Name = 
REMARK  3 active torsions:
REMARK  status: ('A' for Active; 'I' for Inactive)
REMARK    1  A    between atoms: C_1  and  N_2
REMARK    2  A    between atoms: C_8  and  O_9
REMARK    3  A    between atoms: O_9  and  C_10
REMARK                            x       y       z     vdW  Elec       q    Type
REMARK                         _______ _______ _______ _____ _____    ______ ____
ROOT
ATOM      1  C   UNL     1       5.808   3.268  11.934  0.00  0.00    +0.000 C 
ATOM      2  N   UNL     1       6.743   3.739  12.927  0.00  0.00    +0.000 N 
ATOM      3  C   UNL     1       6.264   4.090  14.169  0.00  0.00    +0.000 C 
ATOM      4  O   UNL     1       5.080   3.987  14.471  0.00  0.00    +0.000 OA
ATOM      5  N   UNL     1       7.249   4.600  14.967  0.00  0.00    +0.000 N 
ATOM      6  C   UNL     1       6.990   5.039  16.269  0.00  0.00    +0.000 A 
ATOM      7  C   UNL     1       6.218   4.290  17.145  0.00  0.00    +0.000 A 
ATOM      8  C   UNL     1       6.089   4.738  18.455  0.00  0.00    +0.000 A 
ATOM      9  C   UNL     1       6.590   5.984  18.805  0.00  0.00    +0.000 A 
ATOM     10  C   UNL     1       7.327   6.669  17.856  0.00  0.00    +0.000 A 
ATOM     11  N   UNL     1       7.590   6.194  16.618  0.00  0.00    +0.000 NA
ATOM     12  H   UNL     1       7.660   3.314  12.944  0.00  0.00    +0.000 HD
ATOM     13  H   UNL     1       7.934   5.165  14.492  0.00  0.00    +0.000 HD
ENDROOT
BRANCH   8  14
ATOM     14  O   UNL     1       5.459   4.013  19.442  0.00  0.00    +0.000 OA
BRANCH  14  15
ATOM     15  C   UNL     1       4.142   3.643  19.248  0.00  0.00    +0.000 A 
ATOM     16  C   UNL     1       3.732   2.378  18.812  0.00  0.00    +0.000 A 
ATOM     17  C   UNL     1       2.381   2.116  18.581  0.00  0.00    +0.000 A 
ATOM     18  C   UNL     1       1.428   3.097  18.844  0.00  0.00    +0.000 A 
ATOM     19  C   UNL     1       1.825   4.337  19.347  0.00  0.00    +0.000 A 
ATOM     20  C   UNL     1       3.180   4.610  19.549  0.00  0.00    +0.000 A 
ENDBRANCH  14  15
ENDBRANCH   8  14
TORSDOF 2
ENDMDL
MODEL 4
REMARK VINA RESULT:      -7.5      1.080      1.551
REMARK  Name = 
REMARK  3 active torsions:
REMARK  status: ('A' for Active; 'I' for Inactive)
REMARK    1  A    between atoms: C_1  and  N_2
REMARK    2  A    between atoms: C_8  and  O_9
REMARK    3  A    between atoms: O_9  and  C_10
REMARK                            x       y       z     vdW  Elec       q    Type
REMARK                         _______ _______ _______ _____ _____    ______ ____
ROOT
ATOM      1  C   UNL     1       9.153   9.978  18.566  0.00  0.00    +0.000 C 
ATOM      2  N   UNL     1       8.024   9.457  17.836  0.00  0.00    +0.000 N 
ATOM      3  C   UNL     1       7.734   8.114  17.940  0.00  0.00    +0.000 C 
ATOM      4  O   UNL     1       8.380   7.356  18.654  0.00  0.00    +0.000 OA
ATOM      5  N   UNL     1       6.699   7.753  17.125  0.00  0.00    +0.000 N 
ATOM      6  C   UNL     1       6.242   6.434  17.054  0.00  0.00    +0.000 A 
ATOM      7  C   UNL     1       6.033   5.679  18.198  0.00  0.00    +0.000 A 
ATOM      8  C   UNL     1       5.479   4.410  18.056  0.00  0.00    +0.000 A 
ATOM      9  C   UNL     1       5.304   3.878  16.786  0.00  0.00    +0.000 A 
ATOM     10  C   UNL     1       5.563   4.700  15.704  0.00  0.00    +0.000 A 
ATOM     11  N   UNL     1       5.967   5.985  15.813  0.00  0.00    +0.000 NA
ATOM     12  H   UNL     1       7.209  10.048  17.750  0.00  0.00    +0.000 HD
ATOM     13  H   UNL     1       6.670   8.226  16.236  0.00  0.00    +0.000 HD
ENDROOT
BRANCH   8  14
ATOM     14  O   UNL     1       5.107   3.625  19.125  0.00  0.00    +0.000 OA
BRANCH  14  15
ATOM     15  C   UNL     1       3.772   3.582  19.477  0.00  0.00    +0.000 A 
ATOM     16  C   UNL     1       3.066   4.658  20.030  0.00  0.00    +0.000 A 
ATOM     17  C   UNL     1       1.734   4.501  20.416  0.00  0.00    +0.000 A 
ATOM     18  C   UNL     1       1.085   3.288  20.196  0.00  0.00    +0.000 A 
ATOM     19  C   UNL     1       1.763   2.236  19.580  0.00  0.00    +0.000 A 
ATOM     20  C   UNL     1       3.105   2.383  19.221  0.00  0.00    +0.000 A 
ENDBRANCH  14  15
ENDBRANCH   8  14
TORSDOF 2
ENDMDL
MODEL 5
REMARK VINA RESULT:      -7.3      2.859      4.405
REMARK  Name = 
REMARK  3 active torsions:
REMARK  status: ('A' for Active; 'I' for Inactive)
REMARK    1  A    between atoms: C_1  and  N_2
REMARK    2  A    between atoms: C_8  and  O_9
REMARK    3  A    between atoms: O_9  and  C_10
REMARK                            x       y       z     vdW  Elec       q    Type
REMARK                         _______ _______ _______ _____ _____    ______ ____
ROOT
ATOM      1  C   UNL     1       5.920   3.506  12.041  0.00  0.00    +0.000 C 
ATOM      2  N   UNL     1       6.333   3.173  13.382  0.00  0.00    +0.000 N 
ATOM      3  C   UNL     1       5.996   4.027  14.408  0.00  0.00    +0.000 C 
ATOM      4  O   UNL     1       5.330   5.041  14.227  0.00  0.00    +0.000 OA
ATOM      5  N   UNL     1       6.531   3.628  15.599  0.00  0.00    +0.000 N 
ATOM      6  C   UNL     1       6.333   4.354  16.777  0.00  0.00    +0.000 A 
ATOM      7  C   UNL     1       5.080   4.832  17.130  0.00  0.00    +0.000 A 
ATOM      8  C   UNL     1       4.938   5.455  18.365  0.00  0.00    +0.000 A 
ATOM      9  C   UNL     1       6.065   5.723  19.130  0.00  0.00    +0.000 A 
ATOM     10  C   UNL     1       7.277   5.226  18.685  0.00  0.00    +0.000 A 
ATOM     11  N   UNL     1       7.423   4.494  17.558  0.00  0.00    +0.000 NA
ATOM     12  H   UNL     1       6.332   2.196  13.642  0.00  0.00    +0.000 HD
ATOM     13  H   UNL     1       7.451   3.222  15.539  0.00  0.00    +0.000 HD
ENDROOT
BRANCH   8  14
ATOM     14  O   UNL     1       3.722   5.852  18.875  0.00  0.00    +0.000 OA
BRANCH  14  15
ATOM     15  C   UNL     1       2.807   4.878  19.227  0.00  0.00    +0.000 A 
ATOM     16  C   UNL     1       1.896   4.293  18.340  0.00  0.00    +0.000 A 
ATOM     17  C   UNL     1       0.964   3.363  18.802  0.00  0.00    +0.000 A 
ATOM     18  C   UNL     1       0.977   2.969  20.138  0.00  0.00    +0.000 A 
ATOM     19  C   UNL     1       1.929   3.496  21.010  0.00  0.00    +0.000 A 
ATOM     20  C   UNL     1       2.844   4.450  20.556  0.00  0.00    +0.000 A 
ENDBRANCH  14  15
ENDBRANCH   8  14
TORSDOF 2
ENDMDL
MODEL 6
REMARK VINA RESULT:      -7.1      2.421      4.665
REMARK  Name = 
REMARK  3 active torsions:
REMARK  status: ('A' for Active; 'I' for Inactive)
REMARK    1  A    between atoms: C_1  and  N_2
REMARK    2  A    between atoms: C_8  and  O_9
REMARK    3  A    between atoms: O_9  and  C_10
REMARK                            x       y       z     vdW  Elec       q    Type
REMARK                         _______ _______ _______ _____ _____    ______ ____
ROOT
ATOM      1  C   UNL     1       5.694   2.558  11.488  0.00  0.00    +0.000 C 
ATOM      2  N   UNL     1       6.411   2.856  12.703  0.00  0.00    +0.000 N 
ATOM      3  C   UNL     1       5.875   3.775  13.577  0.00  0.00    +0.000 C 
ATOM      4  O   UNL     1       4.796   4.322  13.375  0.00  0.00    +0.000 OA
ATOM      5  N   UNL     1       6.707   4.019  14.632  0.00  0.00    +0.000 N 
ATOM      6  C   UNL     1       6.375   4.932  15.638  0.00  0.00    +0.000 A 
ATOM      7  C   UNL     1       5.112   4.947  16.211  0.00  0.00    +0.000 A 
ATOM      8  C   UNL     1       4.885   5.812  17.277  0.00  0.00    +0.000 A 
ATOM      9  C   UNL     1       5.860   6.735  17.629  0.00  0.00    +0.000 A 
ATOM     10  C   UNL     1       7.081   6.657  16.984  0.00  0.00    +0.000 A 
ATOM     11  N   UNL     1       7.378   5.735  16.042  0.00  0.00    +0.000 NA
ATOM     12  H   UNL     1       6.903   2.097  13.154  0.00  0.00    +0.000 HD
ATOM     13  H   UNL     1       7.690   4.022  14.409  0.00  0.00    +0.000 HD
ENDROOT
BRANCH   8  14
ATOM     14  O   UNL     1       3.716   5.821  18.005  0.00  0.00    +0.000 OA
BRANCH  14  15
ATOM     15  C   UNL     1       3.198   4.614  18.433  0.00  0.00    +0.000 A 
ATOM     16  C   UNL     1       3.822   3.771  19.360  0.00  0.00    +0.000 A 
ATOM     17  C   UNL     1       3.253   2.538  19.684  0.00  0.00    +0.000 A 
ATOM     18  C   UNL     1       2.029   2.170  19.130  0.00  0.00    +0.000 A 
ATOM     19  C   UNL     1       1.368   3.038  18.261  0.00  0.00    +0.000 A 
ATOM     20  C   UNL     1       1.951   4.259  17.913  0.00  0.00    +0.000 A 
ENDBRANCH  14  15
ENDBRANCH   8  14
TORSDOF 2
ENDMDL
MODEL 7
REMARK VINA RESULT:      -7.0      3.023      3.935
REMARK  Name = 
REMARK  3 active torsions:
REMARK  status: ('A' for Active; 'I' for Inactive)
REMARK    1  A    between atoms: C_1  and  N_2
REMARK    2  A    between atoms: C_8  and  O_9
REMARK    3  A    between atoms: O_9  and  C_10
REMARK                            x       y       z     vdW  Elec       q    Type
REMARK                         _______ _______ _______ _____ _____    ______ ____
ROOT
ATOM      1  C   UNL     1       0.903   9.984  18.746  0.00  0.00    +0.000 C 
ATOM      2  N   UNL     1       1.851   9.410  17.824  0.00  0.00    +0.000 N 
ATOM      3  C   UNL     1       2.493   8.244  18.178  0.00  0.00    +0.000 C 
ATOM      4  O   UNL     1       2.264   7.661  19.232  0.00  0.00    +0.000 OA
ATOM      5  N   UNL     1       3.423   7.874  17.248  0.00  0.00    +0.000 N 
ATOM      6  C   UNL     1       4.209   6.728  17.407  0.00  0.00    +0.000 A 
ATOM      7  C   UNL     1       3.656   5.522  17.810  0.00  0.00    +0.000 A 
ATOM      8  C   UNL     1       4.478   4.401  17.846  0.00  0.00    +0.000 A 
ATOM      9  C   UNL     1       5.843   4.547  17.638  0.00  0.00    +0.000 A 
ATOM     10  C   UNL     1       6.306   5.795  17.262  0.00  0.00    +0.000 A 
ATOM     11  N   UNL     1       5.509   6.871  17.081  0.00  0.00    +0.000 NA
ATOM     12  H   UNL     1       1.646   9.484  16.837  0.00  0.00    +0.000 HD
ATOM     13  H   UNL     1       3.922   8.635  16.816  0.00  0.00    +0.000 HD
ENDROOT
BRANCH   8  14
ATOM     14  O   UNL     1       4.012   3.131  18.104  0.00  0.00    +0.000 OA
BRANCH  14  15
ATOM     15  C   UNL     1       3.032   2.972  19.064  0.00  0.00    +0.000 A 
ATOM     16  C   UNL     1       1.663   2.880  18.786  0.00  0.00    +0.000 A 
ATOM     17  C   UNL     1       0.739   2.786  19.828  0.00  0.00    +0.000 A 
ATOM     18  C   UNL     1       1.182   2.722  21.147  0.00  0.00    +0.000 A 
ATOM     19  C   UNL     1       2.549   2.742  21.424  0.00  0.00    +0.000 A 
ATOM     20  C   UNL     1       3.473   2.866  20.385  0.00  0.00    +0.000 A 
ENDBRANCH  14  15
ENDBRANCH   8  14
TORSDOF 2
ENDMDL
MODEL 8
REMARK VINA RESULT:      -7.0      2.524      4.751
REMARK  Name = 
REMARK  3 active torsions:
REMARK  status: ('A' for Active; 'I' for Inactive)
REMARK    1  A    between atoms: C_1  and  N_2
REMARK    2  A    between atoms: C_8  and  O_9
REMARK    3  A    between atoms: O_9  and  C_10
REMARK                            x       y       z     vdW  Elec       q    Type
REMARK                         _______ _______ _______ _____ _____    ______ ____
ROOT
ATOM      1  C   UNL     1       5.617   2.567  11.365  0.00  0.00    +0.000 C 
ATOM      2  N   UNL     1       6.305   2.774  12.615  0.00  0.00    +0.000 N 
ATOM      3  C   UNL     1       5.825   3.730  13.482  0.00  0.00    +0.000 C 
ATOM      4  O   UNL     1       4.817   4.388  13.243  0.00  0.00    +0.000 OA
ATOM      5  N   UNL     1       6.628   3.873  14.577  0.00  0.00    +0.000 N 
ATOM      6  C   UNL     1       6.344   4.800  15.584  0.00  0.00    +0.000 A 
ATOM      7  C   UNL     1       5.065   4.937  16.101  0.00  0.00    +0.000 A 
ATOM      8  C   UNL     1       4.878   5.805  17.172  0.00  0.00    +0.000 A 
ATOM      9  C   UNL     1       5.924   6.619  17.584  0.00  0.00    +0.000 A 
ATOM     10  C   UNL     1       7.159   6.426  16.992  0.00  0.00    +0.000 A 
ATOM     11  N   UNL     1       7.405   5.492  16.047  0.00  0.00    +0.000 NA
ATOM     12  H   UNL     1       6.696   1.962  13.074  0.00  0.00    +0.000 HD
ATOM     13  H   UNL     1       7.615   3.779  14.398  0.00  0.00    +0.000 HD
ENDROOT
BRANCH   8  14
ATOM     14  O   UNL     1       3.684   5.923  17.848  0.00  0.00    +0.000 OA
BRANCH  14  15
ATOM     15  C   UNL     1       3.080   4.776  18.325  0.00  0.00    +0.000 A 
ATOM     16  C   UNL     1       1.920   4.211  17.784  0.00  0.00    +0.000 A 
ATOM     17  C   UNL     1       1.345   3.084  18.374  0.00  0.00    +0.000 A 
ATOM     18  C   UNL     1       1.960   2.482  19.469  0.00  0.00    +0.000 A 
ATOM     19  C   UNL     1       3.156   3.000  19.968  0.00  0.00    +0.000 A 
ATOM     20  C   UNL     1       3.716   4.145  19.396  0.00  0.00    +0.000 A 
ENDBRANCH  14  15
ENDBRANCH   8  14
TORSDOF 2
ENDMDL
MODEL 9
REMARK VINA RESULT:      -7.0      1.229      1.677
REMARK  Name = 
REMARK  3 active torsions:
REMARK  status: ('A' for Active; 'I' for Inactive)
REMARK    1  A    between atoms: C_1  and  N_2
REMARK    2  A    between atoms: C_8  and  O_9
REMARK    3  A    between atoms: O_9  and  C_10
REMARK                            x       y       z     vdW  Elec       q    Type
REMARK                         _______ _______ _______ _____ _____    ______ ____
ROOT
ATOM      1  C   UNL     1       9.078   9.564  18.975  0.00  0.00    +0.000 C 
ATOM      2  N   UNL     1       8.187   9.125  17.929  0.00  0.00    +0.000 N 
ATOM      3  C   UNL     1       7.805   7.802  17.899  0.00  0.00    +0.000 C 
ATOM      4  O   UNL     1       8.169   6.994  18.746  0.00  0.00    +0.000 OA
ATOM      5  N   UNL     1       7.038   7.519  16.805  0.00  0.00    +0.000 N 
ATOM      6  C   UNL     1       6.550   6.233  16.559  0.00  0.00    +0.000 A 
ATOM      7  C   UNL     1       5.970   5.475  17.566  0.00  0.00    +0.000 A 
ATOM      8  C   UNL     1       5.413   4.247  17.226  0.00  0.00    +0.000 A 
ATOM      9  C   UNL     1       5.591   3.745  15.944  0.00  0.00    +0.000 A 
ATOM     10  C   UNL     1       6.203   4.566  15.013  0.00  0.00    +0.000 A 
ATOM     11  N   UNL     1       6.627   5.821  15.278  0.00  0.00    +0.000 NA
ATOM     12  H   UNL     1       7.468   9.768  17.627  0.00  0.00    +0.000 HD
ATOM     13  H   UNL     1       7.299   8.007  15.963  0.00  0.00    +0.000 HD
ENDROOT
BRANCH   8  14
ATOM     14  O   UNL     1       4.699   3.471  18.112  0.00  0.00    +0.000 OA
BRANCH  14  15
ATOM     15  C   UNL     1       3.690   4.066  18.844  0.00  0.00    +0.000 A 
ATOM     16  C   UNL     1       2.982   5.202  18.434  0.00  0.00    +0.000 A 
ATOM     17  C   UNL     1       2.021   5.772  19.271  0.00  0.00    +0.000 A 
ATOM     18  C   UNL     1       1.721   5.174  20.492  0.00  0.00    +0.000 A 
ATOM     19  C   UNL     1       2.373   4.001  20.873  0.00  0.00    +0.000 A 
ATOM     20  C   UNL     1       3.356   3.447  20.050  0.00  0.00    +0.000 A 
ENDBRANCH  14  15
ENDBRANCH   8  14
TORSDOF 2
ENDMDL
