MODEL 1
REMARK VINA RESULT:      -7.3      0.000      0.000
REMARK  Name = 
REMARK  10 active torsions:
REMARK  status: ('A' for Active; 'I' for Inactive)
REMARK    1  A    between atoms: C_1  and  C_2
REMARK    2  A    between atoms: C_5  and  S_6
REMARK    3  A    between atoms: S_6  and  N_9
REMARK    4  A    between atoms: N_9  and  C_10
REMARK    5  A    between atoms: N_9  and  C_20
REMARK    6  A    between atoms: C_10  and  C_11
REMARK    7  A    between atoms: C_14  and  C_15
REMARK    8  A    between atoms: C_15  and  O_17
REMARK    9  A    between atoms: C_20  and  C_21
REMARK   10  A    between atoms: C_29  and  O_30
REMARK                            x       y       z     vdW  Elec       q    Type
REMARK                         _______ _______ _______ _____ _____    ______ ____
ROOT
ATOM      1  N   UNL     1       0.167  12.725  20.854  0.00  0.00    +0.000 NA
ENDROOT
BRANCH   1   2
ATOM      2  S   UNL     1       1.612  13.318  20.198  0.00  0.00    +0.000 S 
ATOM      3  O   UNL     1       2.033  12.413  19.149  0.00  0.00    +0.000 OA
ATOM      4  O   UNL     1       2.530  13.620  21.279  0.00  0.00    +0.000 OA
BRANCH   2   9
ATOM      5  C   UNL     1       0.134  18.430  17.236  0.00  0.00    +0.000 C 
ATOM      6  C   UNL     1       0.527  17.193  17.992  0.00  0.00    +0.000 A 
ATOM      7  C   UNL     1       1.870  16.850  18.193  0.00  0.00    +0.000 A 
ATOM      8  C   UNL     1       2.212  15.699  18.917  0.00  0.00    +0.000 A 
ATOM      9  C   UNL     1       1.204  14.883  19.445  0.00  0.00    +0.000 A 
ATOM     10  C   UNL     1      -0.136  15.196  19.206  0.00  0.00    +0.000 A 
ATOM     11  C   UNL     1      -0.472  16.351  18.496  0.00  0.00    +0.000 A 
ENDBRANCH   2   9
ENDBRANCH   1   2
BRANCH   1  12
ATOM     12  C   UNL     1      -0.298  11.354  20.526  0.00  0.00    +0.000 C 
BRANCH  12  13
ATOM     13  C   UNL     1      -1.205  11.137  19.322  0.00  0.00    +0.000 A 
ATOM     14  C   UNL     1      -2.367  11.896  19.104  0.00  0.00    +0.000 A 
ATOM     15  C   UNL     1      -3.128  11.724  17.933  0.00  0.00    +0.000 A 
ATOM     16  C   UNL     1      -2.752  10.780  16.968  0.00  0.00    +0.000 A 
ATOM     17  C   UNL     1      -1.584  10.041  17.162  0.00  0.00    +0.000 A 
ATOM     18  C   UNL     1      -0.826  10.221  18.326  0.00  0.00    +0.000 A 
BRANCH  16  19
ATOM     19  C   UNL     1      -3.571  10.645  15.733  0.00  0.00    +0.000 C 
ATOM     20  O   UNL     1      -3.098  10.337  14.654  0.00  0.00    +0.000 OA
BRANCH  19  21
ATOM     21  O   UNL     1      -4.882  10.919  15.909  0.00  0.00    +0.000 OA
ATOM     22  H   UNL     1      -5.100  11.402  16.727  0.00  0.00    +0.000 HD
ENDBRANCH  19  21
ENDBRANCH  16  19
ENDBRANCH  12  13
ENDBRANCH   1  12
BRANCH   1  23
ATOM     23  C   UNL     1      -0.146  13.166  22.242  0.00  0.00    +0.000 C 
BRANCH  23  24
ATOM     24  C   UNL     1      -1.605  13.032  22.644  0.00  0.00    +0.000 A 
ATOM     25  C   UNL     1      -2.061  11.905  23.305  0.00  0.00    +0.000 A 
ATOM     26  N   UNL     1      -3.338  11.766  23.741  0.00  0.00    +0.000 NA
ATOM     27  C   UNL     1      -4.182  12.783  23.551  0.00  0.00    +0.000 A 
ATOM     28  N   UNL     1      -5.415  12.654  24.041  0.00  0.00    +0.000 NA
ATOM     29  C   UNL     1      -6.268  13.657  23.872  0.00  0.00    +0.000 A 
ATOM     30  N   UNL     1      -7.522  13.529  24.426  0.00  0.00    +0.000 N 
ATOM     31  N   UNL     1      -6.006  14.761  23.184  0.00  0.00    +0.000 NA
ATOM     32  C   UNL     1      -4.753  14.846  22.709  0.00  0.00    +0.000 A 
ATOM     33  C   UNL     1      -3.743  13.913  22.853  0.00  0.00    +0.000 A 
ATOM     34  N   UNL     1      -2.460  14.049  22.378  0.00  0.00    +0.000 NA
ATOM     35  H   UNL     1      -7.735  12.561  24.628  0.00  0.00    +0.000 HD
ATOM     36  H   UNL     1      -8.214  14.072  23.931  0.00  0.00    +0.000 HD
BRANCH  32  37
ATOM     37  O   UNL     1      -4.542  16.005  22.014  0.00  0.00    +0.000 OA
ATOM     38  H   UNL     1      -5.298  16.540  22.314  0.00  0.00    +0.000 HD
ENDBRANCH  32  37
ENDBRANCH  23  24
ENDBRANCH   1  23
TORSDOF 9
ENDMDL
MODEL 2
REMARK VINA RESULT:      -7.2      4.093      7.585
REMARK  Name = 
REMARK  10 active torsions:
REMARK  status: ('A' for Active; 'I' for Inactive)
REMARK    1  A    between atoms: C_1  and  C_2
REMARK    2  A    between atoms: C_5  and  S_6
REMARK    3  A    between atoms: S_6  and  N_9
REMARK    4  A    between atoms: N_9  and  C_10
REMARK    5  A    between atoms: N_9  and  C_20
REMARK    6  A    between atoms: C_10  and  C_11
REMARK    7  A    between atoms: C_14  and  C_15
REMARK    8  A    between atoms: C_15  and  O_17
REMARK    9  A    between atoms: C_20  and  C_21
REMARK   10  A    between atoms: C_29  and  O_30
REMARK                            x       y       z     vdW  Elec       q    Type
REMARK                         _______ _______ _______ _____ _____    ______ ____
ROOT
ATOM      1  N   UNL     1      -0.450  10.553  20.144  0.00  0.00    +0.000 NA
ENDROOT
BRANCH   1   2
ATOM      2  S   UNL     1      -0.150  10.421  21.806  0.00  0.00    +0.000 S 
ATOM      3  O   UNL     1       1.268  10.622  22.022  0.00  0.00    +0.000 OA
ATOM      4  O   UNL     1      -0.772   9.209  22.302  0.00  0.00    +0.000 OA
BRANCH   2   9
ATOM      5  C   UNL     1      -3.411  15.044  24.058  0.00  0.00    +0.000 C 
ATOM      6  C   UNL     1      -2.571  13.919  23.524  0.00  0.00    +0.000 A 
ATOM      7  C   UNL     1      -1.340  14.156  22.898  0.00  0.00    +0.000 A 
ATOM      8  C   UNL     1      -0.565  13.088  22.422  0.00  0.00    +0.000 A 
ATOM      9  C   UNL     1      -1.023  11.774  22.573  0.00  0.00    +0.000 A 
ATOM     10  C   UNL     1      -2.271  11.537  23.154  0.00  0.00    +0.000 A 
ATOM     11  C   UNL     1      -3.033  12.603  23.638  0.00  0.00    +0.000 A 
ENDBRANCH   2   9
ENDBRANCH   1   2
BRANCH   1  12
ATOM     12  C   UNL     1      -1.704  11.178  19.655  0.00  0.00    +0.000 C 
BRANCH  12  13
ATOM     13  C   UNL     1      -2.217  10.841  18.261  0.00  0.00    +0.000 A 
ATOM     14  C   UNL     1      -3.197  11.608  17.610  0.00  0.00    +0.000 A 
ATOM     15  C   UNL     1      -3.579  11.314  16.288  0.00  0.00    +0.000 A 
ATOM     16  C   UNL     1      -3.000  10.241  15.599  0.00  0.00    +0.000 A 
ATOM     17  C   UNL     1      -2.005   9.490  16.227  0.00  0.00    +0.000 A 
ATOM     18  C   UNL     1      -1.624   9.790  17.541  0.00  0.00    +0.000 A 
BRANCH  16  19
ATOM     19  C   UNL     1      -3.414   9.978  14.194  0.00  0.00    +0.000 C 
ATOM     20  O   UNL     1      -4.578   9.864  13.855  0.00  0.00    +0.000 OA
BRANCH  19  21
ATOM     21  O   UNL     1      -2.382   9.850  13.331  0.00  0.00    +0.000 OA
ATOM     22  H   UNL     1      -2.090   8.935  13.164  0.00  0.00    +0.000 HD
ENDBRANCH  19  21
ENDBRANCH  16  19
ENDBRANCH  12  13
ENDBRANCH   1  12
BRANCH   1  23
ATOM     23  C   UNL     1       0.741  10.810  19.286  0.00  0.00    +0.000 C 
BRANCH  23  24
ATOM     24  C   UNL     1       1.483   9.567  18.828  0.00  0.00    +0.000 A 
ATOM     25  C   UNL     1       2.145   9.539  17.612  0.00  0.00    +0.000 A 
ATOM     26  N   UNL     1       2.874   8.477  17.189  0.00  0.00    +0.000 NA
ATOM     27  C   UNL     1       2.983   7.424  18.003  0.00  0.00    +0.000 A 
ATOM     28  N   UNL     1       3.754   6.415  17.596  0.00  0.00    +0.000 NA
ATOM     29  C   UNL     1       3.885   5.362  18.393  0.00  0.00    +0.000 A 
ATOM     30  N   UNL     1       4.724   4.350  17.982  0.00  0.00    +0.000 N 
ATOM     31  N   UNL     1       3.244   5.204  19.545  0.00  0.00    +0.000 NA
ATOM     32  C   UNL     1       2.480   6.245  19.912  0.00  0.00    +0.000 A 
ATOM     33  C   UNL     1       2.290   7.426  19.218  0.00  0.00    +0.000 A 
ATOM     34  N   UNL     1       1.522   8.484  19.642  0.00  0.00    +0.000 NA
ATOM     35  H   UNL     1       4.894   4.399  16.986  0.00  0.00    +0.000 HD
ATOM     36  H   UNL     1       4.463   3.457  18.374  0.00  0.00    +0.000 HD
BRANCH  32  37
ATOM     37  O   UNL     1       1.850   6.026  21.106  0.00  0.00    +0.000 OA
ATOM     38  H   UNL     1       1.999   5.070  21.221  0.00  0.00    +0.000 HD
ENDBRANCH  32  37
ENDBRANCH  23  24
ENDBRANCH   1  23
TORSDOF 9
ENDMDL
MODEL 3
REMARK VINA RESULT:      -7.2      4.957      8.033
REMARK  Name = 
REMARK  10 active torsions:
REMARK  status: ('A' for Active; 'I' for Inactive)
REMARK    1  A    between atoms: C_1  and  C_2
REMARK    2  A    between atoms: C_5  and  S_6
REMARK    3  A    between atoms: S_6  and  N_9
REMARK    4  A    between atoms: N_9  and  C_10
REMARK    5  A    between atoms: N_9  and  C_20
REMARK    6  A    between atoms: C_10  and  C_11
REMARK    7  A    between atoms: C_14  and  C_15
REMARK    8  A    between atoms: C_15  and  O_17
REMARK    9  A    between atoms: C_20  and  C_21
REMARK   10  A    between atoms: C_29  and  O_30
REMARK                            x       y       z     vdW  Elec       q    Type
REMARK                         _______ _______ _______ _____ _____    ______ ____
ROOT
ATOM      1  N   UNL     1       0.676   9.514  20.975  0.00  0.00    +0.000 NA
ENDROOT
BRANCH   1   2
ATOM      2  S   UNL     1      -0.041   9.598  22.508  0.00  0.00    +0.000 S 
ATOM      3  O   UNL     1       1.016   9.581  23.498  0.00  0.00    +0.000 OA
ATOM      4  O   UNL     1      -1.097   8.607  22.589  0.00  0.00    +0.000 OA
BRANCH   2   9
ATOM      5  C   UNL     1      -2.567  15.098  23.179  0.00  0.00    +0.000 C 
ATOM      6  C   UNL     1      -1.981  13.728  22.991  0.00  0.00    +0.000 A 
ATOM      7  C   UNL     1      -2.695  12.570  23.329  0.00  0.00    +0.000 A 
ATOM      8  C   UNL     1      -2.133  11.301  23.130  0.00  0.00    +0.000 A 
ATOM      9  C   UNL     1      -0.848  11.187  22.588  0.00  0.00    +0.000 A 
ATOM     10  C   UNL     1      -0.114  12.338  22.295  0.00  0.00    +0.000 A 
ATOM     11  C   UNL     1      -0.683  13.600  22.483  0.00  0.00    +0.000 A 
ENDBRANCH   2   9
ENDBRANCH   1   2
BRANCH   1  12
ATOM     12  C   UNL     1       0.523  10.634  20.014  0.00  0.00    +0.000 C 
BRANCH  12  13
ATOM     13  C   UNL     1      -0.704  10.686  19.112  0.00  0.00    +0.000 A 
ATOM     14  C   UNL     1      -1.762  11.584  19.326  0.00  0.00    +0.000 A 
ATOM     15  C   UNL     1      -2.835  11.661  18.419  0.00  0.00    +0.000 A 
ATOM     16  C   UNL     1      -2.877  10.832  17.291  0.00  0.00    +0.000 A 
ATOM     17  C   UNL     1      -1.817   9.956  17.053  0.00  0.00    +0.000 A 
ATOM     18  C   UNL     1      -0.748   9.888  17.956  0.00  0.00    +0.000 A 
BRANCH  16  19
ATOM     19  C   UNL     1      -4.017  10.960  16.343  0.00  0.00    +0.000 C 
ATOM     20  O   UNL     1      -5.020  11.603  16.595  0.00  0.00    +0.000 OA
BRANCH  19  21
ATOM     21  O   UNL     1      -3.852  10.278  15.188  0.00  0.00    +0.000 OA
ATOM     22  H   UNL     1      -4.672  10.084  14.699  0.00  0.00    +0.000 HD
ENDBRANCH  19  21
ENDBRANCH  16  19
ENDBRANCH  12  13
ENDBRANCH   1  12
BRANCH   1  23
ATOM     23  C   UNL     1       1.994   8.822  20.911  0.00  0.00    +0.000 C 
BRANCH  23  24
ATOM     24  C   UNL     1       2.012   7.551  20.080  0.00  0.00    +0.000 A 
ATOM     25  C   UNL     1       2.259   7.593  18.718  0.00  0.00    +0.000 A 
ATOM     26  N   UNL     1       2.349   6.482  17.946  0.00  0.00    +0.000 NA
ATOM     27  C   UNL     1       2.225   5.292  18.539  0.00  0.00    +0.000 A 
ATOM     28  N   UNL     1       2.378   4.210  17.775  0.00  0.00    +0.000 NA
ATOM     29  C   UNL     1       2.270   3.016  18.344  0.00  0.00    +0.000 A 
ATOM     30  N   UNL     1       2.479   1.909  17.553  0.00  0.00    +0.000 N 
ATOM     31  N   UNL     1       1.948   2.815  19.617  0.00  0.00    +0.000 NA
ATOM     32  C   UNL     1       1.804   3.933  20.346  0.00  0.00    +0.000 A 
ATOM     33  C   UNL     1       1.940   5.237  19.907  0.00  0.00    +0.000 A 
ATOM     34  N   UNL     1       1.815   6.359  20.692  0.00  0.00    +0.000 NA
ATOM     35  H   UNL     1       2.387   2.139  16.573  0.00  0.00    +0.000 HD
ATOM     36  H   UNL     1       1.988   1.097  17.897  0.00  0.00    +0.000 HD
BRANCH  32  37
ATOM     37  O   UNL     1       1.477   3.662  21.645  0.00  0.00    +0.000 OA
ATOM     38  H   UNL     1       0.608   4.096  21.712  0.00  0.00    +0.000 HD
ENDBRANCH  32  37
ENDBRANCH  23  24
ENDBRANCH   1  23
TORSDOF 9
ENDMDL
MODEL 4
REMARK VINA RESULT:      -7.1      4.391      7.682
REMARK  Name = 
REMARK  10 active torsions:
REMARK  status: ('A' for Active; 'I' for Inactive)
REMARK    1  A    between atoms: C_1  and  C_2
REMARK    2  A    between atoms: C_5  and  S_6
REMARK    3  A    between atoms: S_6  and  N_9
REMARK    4  A    between atoms: N_9  and  C_10
REMARK    5  A    between atoms: N_9  and  C_20
REMARK    6  A    between atoms: C_10  and  C_11
REMARK    7  A    between atoms: C_14  and  C_15
REMARK    8  A    between atoms: C_15  and  O_17
REMARK    9  A    between atoms: C_20  and  C_21
REMARK   10  A    between atoms: C_29  and  O_30
REMARK                            x       y       z     vdW  Elec       q    Type
REMARK                         _______ _______ _______ _____ _____    ______ ____
ROOT
ATOM      1  N   UNL     1       0.288  10.454  18.364  0.00  0.00    +0.000 NA
ENDROOT
BRANCH   1   2
ATOM      2  S   UNL     1       0.238  12.036  18.971  0.00  0.00    +0.000 S 
ATOM      3  O   UNL     1      -0.338  12.888  17.952  0.00  0.00    +0.000 OA
ATOM      4  O   UNL     1       1.538  12.371  19.518  0.00  0.00    +0.000 OA
BRANCH   2   9
ATOM      5  C   UNL     1      -3.433  12.318  23.821  0.00  0.00    +0.000 C 
ATOM      6  C   UNL     1      -2.527  12.203  22.629  0.00  0.00    +0.000 A 
ATOM      7  C   UNL     1      -1.345  11.453  22.674  0.00  0.00    +0.000 A 
ATOM      8  C   UNL     1      -0.523  11.348  21.543  0.00  0.00    +0.000 A 
ATOM      9  C   UNL     1      -0.885  11.996  20.357  0.00  0.00    +0.000 A 
ATOM     10  C   UNL     1      -2.038  12.784  20.321  0.00  0.00    +0.000 A 
ATOM     11  C   UNL     1      -2.860  12.876  21.447  0.00  0.00    +0.000 A 
ENDBRANCH   2   9
ENDBRANCH   1   2
BRANCH   1  12
ATOM     12  C   UNL     1      -0.691  10.012  17.341  0.00  0.00    +0.000 C 
BRANCH  12  13
ATOM     13  C   UNL     1      -2.150  10.433  17.467  0.00  0.00    +0.000 A 
ATOM     14  C   UNL     1      -2.769  11.299  16.550  0.00  0.00    +0.000 A 
ATOM     15  C   UNL     1      -4.142  11.592  16.653  0.00  0.00    +0.000 A 
ATOM     16  C   UNL     1      -4.915  11.038  17.681  0.00  0.00    +0.000 A 
ATOM     17  C   UNL     1      -4.316  10.155  18.580  0.00  0.00    +0.000 A 
ATOM     18  C   UNL     1      -2.951   9.861  18.470  0.00  0.00    +0.000 A 
BRANCH  16  19
ATOM     19  C   UNL     1      -6.369  11.354  17.740  0.00  0.00    +0.000 C 
ATOM     20  O   UNL     1      -7.139  10.790  18.496  0.00  0.00    +0.000 OA
BRANCH  19  21
ATOM     21  O   UNL     1      -6.762  12.304  16.864  0.00  0.00    +0.000 OA
ATOM     22  H   UNL     1      -7.118  13.118  17.264  0.00  0.00    +0.000 HD
ENDBRANCH  19  21
ENDBRANCH  16  19
ENDBRANCH  12  13
ENDBRANCH   1  12
BRANCH   1  23
ATOM     23  C   UNL     1       1.645   9.858  18.217  0.00  0.00    +0.000 C 
BRANCH  23  24
ATOM     24  C   UNL     1       1.855   8.549  18.958  0.00  0.00    +0.000 A 
ATOM     25  C   UNL     1       1.385   8.378  20.249  0.00  0.00    +0.000 A 
ATOM     26  N   UNL     1       1.492   7.209  20.929  0.00  0.00    +0.000 NA
ATOM     27  C   UNL     1       2.047   6.167  20.305  0.00  0.00    +0.000 A 
ATOM     28  N   UNL     1       2.086   5.010  20.966  0.00  0.00    +0.000 NA
ATOM     29  C   UNL     1       2.625   3.958  20.362  0.00  0.00    +0.000 A 
ATOM     30  N   UNL     1       2.614   2.758  21.038  0.00  0.00    +0.000 N 
ATOM     31  N   UNL     1       3.196   3.987  19.164  0.00  0.00    +0.000 NA
ATOM     32  C   UNL     1       3.132   5.173  18.538  0.00  0.00    +0.000 A 
ATOM     33  C   UNL     1       2.557   6.337  19.014  0.00  0.00    +0.000 A 
ATOM     34  N   UNL     1       2.484   7.527  18.329  0.00  0.00    +0.000 NA
ATOM     35  H   UNL     1       2.473   2.899  22.029  0.00  0.00    +0.000 HD
ATOM     36  H   UNL     1       3.366   2.152  20.748  0.00  0.00    +0.000 HD
BRANCH  32  37
ATOM     37  O   UNL     1       3.732   5.140  17.310  0.00  0.00    +0.000 OA
ATOM     38  H   UNL     1       4.262   4.327  17.384  0.00  0.00    +0.000 HD
ENDBRANCH  32  37
ENDBRANCH  23  24
ENDBRANCH   1  23
TORSDOF 9
ENDMDL
MODEL 5
REMARK VINA RESULT:      -7.1      3.157      5.921
REMARK  Name = 
REMARK  10 active torsions:
REMARK  status: ('A' for Active; 'I' for Inactive)
REMARK    1  A    between atoms: C_1  and  C_2
REMARK    2  A    between atoms: C_5  and  S_6
REMARK    3  A    between atoms: S_6  and  N_9
REMARK    4  A    between atoms: N_9  and  C_10
REMARK    5  A    between atoms: N_9  and  C_20
REMARK    6  A    between atoms: C_10  and  C_11
REMARK    7  A    between atoms: C_14  and  C_15
REMARK    8  A    between atoms: C_15  and  O_17
REMARK    9  A    between atoms: C_20  and  C_21
REMARK   10  A    between atoms: C_29  and  O_30
REMARK                            x       y       z     vdW  Elec       q    Type
REMARK                         _______ _______ _______ _____ _____    ______ ____
ROOT
ATOM      1  N   UNL     1      -3.126  14.215  21.904  0.00  0.00    +0.000 NA
ENDROOT
BRANCH   1   2
ATOM      2  S   UNL     1      -3.416  15.883  21.834  0.00  0.00    +0.000 S 
ATOM      3  O   UNL     1      -2.803  16.494  22.994  0.00  0.00    +0.000 OA
ATOM      4  O   UNL     1      -4.827  16.105  21.584  0.00  0.00    +0.000 OA
BRANCH   2   9
ATOM      5  C   UNL     1      -0.199  18.108  17.167  0.00  0.00    +0.000 C 
ATOM      6  C   UNL     1      -1.029  17.560  18.292  0.00  0.00    +0.000 A 
ATOM      7  C   UNL     1      -2.236  18.160  18.674  0.00  0.00    +0.000 A 
ATOM      8  C   UNL     1      -3.002  17.619  19.717  0.00  0.00    +0.000 A 
ATOM      9  C   UNL     1      -2.560  16.471  20.383  0.00  0.00    +0.000 A 
ATOM     10  C   UNL     1      -1.334  15.897  20.037  0.00  0.00    +0.000 A 
ATOM     11  C   UNL     1      -0.580  16.431  18.989  0.00  0.00    +0.000 A 
ENDBRANCH   2   9
ENDBRANCH   1   2
BRANCH   1  12
ATOM     12  C   UNL     1      -2.137  13.666  22.864  0.00  0.00    +0.000 C 
BRANCH  12  13
ATOM     13  C   UNL     1      -1.297  12.458  22.468  0.00  0.00    +0.000 A 
ATOM     14  C   UNL     1      -0.269  12.533  21.514  0.00  0.00    +0.000 A 
ATOM     15  C   UNL     1       0.542  11.415  21.241  0.00  0.00    +0.000 A 
ATOM     16  C   UNL     1       0.328  10.200  21.904  0.00  0.00    +0.000 A 
ATOM     17  C   UNL     1      -0.672  10.123  22.874  0.00  0.00    +0.000 A 
ATOM     18  C   UNL     1      -1.472  11.240  23.146  0.00  0.00    +0.000 A 
BRANCH  16  19
ATOM     19  C   UNL     1       1.222   9.048  21.605  0.00  0.00    +0.000 C 
ATOM     20  O   UNL     1       1.184   8.435  20.554  0.00  0.00    +0.000 OA
BRANCH  19  21
ATOM     21  O   UNL     1       2.063   8.727  22.613  0.00  0.00    +0.000 OA
ATOM     22  H   UNL     1       2.554   9.475  22.999  0.00  0.00    +0.000 HD
ENDBRANCH  19  21
ENDBRANCH  16  19
ENDBRANCH  12  13
ENDBRANCH   1  12
BRANCH   1  23
ATOM     23  C   UNL     1      -4.308  13.339  21.669  0.00  0.00    +0.000 C 
BRANCH  23  24
ATOM     24  C   UNL     1      -4.348  12.666  20.308  0.00  0.00    +0.000 A 
ATOM     25  C   UNL     1      -5.553  12.398  19.680  0.00  0.00    +0.000 A 
ATOM     26  N   UNL     1      -5.639  11.858  18.440  0.00  0.00    +0.000 NA
ATOM     27  C   UNL     1      -4.504  11.606  17.783  0.00  0.00    +0.000 A 
ATOM     28  N   UNL     1      -4.609  11.133  16.541  0.00  0.00    +0.000 NA
ATOM     29  C   UNL     1      -3.494  10.885  15.866  0.00  0.00    +0.000 A 
ATOM     30  N   UNL     1      -3.618  10.444  14.567  0.00  0.00    +0.000 N 
ATOM     31  N   UNL     1      -2.268  11.006  16.362  0.00  0.00    +0.000 NA
ATOM     32  C   UNL     1      -2.213  11.485  17.616  0.00  0.00    +0.000 A 
ATOM     33  C   UNL     1      -3.281  11.839  18.420  0.00  0.00    +0.000 A 
ATOM     34  N   UNL     1      -3.183  12.356  19.690  0.00  0.00    +0.000 NA
ATOM     35  H   UNL     1      -4.543  10.074  14.394  0.00  0.00    +0.000 HD
ATOM     36  H   UNL     1      -2.825   9.892  14.275  0.00  0.00    +0.000 HD
BRANCH  32  37
ATOM     37  O   UNL     1      -0.928  11.591  18.071  0.00  0.00    +0.000 OA
ATOM     38  H   UNL     1      -1.013  12.337  18.691  0.00  0.00    +0.000 HD
ENDBRANCH  32  37
ENDBRANCH  23  24
ENDBRANCH   1  23
TORSDOF 9
ENDMDL
MODEL 6
REMARK VINA RESULT:      -7.1      4.062      7.685
REMARK  Name = 
REMARK  10 active torsions:
REMARK  status: ('A' for Active; 'I' for Inactive)
REMARK    1  A    between atoms: C_1  and  C_2
REMARK    2  A    between atoms: C_5  and  S_6
REMARK    3  A    between atoms: S_6  and  N_9
REMARK    4  A    between atoms: N_9  and  C_10
REMARK    5  A    between atoms: N_9  and  C_20
REMARK    6  A    between atoms: C_10  and  C_11
REMARK    7  A    between atoms: C_14  and  C_15
REMARK    8  A    between atoms: C_15  and  O_17
REMARK    9  A    between atoms: C_20  and  C_21
REMARK   10  A    between atoms: C_29  and  O_30
REMARK                            x       y       z     vdW  Elec       q    Type
REMARK                         _______ _______ _______ _____ _____    ______ ____
ROOT
ATOM      1  N   UNL     1       0.598  11.549  19.422  0.00  0.00    +0.000 NA
ENDROOT
BRANCH   1   2
ATOM      2  S   UNL     1       1.593  12.833  19.901  0.00  0.00    +0.000 S 
ATOM      3  O   UNL     1       2.612  13.012  18.888  0.00  0.00    +0.000 OA
ATOM      4  O   UNL     1       1.998  12.627  21.278  0.00  0.00    +0.000 OA
BRANCH   2   9
ATOM      5  C   UNL     1      -1.559  18.043  19.854  0.00  0.00    +0.000 C 
ATOM      6  C   UNL     1      -0.813  16.740  19.892  0.00  0.00    +0.000 A 
ATOM      7  C   UNL     1      -0.515  16.100  21.102  0.00  0.00    +0.000 A 
ATOM      8  C   UNL     1       0.169  14.875  21.112  0.00  0.00    +0.000 A 
ATOM      9  C   UNL     1       0.558  14.286  19.904  0.00  0.00    +0.000 A 
ATOM     10  C   UNL     1       0.305  14.944  18.698  0.00  0.00    +0.000 A 
ATOM     11  C   UNL     1      -0.387  16.157  18.692  0.00  0.00    +0.000 A 
ENDBRANCH   2   9
ENDBRANCH   1   2
BRANCH   1  12
ATOM     12  C   UNL     1      -0.875  11.722  19.369  0.00  0.00    +0.000 C 
BRANCH  12  13
ATOM     13  C   UNL     1      -1.656  11.906  20.664  0.00  0.00    +0.000 A 
ATOM     14  C   UNL     1      -1.203  11.411  21.898  0.00  0.00    +0.000 A 
ATOM     15  C   UNL     1      -1.911  11.680  23.084  0.00  0.00    +0.000 A 
ATOM     16  C   UNL     1      -3.091  12.434  23.056  0.00  0.00    +0.000 A 
ATOM     17  C   UNL     1      -3.535  12.955  21.840  0.00  0.00    +0.000 A 
ATOM     18  C   UNL     1      -2.823  12.689  20.663  0.00  0.00    +0.000 A 
BRANCH  16  19
ATOM     19  C   UNL     1      -3.797  12.717  24.335  0.00  0.00    +0.000 C 
ATOM     20  O   UNL     1      -3.677  13.766  24.942  0.00  0.00    +0.000 OA
BRANCH  19  21
ATOM     21  O   UNL     1      -4.563  11.696  24.779  0.00  0.00    +0.000 OA
ATOM     22  H   UNL     1      -5.507  11.751  24.541  0.00  0.00    +0.000 HD
ENDBRANCH  19  21
ENDBRANCH  16  19
ENDBRANCH  12  13
ENDBRANCH   1  12
BRANCH   1  23
ATOM     23  C   UNL     1       1.152  10.656  18.367  0.00  0.00    +0.000 C 
BRANCH  23  24
ATOM     24  C   UNL     1       1.642   9.306  18.861  0.00  0.00    +0.000 A 
ATOM     25  C   UNL     1       1.204   8.786  20.067  0.00  0.00    +0.000 A 
ATOM     26  N   UNL     1       1.563   7.559  20.520  0.00  0.00    +0.000 NA
ATOM     27  C   UNL     1       2.349   6.808  19.746  0.00  0.00    +0.000 A 
ATOM     28  N   UNL     1       2.641   5.581  20.179  0.00  0.00    +0.000 NA
ATOM     29  C   UNL     1       3.413   4.812  19.421  0.00  0.00    +0.000 A 
ATOM     30  N   UNL     1       3.664   3.531  19.859  0.00  0.00    +0.000 N 
ATOM     31  N   UNL     1       3.980   5.200  18.285  0.00  0.00    +0.000 NA
ATOM     32  C   UNL     1       3.658   6.442  17.890  0.00  0.00    +0.000 A 
ATOM     33  C   UNL     1       2.827   7.335  18.542  0.00  0.00    +0.000 A 
ATOM     34  N   UNL     1       2.496   8.590  18.089  0.00  0.00    +0.000 NA
ATOM     35  H   UNL     1       3.480   3.440  20.848  0.00  0.00    +0.000 HD
ATOM     36  H   UNL     1       4.539   3.173  19.505  0.00  0.00    +0.000 HD
BRANCH  32  37
ATOM     37  O   UNL     1       4.269   6.784  16.715  0.00  0.00    +0.000 OA
ATOM     38  H   UNL     1       3.498   7.014  16.167  0.00  0.00    +0.000 HD
ENDBRANCH  32  37
ENDBRANCH  23  24
ENDBRANCH   1  23
TORSDOF 9
ENDMDL
MODEL 7
REMARK VINA RESULT:      -7.1      4.355      7.627
REMARK  Name = 
REMARK  10 active torsions:
REMARK  status: ('A' for Active; 'I' for Inactive)
REMARK    1  A    between atoms: C_1  and  C_2
REMARK    2  A    between atoms: C_5  and  S_6
REMARK    3  A    between atoms: S_6  and  N_9
REMARK    4  A    between atoms: N_9  and  C_10
REMARK    5  A    between atoms: N_9  and  C_20
REMARK    6  A    between atoms: C_10  and  C_11
REMARK    7  A    between atoms: C_14  and  C_15
REMARK    8  A    between atoms: C_15  and  O_17
REMARK    9  A    between atoms: C_20  and  C_21
REMARK   10  A    between atoms: C_29  and  O_30
REMARK                            x       y       z     vdW  Elec       q    Type
REMARK                         _______ _______ _______ _____ _____    ______ ____
ROOT
ATOM      1  N   UNL     1       0.146  10.535  18.404  0.00  0.00    +0.000 NA
ENDROOT
BRANCH   1   2
ATOM      2  S   UNL     1      -0.031  12.140  18.915  0.00  0.00    +0.000 S 
ATOM      3  O   UNL     1      -0.719  12.869  17.870  0.00  0.00    +0.000 OA
ATOM      4  O   UNL     1       1.250  12.628  19.387  0.00  0.00    +0.000 OA
BRANCH   2   9
ATOM      5  C   UNL     1      -3.499  12.375  23.915  0.00  0.00    +0.000 C 
ATOM      6  C   UNL     1      -2.643  12.272  22.685  0.00  0.00    +0.000 A 
ATOM      7  C   UNL     1      -1.467  11.512  22.670  0.00  0.00    +0.000 A 
ATOM      8  C   UNL     1      -0.693  11.417  21.504  0.00  0.00    +0.000 A 
ATOM      9  C   UNL     1      -1.097  12.088  20.344  0.00  0.00    +0.000 A 
ATOM     10  C   UNL     1      -2.244  12.885  20.369  0.00  0.00    +0.000 A 
ATOM     11  C   UNL     1      -3.018  12.966  21.528  0.00  0.00    +0.000 A 
ENDBRANCH   2   9
ENDBRANCH   1   2
BRANCH   1  12
ATOM     12  C   UNL     1      -0.758   9.972  17.371  0.00  0.00    +0.000 C 
BRANCH  12  13
ATOM     13  C   UNL     1      -2.236  10.340  17.386  0.00  0.00    +0.000 A 
ATOM     14  C   UNL     1      -3.080  10.036  18.467  0.00  0.00    +0.000 A 
ATOM     15  C   UNL     1      -4.418  10.473  18.480  0.00  0.00    +0.000 A 
ATOM     16  C   UNL     1      -4.940  11.206  17.406  0.00  0.00    +0.000 A 
ATOM     17  C   UNL     1      -4.102  11.538  16.340  0.00  0.00    +0.000 A 
ATOM     18  C   UNL     1      -2.770  11.106  16.336  0.00  0.00    +0.000 A 
BRANCH  16  19
ATOM     19  C   UNL     1      -6.353  11.670  17.468  0.00  0.00    +0.000 C 
ATOM     20  O   UNL     1      -6.728  12.721  16.981  0.00  0.00    +0.000 OA
BRANCH  19  21
ATOM     21  O   UNL     1      -7.178  10.834  18.136  0.00  0.00    +0.000 OA
ATOM     22  H   UNL     1      -7.762  11.261  18.789  0.00  0.00    +0.000 HD
ENDBRANCH  19  21
ENDBRANCH  16  19
ENDBRANCH  12  13
ENDBRANCH   1  12
BRANCH   1  23
ATOM     23  C   UNL     1       1.544  10.022  18.344  0.00  0.00    +0.000 C 
BRANCH  23  24
ATOM     24  C   UNL     1       1.773   8.696  19.050  0.00  0.00    +0.000 A 
ATOM     25  C   UNL     1       1.271   8.470  20.320  0.00  0.00    +0.000 A 
ATOM     26  N   UNL     1       1.393   7.283  20.965  0.00  0.00    +0.000 NA
ATOM     27  C   UNL     1       1.998   6.279  20.325  0.00  0.00    +0.000 A 
ATOM     28  N   UNL     1       2.053   5.102  20.950  0.00  0.00    +0.000 NA
ATOM     29  C   UNL     1       2.640   4.087  20.328  0.00  0.00    +0.000 A 
ATOM     30  N   UNL     1       2.647   2.866  20.965  0.00  0.00    +0.000 N 
ATOM     31  N   UNL     1       3.244   4.172  19.149  0.00  0.00    +0.000 NA
ATOM     32  C   UNL     1       3.162   5.375  18.560  0.00  0.00    +0.000 A 
ATOM     33  C   UNL     1       2.539   6.506  19.056  0.00  0.00    +0.000 A 
ATOM     34  N   UNL     1       2.449   7.715  18.407  0.00  0.00    +0.000 NA
ATOM     35  H   UNL     1       2.474   2.970  21.956  0.00  0.00    +0.000 HD
ATOM     36  H   UNL     1       3.426   2.291  20.678  0.00  0.00    +0.000 HD
BRANCH  32  37
ATOM     37  O   UNL     1       3.798   5.401  17.349  0.00  0.00    +0.000 OA
ATOM     38  H   UNL     1       4.722   5.528  17.628  0.00  0.00    +0.000 HD
ENDBRANCH  32  37
ENDBRANCH  23  24
ENDBRANCH   1  23
TORSDOF 9
ENDMDL
MODEL 8
REMARK VINA RESULT:      -7.0      5.148      8.181
REMARK  Name = 
REMARK  10 active torsions:
REMARK  status: ('A' for Active; 'I' for Inactive)
REMARK    1  A    between atoms: C_1  and  C_2
REMARK    2  A    between atoms: C_5  and  S_6
REMARK    3  A    between atoms: S_6  and  N_9
REMARK    4  A    between atoms: N_9  and  C_10
REMARK    5  A    between atoms: N_9  and  C_20
REMARK    6  A    between atoms: C_10  and  C_11
REMARK    7  A    between atoms: C_14  and  C_15
REMARK    8  A    between atoms: C_15  and  O_17
REMARK    9  A    between atoms: C_20  and  C_21
REMARK   10  A    between atoms: C_29  and  O_30
REMARK                            x       y       z     vdW  Elec       q    Type
REMARK                         _______ _______ _______ _____ _____    ______ ____
ROOT
ATOM      1  N   UNL     1       0.978   9.394  19.287  0.00  0.00    +0.000 NA
ENDROOT
BRANCH   1   2
ATOM      2  S   UNL     1       0.492   9.354  20.910  0.00  0.00    +0.000 S 
ATOM      3  O   UNL     1       1.553   8.738  21.680  0.00  0.00    +0.000 OA
ATOM      4  O   UNL     1      -0.846   8.801  20.987  0.00  0.00    +0.000 OA
BRANCH   2   9
ATOM      5  C   UNL     1      -0.323  15.211  22.361  0.00  0.00    +0.000 C 
ATOM      6  C   UNL     1      -0.078  13.771  22.014  0.00  0.00    +0.000 A 
ATOM      7  C   UNL     1       0.966  13.387  21.162  0.00  0.00    +0.000 A 
ATOM      8  C   UNL     1       1.185  12.034  20.866  0.00  0.00    +0.000 A 
ATOM      9  C   UNL     1       0.354  11.056  21.425  0.00  0.00    +0.000 A 
ATOM     10  C   UNL     1      -0.717  11.437  22.236  0.00  0.00    +0.000 A 
ATOM     11  C   UNL     1      -0.923  12.785  22.539  0.00  0.00    +0.000 A 
ENDBRANCH   2   9
ENDBRANCH   1   2
BRANCH   1  12
ATOM     12  C   UNL     1       0.455  10.439  18.373  0.00  0.00    +0.000 C 
BRANCH  12  13
ATOM     13  C   UNL     1      -1.049  10.581  18.178  0.00  0.00    +0.000 A 
ATOM     14  C   UNL     1      -1.816   9.624  17.492  0.00  0.00    +0.000 A 
ATOM     15  C   UNL     1      -3.215   9.748  17.410  0.00  0.00    +0.000 A 
ATOM     16  C   UNL     1      -3.871  10.838  17.998  0.00  0.00    +0.000 A 
ATOM     17  C   UNL     1      -3.122  11.779  18.705  0.00  0.00    +0.000 A 
ATOM     18  C   UNL     1      -1.730  11.647  18.789  0.00  0.00    +0.000 A 
BRANCH  16  19
ATOM     19  C   UNL     1      -5.354  10.920  17.909  0.00  0.00    +0.000 C 
ATOM     20  O   UNL     1      -6.097  10.388  18.714  0.00  0.00    +0.000 OA
BRANCH  19  21
ATOM     21  O   UNL     1      -5.805  11.616  16.842  0.00  0.00    +0.000 OA
ATOM     22  H   UNL     1      -5.437  12.514  16.746  0.00  0.00    +0.000 HD
ENDBRANCH  19  21
ENDBRANCH  16  19
ENDBRANCH  12  13
ENDBRANCH   1  12
BRANCH   1  23
ATOM     23  C   UNL     1       2.387   8.991  19.020  0.00  0.00    +0.000 C 
BRANCH  23  24
ATOM     24  C   UNL     1       2.578   7.532  18.644  0.00  0.00    +0.000 A 
ATOM     25  C   UNL     1       3.483   7.161  17.663  0.00  0.00    +0.000 A 
ATOM     26  N   UNL     1       3.735   5.870  17.337  0.00  0.00    +0.000 NA
ATOM     27  C   UNL     1       3.103   4.913  18.021  0.00  0.00    +0.000 A 
ATOM     28  N   UNL     1       3.409   3.649  17.729  0.00  0.00    +0.000 NA
ATOM     29  C   UNL     1       2.801   2.681  18.404  0.00  0.00    +0.000 A 
ATOM     30  N   UNL     1       3.164   1.382  18.125  0.00  0.00    +0.000 N 
ATOM     31  N   UNL     1       1.848   2.876  19.308  0.00  0.00    +0.000 NA
ATOM     32  C   UNL     1       1.573   4.164  19.568  0.00  0.00    +0.000 A 
ATOM     33  C   UNL     1       2.161   5.275  18.990  0.00  0.00    +0.000 A 
ATOM     34  N   UNL     1       1.874   6.582  19.305  0.00  0.00    +0.000 NA
ATOM     35  H   UNL     1       3.626   1.317  17.228  0.00  0.00    +0.000 HD
ATOM     36  H   UNL     1       2.421   0.729  18.324  0.00  0.00    +0.000 HD
BRANCH  32  37
ATOM     37  O   UNL     1       0.589   4.302  20.507  0.00  0.00    +0.000 OA
ATOM     38  H   UNL     1      -0.117   4.711  19.976  0.00  0.00    +0.000 HD
ENDBRANCH  32  37
ENDBRANCH  23  24
ENDBRANCH   1  23
TORSDOF 9
ENDMDL
MODEL 9
REMARK VINA RESULT:      -7.0      4.011      7.242
REMARK  Name = 
REMARK  10 active torsions:
REMARK  status: ('A' for Active; 'I' for Inactive)
REMARK    1  A    between atoms: C_1  and  C_2
REMARK    2  A    between atoms: C_5  and  S_6
REMARK    3  A    between atoms: S_6  and  N_9
REMARK    4  A    between atoms: N_9  and  C_10
REMARK    5  A    between atoms: N_9  and  C_20
REMARK    6  A    between atoms: C_10  and  C_11
REMARK    7  A    between atoms: C_14  and  C_15
REMARK    8  A    between atoms: C_15  and  O_17
REMARK    9  A    between atoms: C_20  and  C_21
REMARK   10  A    between atoms: C_29  and  O_30
REMARK                            x       y       z     vdW  Elec       q    Type
REMARK                         _______ _______ _______ _____ _____    ______ ____
ROOT
ATOM      1  N   UNL     1       0.181  11.775  19.189  0.00  0.00    +0.000 NA
ENDROOT
BRANCH   1   2
ATOM      2  S   UNL     1       0.473  12.875  20.445  0.00  0.00    +0.000 S 
ATOM      3  O   UNL     1       0.484  14.208  19.879  0.00  0.00    +0.000 OA
ATOM      4  O   UNL     1       1.622  12.424  21.206  0.00  0.00    +0.000 OA
BRANCH   2   9
ATOM      5  C   UNL     1      -4.049  12.668  24.517  0.00  0.00    +0.000 C 
ATOM      6  C   UNL     1      -2.949  12.681  23.494  0.00  0.00    +0.000 A 
ATOM      7  C   UNL     1      -2.162  11.549  23.247  0.00  0.00    +0.000 A 
ATOM      8  C   UNL     1      -1.152  11.581  22.274  0.00  0.00    +0.000 A 
ATOM      9  C   UNL     1      -0.927  12.753  21.543  0.00  0.00    +0.000 A 
ATOM     10  C   UNL     1      -1.677  13.898  21.820  0.00  0.00    +0.000 A 
ATOM     11  C   UNL     1      -2.691  13.858  22.780  0.00  0.00    +0.000 A 
ENDBRANCH   2   9
ENDBRANCH   1   2
BRANCH   1  12
ATOM     12  C   UNL     1      -0.828  12.081  18.145  0.00  0.00    +0.000 C 
BRANCH  12  13
ATOM     13  C   UNL     1      -2.270  11.630  18.341  0.00  0.00    +0.000 A 
ATOM     14  C   UNL     1      -3.186  12.346  19.131  0.00  0.00    +0.000 A 
ATOM     15  C   UNL     1      -4.532  11.943  19.213  0.00  0.00    +0.000 A 
ATOM     16  C   UNL     1      -4.983  10.812  18.523  0.00  0.00    +0.000 A 
ATOM     17  C   UNL     1      -4.088  10.110  17.713  0.00  0.00    +0.000 A 
ATOM     18  C   UNL     1      -2.751  10.518  17.629  0.00  0.00    +0.000 A 
BRANCH  16  19
ATOM     19  C   UNL     1      -6.419  10.433  18.617  0.00  0.00    +0.000 C 
ATOM     20  O   UNL     1      -6.809   9.461  19.238  0.00  0.00    +0.000 OA
BRANCH  19  21
ATOM     21  O   UNL     1      -7.250  11.249  17.932  0.00  0.00    +0.000 OA
ATOM     22  H   UNL     1      -8.197  11.031  18.001  0.00  0.00    +0.000 HD
ENDBRANCH  19  21
ENDBRANCH  16  19
ENDBRANCH  12  13
ENDBRANCH   1  12
BRANCH   1  23
ATOM     23  C   UNL     1       1.367  11.020  18.697  0.00  0.00    +0.000 C 
BRANCH  23  24
ATOM     24  C   UNL     1       1.529   9.627  19.282  0.00  0.00    +0.000 A 
ATOM     25  C   UNL     1       0.902   9.274  20.465  0.00  0.00    +0.000 A 
ATOM     26  N   UNL     1       0.963   8.026  20.993  0.00  0.00    +0.000 NA
ATOM     27  C   UNL     1       1.634   7.090  20.317  0.00  0.00    +0.000 A 
ATOM     28  N   UNL     1       1.632   5.855  20.820  0.00  0.00    +0.000 NA
ATOM     29  C   UNL     1       2.284   4.906  20.161  0.00  0.00    +0.000 A 
ATOM     30  N   UNL     1       2.231   3.625  20.666  0.00  0.00    +0.000 N 
ATOM     31  N   UNL     1       3.004   5.108  19.064  0.00  0.00    +0.000 NA
ATOM     32  C   UNL     1       2.977   6.366  18.596  0.00  0.00    +0.000 A 
ATOM     33  C   UNL     1       2.301   7.443  19.140  0.00  0.00    +0.000 A 
ATOM     34  N   UNL     1       2.272   8.713  18.613  0.00  0.00    +0.000 NA
ATOM     35  H   UNL     1       1.958   3.628  21.639  0.00  0.00    +0.000 HD
ATOM     36  H   UNL     1       3.038   3.079  20.402  0.00  0.00    +0.000 HD
BRANCH  32  37
ATOM     37  O   UNL     1       3.733   6.512  17.466  0.00  0.00    +0.000 OA
ATOM     38  H   UNL     1       4.529   6.007  17.709  0.00  0.00    +0.000 HD
ENDBRANCH  32  37
ENDBRANCH  23  24
ENDBRANCH   1  23
TORSDOF 9
ENDMDL
