MODEL 1
REMARK VINA RESULT:      -7.7      0.000      0.000
REMARK  Name = 
REMARK  16 active torsions:
REMARK  status: ('A' for Active; 'I' for Inactive)
REMARK    1  A    between atoms: C_1  and  C_2
REMARK    2  A    between atoms: C_2  and  C_3
REMARK    3  A    between atoms: C_3  and  C_4
REMARK    4  A    between atoms: C_4  and  C_5
REMARK    5  A    between atoms: C_5  and  C_6
REMARK    6  A    between atoms: C_6  and  C_7
REMARK    7  A    between atoms: C_7  and  C_8
REMARK    8  A    between atoms: C_8  and  N_9
REMARK    9  A    between atoms: C_12  and  C_13
REMARK   10  A    between atoms: C_13  and  C_14
REMARK   11  A    between atoms: N_16  and  C_17
REMARK   12  A    between atoms: C_17  and  C_18
REMARK   13  A    between atoms: C_25  and  C_26
REMARK   14  A    between atoms: C_26  and  O_28
REMARK   15  A    between atoms: O_28  and  C_29
REMARK   16  A    between atoms: C_29  and  C_30
REMARK                            x       y       z     vdW  Elec       q    Type
REMARK                         _______ _______ _______ _____ _____    ______ ____
ROOT
ATOM      1  N   UNL     1       4.384   5.604  17.463  0.00  0.00    +0.000 N 
ATOM      2  C   UNL     1       3.725   6.867  17.477  0.00  0.00    +0.000 C 
ATOM      3  O   UNL     1       4.251   7.853  16.949  0.00  0.00    +0.000 OA
ATOM      4  C   UNL     1       2.318   7.015  18.166  0.00  0.00    +0.000 C 
ATOM      5  C   UNL     1       1.591   5.683  18.075  0.00  0.00    +0.000 C 
ATOM      6  C   UNL     1       2.429   4.486  18.528  0.00  0.00    +0.000 C 
ATOM      7  C   UNL     1       1.531   3.235  18.356  0.00  0.00    +0.000 C 
ATOM      8  C   UNL     1       2.318   1.942  18.497  0.00  0.00    +0.000 C 
ATOM      9  C   UNL     1       3.464   1.879  17.488  0.00  0.00    +0.000 C 
ATOM     10  C   UNL     1       4.128   3.205  17.204  0.00  0.00    +0.000 C 
ATOM     11  C   UNL     1       3.679   4.395  17.666  0.00  0.00    +0.000 C 
ENDROOT
BRANCH   6  12
ATOM     12  C   UNL     1       2.985   4.598  19.983  0.00  0.00    +0.000 C 
ATOM     13  O   UNL     1       4.156   4.764  20.295  0.00  0.00    +0.000 OA
BRANCH  12  14
ATOM     14  O   UNL     1       1.996   4.457  20.900  0.00  0.00    +0.000 OA
BRANCH  14  15
ATOM     15  C   UNL     1       2.264   3.482  21.912  0.00  0.00    +0.000 C 
ATOM     16  C   UNL     1       1.226   2.383  21.874  0.00  0.00    +0.000 C 
ENDBRANCH  14  15
ENDBRANCH  12  14
ENDBRANCH   6  12
BRANCH   1  17
ATOM     17  C   UNL     1       5.747   5.628  18.066  0.00  0.00    +0.000 C 
BRANCH  17  18
ATOM     18  C   UNL     1       7.035   5.596  17.241  0.00  0.00    +0.000 C 
BRANCH  18  19
ATOM     19  C   UNL     1       7.166   4.484  16.198  0.00  0.00    +0.000 C 
BRANCH  19  20
ATOM     20  C   UNL     1       6.652   4.998  14.843  0.00  0.00    +0.000 C 
BRANCH  20  21
ATOM     21  C   UNL     1       6.643   3.946  13.730  0.00  0.00    +0.000 C 
BRANCH  21  22
ATOM     22  C   UNL     1       5.302   4.007  12.988  0.00  0.00    +0.000 C 
BRANCH  22  24
ATOM     23  C   UNL     1       3.885   3.193  11.089  0.00  0.00    +0.000 C 
ATOM     24  C   UNL     1       5.231   3.066  11.788  0.00  0.00    +0.000 C 
ENDBRANCH  22  24
ENDBRANCH  21  22
ENDBRANCH  20  21
ENDBRANCH  19  20
ENDBRANCH  18  19
ENDBRANCH  17  18
ENDBRANCH   1  17
BRANCH   4  25
ATOM     25  C   UNL     1       2.269   7.681  19.600  0.00  0.00    +0.000 C 
BRANCH  25  26
ATOM     26  C   UNL     1       1.397   8.974  19.775  0.00  0.00    +0.000 C 
ATOM     27  O   UNL     1       1.101   9.431  20.881  0.00  0.00    +0.000 OA
ATOM     28  N   UNL     1       0.980   9.606  18.590  0.00  0.00    +0.000 N 
ATOM     29  H   UNL     1       0.925   9.044  17.752  0.00  0.00    +0.000 HD
BRANCH  28  30
ATOM     30  C   UNL     1       0.149  10.836  18.613  0.00  0.00    +0.000 C 
BRANCH  30  31
ATOM     31  C   UNL     1      -1.332  10.720  18.218  0.00  0.00    +0.000 A 
ATOM     32  C   UNL     1      -2.291  11.589  18.791  0.00  0.00    +0.000 A 
ATOM     33  C   UNL     1      -3.647  11.563  18.412  0.00  0.00    +0.000 A 
ATOM     34  C   UNL     1      -4.068  10.696  17.404  0.00  0.00    +0.000 A 
ATOM     35  C   UNL     1      -3.134   9.859  16.796  0.00  0.00    +0.000 A 
ATOM     36  C   UNL     1      -1.779   9.879  17.185  0.00  0.00    +0.000 A 
ENDBRANCH  30  31
ENDBRANCH  28  30
ENDBRANCH  25  26
ENDBRANCH   4  25
TORSDOF 14
ENDMDL
MODEL 2
REMARK VINA RESULT:      -7.4      2.164      3.954
REMARK  Name = 
REMARK  16 active torsions:
REMARK  status: ('A' for Active; 'I' for Inactive)
REMARK    1  A    between atoms: C_1  and  C_2
REMARK    2  A    between atoms: C_2  and  C_3
REMARK    3  A    between atoms: C_3  and  C_4
REMARK    4  A    between atoms: C_4  and  C_5
REMARK    5  A    between atoms: C_5  and  C_6
REMARK    6  A    between atoms: C_6  and  C_7
REMARK    7  A    between atoms: C_7  and  C_8
REMARK    8  A    between atoms: C_8  and  N_9
REMARK    9  A    between atoms: C_12  and  C_13
REMARK   10  A    between atoms: C_13  and  C_14
REMARK   11  A    between atoms: N_16  and  C_17
REMARK   12  A    between atoms: C_17  and  C_18
REMARK   13  A    between atoms: C_25  and  C_26
REMARK   14  A    between atoms: C_26  and  O_28
REMARK   15  A    between atoms: O_28  and  C_29
REMARK   16  A    between atoms: C_29  and  C_30
REMARK                            x       y       z     vdW  Elec       q    Type
REMARK                         _______ _______ _______ _____ _____    ______ ____
ROOT
ATOM      1  N   UNL     1       4.489   5.698  17.566  0.00  0.00    +0.000 N 
ATOM      2  C   UNL     1       3.815   6.954  17.559  0.00  0.00    +0.000 C 
ATOM      3  O   UNL     1       4.364   7.956  17.087  0.00  0.00    +0.000 OA
ATOM      4  C   UNL     1       2.363   7.074  18.152  0.00  0.00    +0.000 C 
ATOM      5  C   UNL     1       1.660   5.735  17.986  0.00  0.00    +0.000 C 
ATOM      6  C   UNL     1       2.480   4.539  18.472  0.00  0.00    +0.000 C 
ATOM      7  C   UNL     1       1.610   3.283  18.216  0.00  0.00    +0.000 C 
ATOM      8  C   UNL     1       2.401   1.995  18.385  0.00  0.00    +0.000 C 
ATOM      9  C   UNL     1       3.614   1.964  17.456  0.00  0.00    +0.000 C 
ATOM     10  C   UNL     1       4.279   3.303  17.244  0.00  0.00    +0.000 C 
ATOM     11  C   UNL     1       3.786   4.478  17.697  0.00  0.00    +0.000 C 
ENDROOT
BRANCH   6  12
ATOM     12  C   UNL     1       2.933   4.628  19.964  0.00  0.00    +0.000 C 
ATOM     13  O   UNL     1       4.070   4.844  20.359  0.00  0.00    +0.000 OA
BRANCH  12  14
ATOM     14  O   UNL     1       1.896   4.402  20.809  0.00  0.00    +0.000 OA
BRANCH  14  15
ATOM     15  C   UNL     1       2.200   3.519  21.893  0.00  0.00    +0.000 C 
ATOM     16  C   UNL     1       1.276   2.323  21.873  0.00  0.00    +0.000 C 
ENDBRANCH  14  15
ENDBRANCH  12  14
ENDBRANCH   6  12
BRANCH   1  17
ATOM     17  C   UNL     1       5.807   5.725  18.261  0.00  0.00    +0.000 C 
BRANCH  17  18
ATOM     18  C   UNL     1       7.145   5.829  17.527  0.00  0.00    +0.000 C 
BRANCH  18  19
ATOM     19  C   UNL     1       7.600   7.228  17.104  0.00  0.00    +0.000 C 
BRANCH  19  20
ATOM     20  C   UNL     1       8.217   7.947  18.314  0.00  0.00    +0.000 C 
BRANCH  20  21
ATOM     21  C   UNL     1       8.389   9.458  18.132  0.00  0.00    +0.000 C 
BRANCH  21  22
ATOM     22  C   UNL     1       9.328   9.994  19.220  0.00  0.00    +0.000 C 
BRANCH  22  24
ATOM     23  C   UNL     1       9.700  12.051  20.602  0.00  0.00    +0.000 C 
ATOM     24  C   UNL     1       9.477  11.513  19.194  0.00  0.00    +0.000 C 
ENDBRANCH  22  24
ENDBRANCH  21  22
ENDBRANCH  20  21
ENDBRANCH  19  20
ENDBRANCH  18  19
ENDBRANCH  17  18
ENDBRANCH   1  17
BRANCH   4  25
ATOM     25  C   UNL     1       2.208   7.710  19.592  0.00  0.00    +0.000 C 
BRANCH  25  26
ATOM     26  C   UNL     1       1.254   8.947  19.745  0.00  0.00    +0.000 C 
ATOM     27  O   UNL     1       0.565   9.135  20.749  0.00  0.00    +0.000 OA
ATOM     28  N   UNL     1       1.241   9.856  18.672  0.00  0.00    +0.000 N 
ATOM     29  H   UNL     1       1.515   9.512  17.762  0.00  0.00    +0.000 HD
BRANCH  28  30
ATOM     30  C   UNL     1       0.382  11.067  18.686  0.00  0.00    +0.000 C 
BRANCH  30  31
ATOM     31  C   UNL     1      -1.076  10.930  18.217  0.00  0.00    +0.000 A 
ATOM     32  C   UNL     1      -1.448   9.869  17.357  0.00  0.00    +0.000 A 
ATOM     33  C   UNL     1      -2.782   9.665  16.953  0.00  0.00    +0.000 A 
ATOM     34  C   UNL     1      -3.789  10.494  17.447  0.00  0.00    +0.000 A 
ATOM     35  C   UNL     1      -3.452  11.521  18.327  0.00  0.00    +0.000 A 
ATOM     36  C   UNL     1      -2.115  11.729  18.721  0.00  0.00    +0.000 A 
ENDBRANCH  30  31
ENDBRANCH  28  30
ENDBRANCH  25  26
ENDBRANCH   4  25
TORSDOF 14
ENDMDL
MODEL 3
REMARK VINA RESULT:      -7.4      0.677      1.193
REMARK  Name = 
REMARK  16 active torsions:
REMARK  status: ('A' for Active; 'I' for Inactive)
REMARK    1  A    between atoms: C_1  and  C_2
REMARK    2  A    between atoms: C_2  and  C_3
REMARK    3  A    between atoms: C_3  and  C_4
REMARK    4  A    between atoms: C_4  and  C_5
REMARK    5  A    between atoms: C_5  and  C_6
REMARK    6  A    between atoms: C_6  and  C_7
REMARK    7  A    between atoms: C_7  and  C_8
REMARK    8  A    between atoms: C_8  and  N_9
REMARK    9  A    between atoms: C_12  and  C_13
REMARK   10  A    between atoms: C_13  and  C_14
REMARK   11  A    between atoms: N_16  and  C_17
REMARK   12  A    between atoms: C_17  and  C_18
REMARK   13  A    between atoms: C_25  and  C_26
REMARK   14  A    between atoms: C_26  and  O_28
REMARK   15  A    between atoms: O_28  and  C_29
REMARK   16  A    between atoms: C_29  and  C_30
REMARK                            x       y       z     vdW  Elec       q    Type
REMARK                         _______ _______ _______ _____ _____    ______ ____
ROOT
ATOM      1  N   UNL     1       4.376   5.441  18.016  0.00  0.00    +0.000 N 
ATOM      2  C   UNL     1       3.902   6.784  17.963  0.00  0.00    +0.000 C 
ATOM      3  O   UNL     1       4.651   7.698  17.602  0.00  0.00    +0.000 OA
ATOM      4  C   UNL     1       2.416   7.113  18.362  0.00  0.00    +0.000 C 
ATOM      5  C   UNL     1       1.552   5.899  18.059  0.00  0.00    +0.000 C 
ATOM      6  C   UNL     1       2.113   4.586  18.608  0.00  0.00    +0.000 C 
ATOM      7  C   UNL     1       1.110   3.479  18.196  0.00  0.00    +0.000 C 
ATOM      8  C   UNL     1       1.672   2.084  18.424  0.00  0.00    +0.000 C 
ATOM      9  C   UNL     1       2.982   1.884  17.663  0.00  0.00    +0.000 C 
ATOM     10  C   UNL     1       3.860   3.110  17.587  0.00  0.00    +0.000 C 
ATOM     11  C   UNL     1       3.489   4.340  18.011  0.00  0.00    +0.000 C 
ENDROOT
BRANCH   6  12
ATOM     12  C   UNL     1       2.367   4.584  20.149  0.00  0.00    +0.000 C 
ATOM     13  O   UNL     1       1.879   5.359  20.959  0.00  0.00    +0.000 OA
BRANCH  12  14
ATOM     14  O   UNL     1       3.244   3.611  20.502  0.00  0.00    +0.000 OA
BRANCH  14  15
ATOM     15  C   UNL     1       2.845   2.843  21.641  0.00  0.00    +0.000 C 
ATOM     16  C   UNL     1       1.339   2.722  21.695  0.00  0.00    +0.000 C 
ENDBRANCH  14  15
ENDBRANCH  12  14
ENDBRANCH   6  12
BRANCH   1  17
ATOM     17  C   UNL     1       5.576   5.259  18.880  0.00  0.00    +0.000 C 
BRANCH  17  18
ATOM     18  C   UNL     1       7.006   5.513  18.400  0.00  0.00    +0.000 C 
BRANCH  18  19
ATOM     19  C   UNL     1       7.600   4.502  17.416  0.00  0.00    +0.000 C 
BRANCH  19  20
ATOM     20  C   UNL     1       7.106   4.827  15.997  0.00  0.00    +0.000 C 
BRANCH  20  21
ATOM     21  C   UNL     1       6.296   3.707  15.338  0.00  0.00    +0.000 C 
BRANCH  21  22
ATOM     22  C   UNL     1       5.639   4.245  14.061  0.00  0.00    +0.000 C 
BRANCH  22  24
ATOM     23  C   UNL     1       4.997   3.124  11.913  0.00  0.00    +0.000 C 
ATOM     24  C   UNL     1       6.158   3.580  12.788  0.00  0.00    +0.000 C 
ENDBRANCH  22  24
ENDBRANCH  21  22
ENDBRANCH  20  21
ENDBRANCH  19  20
ENDBRANCH  18  19
ENDBRANCH  17  18
ENDBRANCH   1  17
BRANCH   4  25
ATOM     25  C   UNL     1       2.163   7.745  19.790  0.00  0.00    +0.000 C 
BRANCH  25  26
ATOM     26  C   UNL     1       1.333   9.076  19.862  0.00  0.00    +0.000 C 
ATOM     27  O   UNL     1       0.900   9.532  20.922  0.00  0.00    +0.000 OA
ATOM     28  N   UNL     1       1.123   9.743  18.642  0.00  0.00    +0.000 N 
ATOM     29  H   UNL     1       1.166   9.196  17.794  0.00  0.00    +0.000 HD
BRANCH  28  30
ATOM     30  C   UNL     1       0.355  11.011  18.569  0.00  0.00    +0.000 C 
BRANCH  30  31
ATOM     31  C   UNL     1      -1.140  10.935  18.214  0.00  0.00    +0.000 A 
ATOM     32  C   UNL     1      -1.612   9.926  17.341  0.00  0.00    +0.000 A 
ATOM     33  C   UNL     1      -2.979   9.777  17.039  0.00  0.00    +0.000 A 
ATOM     34  C   UNL     1      -3.918  10.607  17.650  0.00  0.00    +0.000 A 
ATOM     35  C   UNL     1      -3.481  11.582  18.546  0.00  0.00    +0.000 A 
ATOM     36  C   UNL     1      -2.110  11.736  18.837  0.00  0.00    +0.000 A 
ENDBRANCH  30  31
ENDBRANCH  28  30
ENDBRANCH  25  26
ENDBRANCH   4  25
TORSDOF 14
ENDMDL
MODEL 4
REMARK VINA RESULT:      -7.4      1.163      1.467
REMARK  Name = 
REMARK  16 active torsions:
REMARK  status: ('A' for Active; 'I' for Inactive)
REMARK    1  A    between atoms: C_1  and  C_2
REMARK    2  A    between atoms: C_2  and  C_3
REMARK    3  A    between atoms: C_3  and  C_4
REMARK    4  A    between atoms: C_4  and  C_5
REMARK    5  A    between atoms: C_5  and  C_6
REMARK    6  A    between atoms: C_6  and  C_7
REMARK    7  A    between atoms: C_7  and  C_8
REMARK    8  A    between atoms: C_8  and  N_9
REMARK    9  A    between atoms: C_12  and  C_13
REMARK   10  A    between atoms: C_13  and  C_14
REMARK   11  A    between atoms: N_16  and  C_17
REMARK   12  A    between atoms: C_17  and  C_18
REMARK   13  A    between atoms: C_25  and  C_26
REMARK   14  A    between atoms: C_26  and  O_28
REMARK   15  A    between atoms: O_28  and  C_29
REMARK   16  A    between atoms: C_29  and  C_30
REMARK                            x       y       z     vdW  Elec       q    Type
REMARK                         _______ _______ _______ _____ _____    ______ ____
ROOT
ATOM      1  N   UNL     1       4.559   5.325  18.227  0.00  0.00    +0.000 N 
ATOM      2  C   UNL     1       4.212   6.641  17.805  0.00  0.00    +0.000 C 
ATOM      3  O   UNL     1       5.089   7.440  17.462  0.00  0.00    +0.000 OA
ATOM      4  C   UNL     1       2.702   7.086  17.771  0.00  0.00    +0.000 C 
ATOM      5  C   UNL     1       1.842   5.859  17.513  0.00  0.00    +0.000 C 
ATOM      6  C   UNL     1       2.163   4.672  18.422  0.00  0.00    +0.000 C 
ATOM      7  C   UNL     1       1.200   3.532  18.006  0.00  0.00    +0.000 C 
ATOM      8  C   UNL     1       1.590   2.199  18.626  0.00  0.00    +0.000 C 
ATOM      9  C   UNL     1       3.019   1.811  18.250  0.00  0.00    +0.000 C 
ATOM     10  C   UNL     1       3.981   2.970  18.148  0.00  0.00    +0.000 C 
ATOM     11  C   UNL     1       3.617   4.271  18.226  0.00  0.00    +0.000 C 
ENDROOT
BRANCH   6  12
ATOM     12  C   UNL     1       2.063   4.980  19.949  0.00  0.00    +0.000 C 
ATOM     13  O   UNL     1       1.403   5.873  20.461  0.00  0.00    +0.000 OA
BRANCH  12  14
ATOM     14  O   UNL     1       2.838   4.135  20.675  0.00  0.00    +0.000 OA
BRANCH  14  15
ATOM     15  C   UNL     1       2.183   3.562  21.810  0.00  0.00    +0.000 C 
ATOM     16  C   UNL     1       2.477   2.082  21.897  0.00  0.00    +0.000 C 
ENDBRANCH  14  15
ENDBRANCH  12  14
ENDBRANCH   6  12
BRANCH   1  17
ATOM     17  C   UNL     1       5.516   5.291  19.369  0.00  0.00    +0.000 C 
BRANCH  17  18
ATOM     18  C   UNL     1       7.026   5.116  19.198  0.00  0.00    +0.000 C 
BRANCH  18  19
ATOM     19  C   UNL     1       7.640   5.607  17.885  0.00  0.00    +0.000 C 
BRANCH  19  20
ATOM     20  C   UNL     1       7.493   4.513  16.816  0.00  0.00    +0.000 C 
BRANCH  20  21
ATOM     21  C   UNL     1       6.848   4.986  15.510  0.00  0.00    +0.000 C 
BRANCH  21  22
ATOM     22  C   UNL     1       5.749   3.996  15.102  0.00  0.00    +0.000 C 
BRANCH  22  24
ATOM     23  C   UNL     1       6.685   3.799  12.786  0.00  0.00    +0.000 C 
ATOM     24  C   UNL     1       5.425   4.033  13.611  0.00  0.00    +0.000 C 
ENDBRANCH  22  24
ENDBRANCH  21  22
ENDBRANCH  20  21
ENDBRANCH  19  20
ENDBRANCH  18  19
ENDBRANCH  17  18
ENDBRANCH   1  17
BRANCH   4  25
ATOM     25  C   UNL     1       2.181   8.004  18.948  0.00  0.00    +0.000 C 
BRANCH  25  26
ATOM     26  C   UNL     1       1.443   9.335  18.564  0.00  0.00    +0.000 C 
ATOM     27  O   UNL     1       1.787  10.034  17.609  0.00  0.00    +0.000 OA
ATOM     28  N   UNL     1       0.339   9.685  19.362  0.00  0.00    +0.000 N 
ATOM     29  H   UNL     1       0.304   9.317  20.302  0.00  0.00    +0.000 HD
BRANCH  28  30
ATOM     30  C   UNL     1      -0.447  10.918  19.108  0.00  0.00    +0.000 C 
BRANCH  30  31
ATOM     31  C   UNL     1      -1.718  10.806  18.250  0.00  0.00    +0.000 A 
ATOM     32  C   UNL     1      -2.850  11.603  18.548  0.00  0.00    +0.000 A 
ATOM     33  C   UNL     1      -4.011  11.582  17.752  0.00  0.00    +0.000 A 
ATOM     34  C   UNL     1      -4.047  10.797  16.601  0.00  0.00    +0.000 A 
ATOM     35  C   UNL     1      -2.930  10.035  16.264  0.00  0.00    +0.000 A 
ATOM     36  C   UNL     1      -1.773  10.049  17.068  0.00  0.00    +0.000 A 
ENDBRANCH  30  31
ENDBRANCH  28  30
ENDBRANCH  25  26
ENDBRANCH   4  25
TORSDOF 14
ENDMDL
MODEL 5
REMARK VINA RESULT:      -7.1      1.774      2.377
REMARK  Name = 
REMARK  16 active torsions:
REMARK  status: ('A' for Active; 'I' for Inactive)
REMARK    1  A    between atoms: C_1  and  C_2
REMARK    2  A    between atoms: C_2  and  C_3
REMARK    3  A    between atoms: C_3  and  C_4
REMARK    4  A    between atoms: C_4  and  C_5
REMARK    5  A    between atoms: C_5  and  C_6
REMARK    6  A    between atoms: C_6  and  C_7
REMARK    7  A    between atoms: C_7  and  C_8
REMARK    8  A    between atoms: C_8  and  N_9
REMARK    9  A    between atoms: C_12  and  C_13
REMARK   10  A    between atoms: C_13  and  C_14
REMARK   11  A    between atoms: N_16  and  C_17
REMARK   12  A    between atoms: C_17  and  C_18
REMARK   13  A    between atoms: C_25  and  C_26
REMARK   14  A    between atoms: C_26  and  O_28
REMARK   15  A    between atoms: O_28  and  C_29
REMARK   16  A    between atoms: C_29  and  C_30
REMARK                            x       y       z     vdW  Elec       q    Type
REMARK                         _______ _______ _______ _____ _____    ______ ____
ROOT
ATOM      1  N   UNL     1       4.365   5.776  17.327  0.00  0.00    +0.000 N 
ATOM      2  C   UNL     1       3.666   7.017  17.288  0.00  0.00    +0.000 C 
ATOM      3  O   UNL     1       4.168   8.000  16.733  0.00  0.00    +0.000 OA
ATOM      4  C   UNL     1       2.244   7.143  17.950  0.00  0.00    +0.000 C 
ATOM      5  C   UNL     1       1.562   5.786  17.895  0.00  0.00    +0.000 C 
ATOM      6  C   UNL     1       2.430   4.633  18.401  0.00  0.00    +0.000 C 
ATOM      7  C   UNL     1       1.574   3.349  18.260  0.00  0.00    +0.000 C 
ATOM      8  C   UNL     1       2.400   2.087  18.457  0.00  0.00    +0.000 C 
ATOM      9  C   UNL     1       3.563   2.026  17.467  0.00  0.00    +0.000 C 
ATOM     10  C   UNL     1       4.189   3.363  17.147  0.00  0.00    +0.000 C 
ATOM     11  C   UNL     1       3.695   4.553  17.561  0.00  0.00    +0.000 C 
ENDROOT
BRANCH   6  12
ATOM     12  C   UNL     1       2.960   4.812  19.859  0.00  0.00    +0.000 C 
ATOM     13  O   UNL     1       4.117   5.038  20.182  0.00  0.00    +0.000 OA
BRANCH  12  14
ATOM     14  O   UNL     1       1.965   4.656  20.768  0.00  0.00    +0.000 OA
BRANCH  14  15
ATOM     15  C   UNL     1       2.274   3.752  21.833  0.00  0.00    +0.000 C 
ATOM     16  C   UNL     1       1.371   2.541  21.777  0.00  0.00    +0.000 C 
ENDBRANCH  14  15
ENDBRANCH  12  14
ENDBRANCH   6  12
BRANCH   1  17
ATOM     17  C   UNL     1       5.717   5.864  17.948  0.00  0.00    +0.000 C 
BRANCH  17  18
ATOM     18  C   UNL     1       7.016   5.892  17.140  0.00  0.00    +0.000 C 
BRANCH  18  19
ATOM     19  C   UNL     1       7.300   4.688  16.239  0.00  0.00    +0.000 C 
BRANCH  19  20
ATOM     20  C   UNL     1       6.723   4.956  14.840  0.00  0.00    +0.000 C 
BRANCH  20  21
ATOM     21  C   UNL     1       6.083   3.734  14.175  0.00  0.00    +0.000 C 
BRANCH  21  22
ATOM     22  C   UNL     1       6.417   3.741  12.678  0.00  0.00    +0.000 C 
BRANCH  22  24
ATOM     23  C   UNL     1       4.302   3.320  11.400  0.00  0.00    +0.000 C 
ATOM     24  C   UNL     1       5.618   2.716  11.876  0.00  0.00    +0.000 C 
ENDBRANCH  22  24
ENDBRANCH  21  22
ENDBRANCH  20  21
ENDBRANCH  19  20
ENDBRANCH  18  19
ENDBRANCH  17  18
ENDBRANCH   1  17
BRANCH   4  25
ATOM     25  C   UNL     1       2.153   7.855  19.360  0.00  0.00    +0.000 C 
BRANCH  25  26
ATOM     26  C   UNL     1       1.206   9.101  19.487  0.00  0.00    +0.000 C 
ATOM     27  O   UNL     1       0.499   9.497  18.559  0.00  0.00    +0.000 OA
ATOM     28  N   UNL     1       1.188   9.740  20.740  0.00  0.00    +0.000 N 
ATOM     29  H   UNL     1       1.998   9.632  21.334  0.00  0.00    +0.000 HD
BRANCH  28  30
ATOM     30  C   UNL     1       0.338  10.931  20.996  0.00  0.00    +0.000 C 
BRANCH  30  31
ATOM     31  C   UNL     1       0.711  12.252  20.303  0.00  0.00    +0.000 A 
ATOM     32  C   UNL     1      -0.189  12.855  19.392  0.00  0.00    +0.000 A 
ATOM     33  C   UNL     1       0.081  14.096  18.784  0.00  0.00    +0.000 A 
ATOM     34  C   UNL     1       1.241  14.792  19.116  0.00  0.00    +0.000 A 
ATOM     35  C   UNL     1       2.124  14.238  20.042  0.00  0.00    +0.000 A 
ATOM     36  C   UNL     1       1.857  12.990  20.641  0.00  0.00    +0.000 A 
ENDBRANCH  30  31
ENDBRANCH  28  30
ENDBRANCH  25  26
ENDBRANCH   4  25
TORSDOF 14
ENDMDL
MODEL 6
REMARK VINA RESULT:      -7.1      2.604      4.302
REMARK  Name = 
REMARK  16 active torsions:
REMARK  status: ('A' for Active; 'I' for Inactive)
REMARK    1  A    between atoms: C_1  and  C_2
REMARK    2  A    between atoms: C_2  and  C_3
REMARK    3  A    between atoms: C_3  and  C_4
REMARK    4  A    between atoms: C_4  and  C_5
REMARK    5  A    between atoms: C_5  and  C_6
REMARK    6  A    between atoms: C_6  and  C_7
REMARK    7  A    between atoms: C_7  and  C_8
REMARK    8  A    between atoms: C_8  and  N_9
REMARK    9  A    between atoms: C_12  and  C_13
REMARK   10  A    between atoms: C_13  and  C_14
REMARK   11  A    between atoms: N_16  and  C_17
REMARK   12  A    between atoms: C_17  and  C_18
REMARK   13  A    between atoms: C_25  and  C_26
REMARK   14  A    between atoms: C_26  and  O_28
REMARK   15  A    between atoms: O_28  and  C_29
REMARK   16  A    between atoms: C_29  and  C_30
REMARK                            x       y       z     vdW  Elec       q    Type
REMARK                         _______ _______ _______ _____ _____    ______ ____
ROOT
ATOM      1  N   UNL     1       4.327   6.580  17.390  0.00  0.00    +0.000 N 
ATOM      2  C   UNL     1       3.305   7.518  17.717  0.00  0.00    +0.000 C 
ATOM      3  O   UNL     1       3.423   8.706  17.401  0.00  0.00    +0.000 OA
ATOM      4  C   UNL     1       2.015   7.043  18.484  0.00  0.00    +0.000 C 
ATOM      5  C   UNL     1       1.748   5.590  18.128  0.00  0.00    +0.000 C 
ATOM      6  C   UNL     1       2.971   4.681  18.262  0.00  0.00    +0.000 C 
ATOM      7  C   UNL     1       2.505   3.261  17.854  0.00  0.00    +0.000 C 
ATOM      8  C   UNL     1       3.676   2.308  17.665  0.00  0.00    +0.000 C 
ATOM      9  C   UNL     1       4.655   2.836  16.617  0.00  0.00    +0.000 C 
ATOM     10  C   UNL     1       4.822   4.336  16.610  0.00  0.00    +0.000 C 
ATOM     11  C   UNL     1       4.074   5.189  17.347  0.00  0.00    +0.000 C 
ENDROOT
BRANCH   6  12
ATOM     12  C   UNL     1       3.628   4.685  19.679  0.00  0.00    +0.000 C 
ATOM     13  O   UNL     1       4.814   4.861  19.921  0.00  0.00    +0.000 OA
BRANCH  12  14
ATOM     14  O   UNL     1       2.713   4.434  20.647  0.00  0.00    +0.000 OA
BRANCH  14  15
ATOM     15  C   UNL     1       2.818   3.134  21.236  0.00  0.00    +0.000 C 
ATOM     16  C   UNL     1       1.450   2.614  21.615  0.00  0.00    +0.000 C 
ENDBRANCH  14  15
ENDBRANCH  12  14
ENDBRANCH   6  12
BRANCH   1  17
ATOM     17  C   UNL     1       5.672   6.943  17.921  0.00  0.00    +0.000 C 
BRANCH  17  18
ATOM     18  C   UNL     1       6.791   7.523  17.055  0.00  0.00    +0.000 C 
BRANCH  18  19
ATOM     19  C   UNL     1       8.097   7.894  17.762  0.00  0.00    +0.000 C 
BRANCH  19  20
ATOM     20  C   UNL     1       8.092   9.397  18.080  0.00  0.00    +0.000 C 
BRANCH  20  21
ATOM     21  C   UNL     1       9.227   9.853  19.002  0.00  0.00    +0.000 C 
BRANCH  21  22
ATOM     22  C   UNL     1       9.904  11.088  18.395  0.00  0.00    +0.000 C 
BRANCH  22  24
ATOM     23  C   UNL     1      10.869  12.137  20.457  0.00  0.00    +0.000 C 
ATOM     24  C   UNL     1      11.189  11.488  19.117  0.00  0.00    +0.000 C 
ENDBRANCH  22  24
ENDBRANCH  21  22
ENDBRANCH  20  21
ENDBRANCH  19  20
ENDBRANCH  18  19
ENDBRANCH  17  18
ENDBRANCH   1  17
BRANCH   4  25
ATOM     25  C   UNL     1       1.925   7.357  20.031  0.00  0.00    +0.000 C 
BRANCH  25  26
ATOM     26  C   UNL     1       1.192   8.675  20.468  0.00  0.00    +0.000 C 
ATOM     27  O   UNL     1       0.920   8.926  21.643  0.00  0.00    +0.000 OA
ATOM     28  N   UNL     1       0.875   9.577  19.438  0.00  0.00    +0.000 N 
ATOM     29  H   UNL     1       0.780   9.209  18.502  0.00  0.00    +0.000 HD
BRANCH  28  30
ATOM     30  C   UNL     1       0.180  10.861  19.712  0.00  0.00    +0.000 C 
BRANCH  30  31
ATOM     31  C   UNL     1      -1.222  11.069  19.115  0.00  0.00    +0.000 A 
ATOM     32  C   UNL     1      -1.700  10.202  18.104  0.00  0.00    +0.000 A 
ATOM     33  C   UNL     1      -3.000  10.314  17.574  0.00  0.00    +0.000 A 
ATOM     34  C   UNL     1      -3.876  11.270  18.087  0.00  0.00    +0.000 A 
ATOM     35  C   UNL     1      -3.442  12.109  19.112  0.00  0.00    +0.000 A 
ATOM     36  C   UNL     1      -2.136  12.002  19.632  0.00  0.00    +0.000 A 
ENDBRANCH  30  31
ENDBRANCH  28  30
ENDBRANCH  25  26
ENDBRANCH   4  25
TORSDOF 14
ENDMDL
MODEL 7
REMARK VINA RESULT:      -6.9      1.659      2.167
REMARK  Name = 
REMARK  16 active torsions:
REMARK  status: ('A' for Active; 'I' for Inactive)
REMARK    1  A    between atoms: C_1  and  C_2
REMARK    2  A    between atoms: C_2  and  C_3
REMARK    3  A    between atoms: C_3  and  C_4
REMARK    4  A    between atoms: C_4  and  C_5
REMARK    5  A    between atoms: C_5  and  C_6
REMARK    6  A    between atoms: C_6  and  C_7
REMARK    7  A    between atoms: C_7  and  C_8
REMARK    8  A    between atoms: C_8  and  N_9
REMARK    9  A    between atoms: C_12  and  C_13
REMARK   10  A    between atoms: C_13  and  C_14
REMARK   11  A    between atoms: N_16  and  C_17
REMARK   12  A    between atoms: C_17  and  C_18
REMARK   13  A    between atoms: C_25  and  C_26
REMARK   14  A    between atoms: C_26  and  O_28
REMARK   15  A    between atoms: O_28  and  C_29
REMARK   16  A    between atoms: C_29  and  C_30
REMARK                            x       y       z     vdW  Elec       q    Type
REMARK                         _______ _______ _______ _____ _____    ______ ____
ROOT
ATOM      1  N   UNL     1       4.512   5.446  17.722  0.00  0.00    +0.000 N 
ATOM      2  C   UNL     1       3.939   6.720  17.441  0.00  0.00    +0.000 C 
ATOM      3  O   UNL     1       4.629   7.623  16.955  0.00  0.00    +0.000 OA
ATOM      4  C   UNL     1       2.419   6.987  17.748  0.00  0.00    +0.000 C 
ATOM      5  C   UNL     1       1.662   5.674  17.625  0.00  0.00    +0.000 C 
ATOM      6  C   UNL     1       2.301   4.515  18.392  0.00  0.00    +0.000 C 
ATOM      7  C   UNL     1       1.401   3.278  18.142  0.00  0.00    +0.000 C 
ATOM      8  C   UNL     1       2.060   1.988  18.606  0.00  0.00    +0.000 C 
ATOM      9  C   UNL     1       3.408   1.777  17.918  0.00  0.00    +0.000 C 
ATOM     10  C   UNL     1       4.192   3.041  17.665  0.00  0.00    +0.000 C 
ATOM     11  C   UNL     1       3.713   4.289  17.875  0.00  0.00    +0.000 C 
ENDROOT
BRANCH   6  12
ATOM     12  C   UNL     1       2.500   4.779  19.919  0.00  0.00    +0.000 C 
ATOM     13  O   UNL     1       3.394   5.444  20.423  0.00  0.00    +0.000 OA
BRANCH  12  14
ATOM     14  O   UNL     1       1.554   4.145  20.656  0.00  0.00    +0.000 OA
BRANCH  14  15
ATOM     15  C   UNL     1       2.067   3.433  21.785  0.00  0.00    +0.000 C 
ATOM     16  C   UNL     1       1.160   2.275  22.135  0.00  0.00    +0.000 C 
ENDBRANCH  14  15
ENDBRANCH  12  14
ENDBRANCH   6  12
BRANCH   1  17
ATOM     17  C   UNL     1       5.691   5.502  18.632  0.00  0.00    +0.000 C 
BRANCH  17  18
ATOM     18  C   UNL     1       7.125   5.705  18.140  0.00  0.00    +0.000 C 
BRANCH  18  19
ATOM     19  C   UNL     1       7.320   5.948  16.642  0.00  0.00    +0.000 C 
BRANCH  19  20
ATOM     20  C   UNL     1       7.026   4.648  15.876  0.00  0.00    +0.000 C 
BRANCH  20  21
ATOM     21  C   UNL     1       6.263   4.847  14.563  0.00  0.00    +0.000 C 
BRANCH  21  22
ATOM     22  C   UNL     1       6.058   3.485  13.888  0.00  0.00    +0.000 C 
BRANCH  22  24
ATOM     23  C   UNL     1       4.873   3.223  11.695  0.00  0.00    +0.000 C 
ATOM     24  C   UNL     1       6.202   3.536  12.369  0.00  0.00    +0.000 C 
ENDBRANCH  22  24
ENDBRANCH  21  22
ENDBRANCH  20  21
ENDBRANCH  19  20
ENDBRANCH  18  19
ENDBRANCH  17  18
ENDBRANCH   1  17
BRANCH   4  25
ATOM     25  C   UNL     1       2.067   7.816  19.048  0.00  0.00    +0.000 C 
BRANCH  25  26
ATOM     26  C   UNL     1       1.486   9.261  18.857  0.00  0.00    +0.000 C 
ATOM     27  O   UNL     1       1.838  10.003  17.938  0.00  0.00    +0.000 OA
ATOM     28  N   UNL     1       0.514   9.667  19.789  0.00  0.00    +0.000 N 
ATOM     29  H   UNL     1       0.512   9.215  20.692  0.00  0.00    +0.000 HD
BRANCH  28  30
ATOM     30  C   UNL     1      -0.116  11.010  19.724  0.00  0.00    +0.000 C 
BRANCH  30  31
ATOM     31  C   UNL     1      -0.954  11.478  20.926  0.00  0.00    +0.000 A 
ATOM     32  C   UNL     1      -2.044  12.360  20.731  0.00  0.00    +0.000 A 
ATOM     33  C   UNL     1      -2.879  12.763  21.791  0.00  0.00    +0.000 A 
ATOM     34  C   UNL     1      -2.673  12.248  23.069  0.00  0.00    +0.000 A 
ATOM     35  C   UNL     1      -1.630  11.346  23.278  0.00  0.00    +0.000 A 
ATOM     36  C   UNL     1      -0.789  10.953  22.218  0.00  0.00    +0.000 A 
ENDBRANCH  30  31
ENDBRANCH  28  30
ENDBRANCH  25  26
ENDBRANCH   4  25
TORSDOF 14
ENDMDL
MODEL 8
REMARK VINA RESULT:      -6.8      4.298      8.925
REMARK  Name = 
REMARK  16 active torsions:
REMARK  status: ('A' for Active; 'I' for Inactive)
REMARK    1  A    between atoms: C_1  and  C_2
REMARK    2  A    between atoms: C_2  and  C_3
REMARK    3  A    between atoms: C_3  and  C_4
REMARK    4  A    between atoms: C_4  and  C_5
REMARK    5  A    between atoms: C_5  and  C_6
REMARK    6  A    between atoms: C_6  and  C_7
REMARK    7  A    between atoms: C_7  and  C_8
REMARK    8  A    between atoms: C_8  and  N_9
REMARK    9  A    between atoms: C_12  and  C_13
REMARK   10  A    between atoms: C_13  and  C_14
REMARK   11  A    between atoms: N_16  and  C_17
REMARK   12  A    between atoms: C_17  and  C_18
REMARK   13  A    between atoms: C_25  and  C_26
REMARK   14  A    between atoms: C_26  and  O_28
REMARK   15  A    between atoms: O_28  and  C_29
REMARK   16  A    between atoms: C_29  and  C_30
REMARK                            x       y       z     vdW  Elec       q    Type
REMARK                         _______ _______ _______ _____ _____    ______ ____
ROOT
ATOM      1  N   UNL     1       0.215  12.155  21.336  0.00  0.00    +0.000 N 
ATOM      2  C   UNL     1      -0.821  12.256  22.310  0.00  0.00    +0.000 C 
ATOM      3  O   UNL     1      -1.303  11.239  22.818  0.00  0.00    +0.000 OA
ATOM      4  C   UNL     1      -1.358  13.669  22.746  0.00  0.00    +0.000 C 
ATOM      5  C   UNL     1      -0.233  14.682  22.599  0.00  0.00    +0.000 C 
ATOM      6  C   UNL     1       0.476  14.630  21.245  0.00  0.00    +0.000 C 
ATOM      7  C   UNL     1       1.580  15.716  21.290  0.00  0.00    +0.000 C 
ATOM      8  C   UNL     1       2.551  15.594  20.126  0.00  0.00    +0.000 C 
ATOM      9  C   UNL     1       3.205  14.213  20.094  0.00  0.00    +0.000 C 
ATOM     10  C   UNL     1       2.305  13.079  20.521  0.00  0.00    +0.000 C 
ATOM     11  C   UNL     1       1.067  13.244  21.042  0.00  0.00    +0.000 C 
ENDROOT
BRANCH   6  12
ATOM     12  C   UNL     1      -0.465  14.820  20.013  0.00  0.00    +0.000 C 
ATOM     13  O   UNL     1      -0.652  14.008  19.118  0.00  0.00    +0.000 OA
BRANCH  12  14
ATOM     14  O   UNL     1      -1.054  16.042  20.027  0.00  0.00    +0.000 OA
BRANCH  14  15
ATOM     15  C   UNL     1      -0.830  16.818  18.847  0.00  0.00    +0.000 C 
ATOM     16  C   UNL     1      -1.893  17.885  18.707  0.00  0.00    +0.000 C 
ENDBRANCH  14  15
ENDBRANCH  12  14
ENDBRANCH   6  12
BRANCH   1  17
ATOM     17  C   UNL     1      -0.147  11.322  20.155  0.00  0.00    +0.000 C 
BRANCH  17  18
ATOM     18  C   UNL     1       0.637  10.079  19.728  0.00  0.00    +0.000 C 
BRANCH  18  19
ATOM     19  C   UNL     1       1.411  10.163  18.411  0.00  0.00    +0.000 C 
BRANCH  19  20
ATOM     20  C   UNL     1       1.659   8.742  17.879  0.00  0.00    +0.000 C 
BRANCH  20  21
ATOM     21  C   UNL     1       2.373   7.813  18.864  0.00  0.00    +0.000 C 
BRANCH  21  22
ATOM     22  C   UNL     1       2.749   6.510  18.147  0.00  0.00    +0.000 C 
BRANCH  22  24
ATOM     23  C   UNL     1       1.651   4.305  17.686  0.00  0.00    +0.000 C 
ATOM     24  C   UNL     1       2.109   5.271  18.770  0.00  0.00    +0.000 C 
ENDBRANCH  22  24
ENDBRANCH  21  22
ENDBRANCH  20  21
ENDBRANCH  19  20
ENDBRANCH  18  19
ENDBRANCH  17  18
ENDBRANCH   1  17
BRANCH   4  25
ATOM     25  C   UNL     1      -2.740  14.147  22.143  0.00  0.00    +0.000 C 
BRANCH  25  26
ATOM     26  C   UNL     1      -3.643  13.070  21.445  0.00  0.00    +0.000 C 
ATOM     27  O   UNL     1      -4.398  12.327  22.075  0.00  0.00    +0.000 OA
ATOM     28  N   UNL     1      -3.562  13.006  20.043  0.00  0.00    +0.000 N 
ATOM     29  H   UNL     1      -2.718  13.348  19.605  0.00  0.00    +0.000 HD
BRANCH  28  30
ATOM     30  C   UNL     1      -4.362  12.032  19.259  0.00  0.00    +0.000 C 
BRANCH  30  31
ATOM     31  C   UNL     1      -3.727  11.419  17.999  0.00  0.00    +0.000 A 
ATOM     32  C   UNL     1      -2.618  10.547  18.114  0.00  0.00    +0.000 A 
ATOM     33  C   UNL     1      -2.045   9.912  16.996  0.00  0.00    +0.000 A 
ATOM     34  C   UNL     1      -2.607  10.094  15.733  0.00  0.00    +0.000 A 
ATOM     35  C   UNL     1      -3.725  10.916  15.600  0.00  0.00    +0.000 A 
ATOM     36  C   UNL     1      -4.290  11.560  16.720  0.00  0.00    +0.000 A 
ENDBRANCH  30  31
ENDBRANCH  28  30
ENDBRANCH  25  26
ENDBRANCH   4  25
TORSDOF 14
ENDMDL
MODEL 9
REMARK VINA RESULT:      -6.7      1.558      2.294
REMARK  Name = 
REMARK  16 active torsions:
REMARK  status: ('A' for Active; 'I' for Inactive)
REMARK    1  A    between atoms: C_1  and  C_2
REMARK    2  A    between atoms: C_2  and  C_3
REMARK    3  A    between atoms: C_3  and  C_4
REMARK    4  A    between atoms: C_4  and  C_5
REMARK    5  A    between atoms: C_5  and  C_6
REMARK    6  A    between atoms: C_6  and  C_7
REMARK    7  A    between atoms: C_7  and  C_8
REMARK    8  A    between atoms: C_8  and  N_9
REMARK    9  A    between atoms: C_12  and  C_13
REMARK   10  A    between atoms: C_13  and  C_14
REMARK   11  A    between atoms: N_16  and  C_17
REMARK   12  A    between atoms: C_17  and  C_18
REMARK   13  A    between atoms: C_25  and  C_26
REMARK   14  A    between atoms: C_26  and  O_28
REMARK   15  A    between atoms: O_28  and  C_29
REMARK   16  A    between atoms: C_29  and  C_30
REMARK                            x       y       z     vdW  Elec       q    Type
REMARK                         _______ _______ _______ _____ _____    ______ ____
ROOT
ATOM      1  N   UNL     1       4.005   6.110  17.359  0.00  0.00    +0.000 N 
ATOM      2  C   UNL     1       3.281   7.313  17.606  0.00  0.00    +0.000 C 
ATOM      3  O   UNL     1       3.688   8.391  17.160  0.00  0.00    +0.000 OA
ATOM      4  C   UNL     1       1.953   7.276  18.449  0.00  0.00    +0.000 C 
ATOM      5  C   UNL     1       1.297   5.917  18.260  0.00  0.00    +0.000 C 
ATOM      6  C   UNL     1       2.247   4.735  18.463  0.00  0.00    +0.000 C 
ATOM      7  C   UNL     1       1.406   3.455  18.223  0.00  0.00    +0.000 C 
ATOM      8  C   UNL     1       2.276   2.213  18.112  0.00  0.00    +0.000 C 
ATOM      9  C   UNL     1       3.305   2.356  16.991  0.00  0.00    +0.000 C 
ATOM     10  C   UNL     1       3.857   3.751  16.816  0.00  0.00    +0.000 C 
ATOM     11  C   UNL     1       3.396   4.840  17.473  0.00  0.00    +0.000 C 
ENDROOT
BRANCH   6  12
ATOM     12  C   UNL     1       2.953   4.704  19.856  0.00  0.00    +0.000 C 
ATOM     13  O   UNL     1       4.160   4.669  20.050  0.00  0.00    +0.000 OA
BRANCH  12  14
ATOM     14  O   UNL     1       2.050   4.692  20.867  0.00  0.00    +0.000 OA
BRANCH  14  15
ATOM     15  C   UNL     1       2.314   3.719  21.882  0.00  0.00    +0.000 C 
ATOM     16  C   UNL     1       1.446   2.498  21.682  0.00  0.00    +0.000 C 
ENDBRANCH  14  15
ENDBRANCH  12  14
ENDBRANCH   6  12
BRANCH   1  17
ATOM     17  C   UNL     1       5.423   6.155  17.816  0.00  0.00    +0.000 C 
BRANCH  17  18
ATOM     18  C   UNL     1       6.617   6.175  16.860  0.00  0.00    +0.000 C 
BRANCH  18  19
ATOM     19  C   UNL     1       7.495   4.923  16.816  0.00  0.00    +0.000 C 
BRANCH  19  20
ATOM     20  C   UNL     1       6.953   3.962  15.746  0.00  0.00    +0.000 C 
BRANCH  20  21
ATOM     21  C   UNL     1       6.635   4.627  14.403  0.00  0.00    +0.000 C 
BRANCH  21  22
ATOM     22  C   UNL     1       5.539   3.825  13.690  0.00  0.00    +0.000 C 
BRANCH  22  24
ATOM     23  C   UNL     1       4.729   3.194  11.404  0.00  0.00    +0.000 C 
ATOM     24  C   UNL     1       5.951   3.339  12.302  0.00  0.00    +0.000 C 
ENDBRANCH  22  24
ENDBRANCH  21  22
ENDBRANCH  20  21
ENDBRANCH  19  20
ENDBRANCH  18  19
ENDBRANCH  17  18
ENDBRANCH   1  17
BRANCH   4  25
ATOM     25  C   UNL     1       2.026   7.753  19.955  0.00  0.00    +0.000 C 
BRANCH  25  26
ATOM     26  C   UNL     1       1.039   8.885  20.411  0.00  0.00    +0.000 C 
ATOM     27  O   UNL     1       0.579   8.946  21.553  0.00  0.00    +0.000 OA
ATOM     28  N   UNL     1       0.715   9.852  19.443  0.00  0.00    +0.000 N 
ATOM     29  H   UNL     1       0.804   9.593  18.471  0.00  0.00    +0.000 HD
BRANCH  28  30
ATOM     30  C   UNL     1      -0.208  10.976  19.741  0.00  0.00    +0.000 C 
BRANCH  30  31
ATOM     31  C   UNL     1       0.282  12.409  19.476  0.00  0.00    +0.000 A 
ATOM     32  C   UNL     1       1.648  12.652  19.194  0.00  0.00    +0.000 A 
ATOM     33  C   UNL     1       2.132  13.937  18.881  0.00  0.00    +0.000 A 
ATOM     34  C   UNL     1       1.243  15.007  18.790  0.00  0.00    +0.000 A 
ATOM     35  C   UNL     1      -0.113  14.785  19.023  0.00  0.00    +0.000 A 
ATOM     36  C   UNL     1      -0.593  13.500  19.347  0.00  0.00    +0.000 A 
ENDBRANCH  30  31
ENDBRANCH  28  30
ENDBRANCH  25  26
ENDBRANCH   4  25
TORSDOF 14
ENDMDL
