MODEL 1
REMARK VINA RESULT:      -9.2      0.000      0.000
REMARK  Name = 
REMARK  4 active torsions:
REMARK  status: ('A' for Active; 'I' for Inactive)
REMARK    1  A    between atoms: C_2  and  C_20
REMARK    2  A    between atoms: N_3  and  C_4
REMARK    3  A    between atoms: C_7  and  S_8
REMARK    4  A    between atoms: S_8  and  N_11
REMARK                            x       y       z     vdW  Elec       q    Type
REMARK                         _______ _______ _______ _____ _____    ______ ____
ROOT
ATOM      1  C   UNL     1       8.034   8.366  18.004  0.00  0.00    +0.000 A 
ATOM      2  C   UNL     1       8.381   7.230  18.747  0.00  0.00    +0.000 A 
ATOM      3  C   UNL     1       7.590   6.080  18.730  0.00  0.00    +0.000 A 
ATOM      4  C   UNL     1       6.424   6.061  17.970  0.00  0.00    +0.000 A 
ATOM      5  C   UNL     1       6.071   7.175  17.199  0.00  0.00    +0.000 A 
ATOM      6  C   UNL     1       6.859   8.336  17.242  0.00  0.00    +0.000 A 
ENDROOT
BRANCH   1   9
ATOM      7  O   UNL     1       8.940   9.848  20.294  0.00  0.00    +0.000 OA
ATOM      8  C   UNL     1       9.145  10.262  19.152  0.00  0.00    +0.000 C 
ATOM      9  N   UNL     1       8.818   9.551  18.014  0.00  0.00    +0.000 N 
ATOM     10  H   UNL     1       9.274   9.805  17.149  0.00  0.00    +0.000 HD
BRANCH   8  11
ATOM     11  C   UNL     1       9.818  11.640  18.958  0.00  0.00    +0.000 C 
ATOM     12  C   UNL     1      10.549  12.107  20.237  0.00  0.00    +0.000 C 
ATOM     13  C   UNL     1      11.306  13.426  19.976  0.00  0.00    +0.000 C 
ATOM     14  C   UNL     1      12.333  13.218  18.851  0.00  0.00    +0.000 C 
ATOM     15  C   UNL     1      11.619  12.794  17.561  0.00  0.00    +0.000 C 
ATOM     16  C   UNL     1      10.602  13.866  17.142  0.00  0.00    +0.000 C 
ATOM     17  C   UNL     1       9.566  14.065  18.265  0.00  0.00    +0.000 C 
ATOM     18 CL   UNL     1       8.395  15.325  17.782  0.00  0.00    +0.000 Cl
ATOM     19  C   UNL     1      10.300  14.510  19.545  0.00  0.00    +0.000 C 
ATOM     20  C   UNL     1       8.817  12.738  18.536  0.00  0.00    +0.000 C 
ATOM     21  C   UNL     1      10.872  11.485  17.821  0.00  0.00    +0.000 C 
ENDBRANCH   8  11
ENDBRANCH   1   9
BRANCH   4  22
ATOM     22  S   UNL     1       5.421   4.581  17.954  0.00  0.00    +0.000 S 
ATOM     23  O   UNL     1       5.714   3.873  16.726  0.00  0.00    +0.000 OA
ATOM     24  O   UNL     1       5.617   3.938  19.239  0.00  0.00    +0.000 OA
BRANCH  22  25
ATOM     25  N   UNL     1       3.838   5.152  17.956  0.00  0.00    +0.000 N 
ATOM     26  C   UNL     1       3.018   4.527  18.895  0.00  0.00    +0.000 A 
ATOM     27  N   UNL     1       2.972   5.054  20.117  0.00  0.00    +0.000 NA
ATOM     28  C   UNL     1       2.264   4.356  21.019  0.00  0.00    +0.000 A 
ATOM     29  C   UNL     1       1.654   3.154  20.740  0.00  0.00    +0.000 A 
ATOM     30  C   UNL     1       1.777   2.714  19.441  0.00  0.00    +0.000 A 
ATOM     31  N   UNL     1       2.441   3.394  18.487  0.00  0.00    +0.000 NA
ATOM     32  H   UNL     1       3.439   5.082  17.027  0.00  0.00    +0.000 HD
ENDBRANCH  22  25
ENDBRANCH   4  22
TORSDOF 4
ENDMDL
MODEL 2
REMARK VINA RESULT:      -9.1      0.868      1.372
REMARK  Name = 
REMARK  4 active torsions:
REMARK  status: ('A' for Active; 'I' for Inactive)
REMARK    1  A    between atoms: C_2  and  C_20
REMARK    2  A    between atoms: N_3  and  C_4
REMARK    3  A    between atoms: C_7  and  S_8
REMARK    4  A    between atoms: S_8  and  N_11
REMARK                            x       y       z     vdW  Elec       q    Type
REMARK                         _______ _______ _______ _____ _____    ______ ____
ROOT
ATOM      1  C   UNL     1       8.046   8.333  17.989  0.00  0.00    +0.000 A 
ATOM      2  C   UNL     1       8.378   7.200  18.741  0.00  0.00    +0.000 A 
ATOM      3  C   UNL     1       7.558   6.070  18.756  0.00  0.00    +0.000 A 
ATOM      4  C   UNL     1       6.377   6.070  18.019  0.00  0.00    +0.000 A 
ATOM      5  C   UNL     1       6.037   7.183  17.239  0.00  0.00    +0.000 A 
ATOM      6  C   UNL     1       6.855   8.323  17.250  0.00  0.00    +0.000 A 
ENDROOT
BRANCH   1   9
ATOM      7  O   UNL     1       8.899   9.918  20.229  0.00  0.00    +0.000 OA
ATOM      8  C   UNL     1       9.161  10.263  19.076  0.00  0.00    +0.000 C 
ATOM      9  N   UNL     1       8.860   9.498  17.966  0.00  0.00    +0.000 N 
ATOM     10  H   UNL     1       9.356   9.692  17.108  0.00  0.00    +0.000 HD
BRANCH   8  11
ATOM     11  C   UNL     1       9.876  11.611  18.835  0.00  0.00    +0.000 C 
ATOM     12  C   UNL     1      11.311  11.412  18.295  0.00  0.00    +0.000 C 
ATOM     13  C   UNL     1      11.954  12.772  17.955  0.00  0.00    +0.000 C 
ATOM     14  C   UNL     1      11.108  13.493  16.893  0.00  0.00    +0.000 C 
ATOM     15  C   UNL     1       9.691  13.737  17.429  0.00  0.00    +0.000 C 
ATOM     16  C   UNL     1       9.748  14.583  18.709  0.00  0.00    +0.000 C 
ATOM     17  C   UNL     1      10.586  13.856  19.776  0.00  0.00    +0.000 C 
ATOM     18 CL   UNL     1      10.664  14.852  21.258  0.00  0.00    +0.000 Cl
ATOM     19  C   UNL     1      12.010  13.638  19.227  0.00  0.00    +0.000 C 
ATOM     20  C   UNL     1       9.947  12.485  20.107  0.00  0.00    +0.000 C 
ATOM     21  C   UNL     1       9.054  12.387  17.762  0.00  0.00    +0.000 C 
ENDBRANCH   8  11
ENDBRANCH   1   9
BRANCH   4  22
ATOM     22  S   UNL     1       5.336   4.617  18.044  0.00  0.00    +0.000 S 
ATOM     23  O   UNL     1       5.551   3.910  16.800  0.00  0.00    +0.000 OA
ATOM     24  O   UNL     1       5.578   3.961  19.314  0.00  0.00    +0.000 OA
BRANCH  22  25
ATOM     25  N   UNL     1       3.771   5.228  18.125  0.00  0.00    +0.000 N 
ATOM     26  C   UNL     1       2.935   4.517  18.986  0.00  0.00    +0.000 A 
ATOM     27  N   UNL     1       2.908   4.893  20.263  0.00  0.00    +0.000 NA
ATOM     28  C   UNL     1       2.182   4.111  21.078  0.00  0.00    +0.000 A 
ATOM     29  C   UNL     1       1.537   2.969  20.659  0.00  0.00    +0.000 A 
ATOM     30  C   UNL     1       1.644   2.687  19.316  0.00  0.00    +0.000 A 
ATOM     31  N   UNL     1       2.325   3.459  18.448  0.00  0.00    +0.000 NA
ATOM     32  H   UNL     1       3.368   5.283  17.197  0.00  0.00    +0.000 HD
ENDBRANCH  22  25
ENDBRANCH   4  22
TORSDOF 4
ENDMDL
MODEL 3
REMARK VINA RESULT:      -8.9      7.425     10.808
REMARK  Name = 
REMARK  4 active torsions:
REMARK  status: ('A' for Active; 'I' for Inactive)
REMARK    1  A    between atoms: C_2  and  C_20
REMARK    2  A    between atoms: N_3  and  C_4
REMARK    3  A    between atoms: C_7  and  S_8
REMARK    4  A    between atoms: S_8  and  N_11
REMARK                            x       y       z     vdW  Elec       q    Type
REMARK                         _______ _______ _______ _____ _____    ______ ____
ROOT
ATOM      1  C   UNL     1       1.143   8.609  20.834  0.00  0.00    +0.000 A 
ATOM      2  C   UNL     1       0.767   9.573  19.890  0.00  0.00    +0.000 A 
ATOM      3  C   UNL     1       0.057  10.716  20.262  0.00  0.00    +0.000 A 
ATOM      4  C   UNL     1      -0.299  10.899  21.595  0.00  0.00    +0.000 A 
ATOM      5  C   UNL     1       0.088   9.960  22.560  0.00  0.00    +0.000 A 
ATOM      6  C   UNL     1       0.781   8.802  22.173  0.00  0.00    +0.000 A 
ENDROOT
BRANCH   1   9
ATOM      7  O   UNL     1       2.426   8.030  18.327  0.00  0.00    +0.000 OA
ATOM      8  C   UNL     1       2.376   7.184  19.221  0.00  0.00    +0.000 C 
ATOM      9  N   UNL     1       1.858   7.433  20.477  0.00  0.00    +0.000 N 
ATOM     10  H   UNL     1       2.116   6.809  21.228  0.00  0.00    +0.000 HD
BRANCH   8  11
ATOM     11  C   UNL     1       2.931   5.768  18.951  0.00  0.00    +0.000 C 
ATOM     12  C   UNL     1       2.875   4.878  20.213  0.00  0.00    +0.000 C 
ATOM     13  C   UNL     1       3.325   3.440  19.882  0.00  0.00    +0.000 C 
ATOM     14  C   UNL     1       2.405   2.847  18.802  0.00  0.00    +0.000 C 
ATOM     15  C   UNL     1       2.480   3.694  17.526  0.00  0.00    +0.000 C 
ATOM     16  C   UNL     1       3.925   3.742  17.007  0.00  0.00    +0.000 C 
ATOM     17  C   UNL     1       4.844   4.347  18.085  0.00  0.00    +0.000 C 
ATOM     18 CL   UNL     1       6.527   4.385  17.485  0.00  0.00    +0.000 Cl
ATOM     19  C   UNL     1       4.769   3.471  19.351  0.00  0.00    +0.000 C 
ATOM     20  C   UNL     1       4.384   5.785  18.427  0.00  0.00    +0.000 C 
ATOM     21  C   UNL     1       2.031   5.119  17.856  0.00  0.00    +0.000 C 
ENDBRANCH   8  11
ENDBRANCH   1   9
BRANCH   4  22
ATOM     22  S   UNL     1      -1.207  12.368  22.059  0.00  0.00    +0.000 S 
ATOM     23  O   UNL     1      -0.261  13.295  22.640  0.00  0.00    +0.000 OA
ATOM     24  O   UNL     1      -1.993  12.746  20.902  0.00  0.00    +0.000 OA
BRANCH  22  25
ATOM     25  N   UNL     1      -2.306  11.829  23.213  0.00  0.00    +0.000 N 
ATOM     26  C   UNL     1      -3.427  12.649  23.346  0.00  0.00    +0.000 A 
ATOM     27  N   UNL     1      -4.470  12.395  22.560  0.00  0.00    +0.000 NA
ATOM     28  C   UNL     1      -5.479  13.278  22.638  0.00  0.00    +0.000 A 
ATOM     29  C   UNL     1      -5.445  14.400  23.434  0.00  0.00    +0.000 A 
ATOM     30  C   UNL     1      -4.310  14.552  24.198  0.00  0.00    +0.000 A 
ATOM     31  N   UNL     1      -3.287  13.677  24.188  0.00  0.00    +0.000 NA
ATOM     32  H   UNL     1      -1.844  11.705  24.106  0.00  0.00    +0.000 HD
ENDBRANCH  22  25
ENDBRANCH   4  22
TORSDOF 4
ENDMDL
MODEL 4
REMARK VINA RESULT:      -8.9      1.274      1.856
REMARK  Name = 
REMARK  4 active torsions:
REMARK  status: ('A' for Active; 'I' for Inactive)
REMARK    1  A    between atoms: C_2  and  C_20
REMARK    2  A    between atoms: N_3  and  C_4
REMARK    3  A    between atoms: C_7  and  S_8
REMARK    4  A    between atoms: S_8  and  N_11
REMARK                            x       y       z     vdW  Elec       q    Type
REMARK                         _______ _______ _______ _____ _____    ______ ____
ROOT
ATOM      1  C   UNL     1       7.830   7.960  18.286  0.00  0.00    +0.000 A 
ATOM      2  C   UNL     1       6.721   8.101  17.442  0.00  0.00    +0.000 A 
ATOM      3  C   UNL     1       5.981   6.993  17.024  0.00  0.00    +0.000 A 
ATOM      4  C   UNL     1       6.357   5.720  17.441  0.00  0.00    +0.000 A 
ATOM      5  C   UNL     1       7.447   5.558  18.305  0.00  0.00    +0.000 A 
ATOM      6  C   UNL     1       8.200   6.675  18.701  0.00  0.00    +0.000 A 
ENDROOT
BRANCH   1   9
ATOM      7  O   UNL     1       7.621  10.688  17.405  0.00  0.00    +0.000 OA
ATOM      8  C   UNL     1       8.509  10.344  18.186  0.00  0.00    +0.000 C 
ATOM      9  N   UNL     1       8.604   9.072  18.716  0.00  0.00    +0.000 N 
ATOM     10  H   UNL     1       9.158   8.947  19.553  0.00  0.00    +0.000 HD
BRANCH   8  11
ATOM     11  C   UNL     1       9.575  11.375  18.620  0.00  0.00    +0.000 C 
ATOM     12  C   UNL     1       9.959  11.212  20.108  0.00  0.00    +0.000 C 
ATOM     13  C   UNL     1      11.105  12.176  20.479  0.00  0.00    +0.000 C 
ATOM     14  C   UNL     1      12.333  11.879  19.603  0.00  0.00    +0.000 C 
ATOM     15  C   UNL     1      11.981  12.076  18.123  0.00  0.00    +0.000 C 
ATOM     16  C   UNL     1      11.506  13.516  17.879  0.00  0.00    +0.000 C 
ATOM     17  C   UNL     1      10.269  13.809  18.749  0.00  0.00    +0.000 C 
ATOM     18 CL   UNL     1       9.730  15.491  18.476  0.00  0.00    +0.000 Cl
ATOM     19  C   UNL     1      10.648  13.625  20.231  0.00  0.00    +0.000 C 
ATOM     20  C   UNL     1       9.124  12.834  18.385  0.00  0.00    +0.000 C 
ATOM     21  C   UNL     1      10.847  11.118  17.757  0.00  0.00    +0.000 C 
ENDBRANCH   8  11
ENDBRANCH   1   9
BRANCH   4  22
ATOM     22  S   UNL     1       5.399   4.309  16.901  0.00  0.00    +0.000 S 
ATOM     23  O   UNL     1       4.095   4.798  16.508  0.00  0.00    +0.000 OA
ATOM     24  O   UNL     1       6.230   3.587  15.958  0.00  0.00    +0.000 OA
BRANCH  22  25
ATOM     25  N   UNL     1       5.289   3.334  18.267  0.00  0.00    +0.000 N 
ATOM     26  C   UNL     1       3.992   3.212  18.766  0.00  0.00    +0.000 A 
ATOM     27  N   UNL     1       3.238   2.230  18.279  0.00  0.00    +0.000 NA
ATOM     28  C   UNL     1       1.962   2.220  18.700  0.00  0.00    +0.000 A 
ATOM     29  C   UNL     1       1.434   3.173  19.541  0.00  0.00    +0.000 A 
ATOM     30  C   UNL     1       2.315   4.138  19.972  0.00  0.00    +0.000 A 
ATOM     31  N   UNL     1       3.613   4.171  19.614  0.00  0.00    +0.000 NA
ATOM     32  H   UNL     1       5.921   3.666  18.986  0.00  0.00    +0.000 HD
ENDBRANCH  22  25
ENDBRANCH   4  22
TORSDOF 4
ENDMDL
MODEL 5
REMARK VINA RESULT:      -8.8      7.560     11.018
REMARK  Name = 
REMARK  4 active torsions:
REMARK  status: ('A' for Active; 'I' for Inactive)
REMARK    1  A    between atoms: C_2  and  C_20
REMARK    2  A    between atoms: N_3  and  C_4
REMARK    3  A    between atoms: C_7  and  S_8
REMARK    4  A    between atoms: S_8  and  N_11
REMARK                            x       y       z     vdW  Elec       q    Type
REMARK                         _______ _______ _______ _____ _____    ______ ____
ROOT
ATOM      1  C   UNL     1       1.138   8.652  20.829  0.00  0.00    +0.000 A 
ATOM      2  C   UNL     1       1.034   9.610  19.812  0.00  0.00    +0.000 A 
ATOM      3  C   UNL     1       0.537  10.890  20.067  0.00  0.00    +0.000 A 
ATOM      4  C   UNL     1       0.123  11.222  21.354  0.00  0.00    +0.000 A 
ATOM      5  C   UNL     1       0.242  10.288  22.391  0.00  0.00    +0.000 A 
ATOM      6  C   UNL     1       0.719   8.996  22.121  0.00  0.00    +0.000 A 
ENDROOT
BRANCH   1   9
ATOM      7  O   UNL     1       2.694   7.745  18.590  0.00  0.00    +0.000 OA
ATOM      8  C   UNL     1       2.300   6.953  19.447  0.00  0.00    +0.000 C 
ATOM      9  N   UNL     1       1.630   7.341  20.591  0.00  0.00    +0.000 N 
ATOM     10  H   UNL     1       1.606   6.695  21.368  0.00  0.00    +0.000 HD
BRANCH   8  11
ATOM     11  C   UNL     1       2.571   5.443  19.261  0.00  0.00    +0.000 C 
ATOM     12  C   UNL     1       1.924   4.898  17.968  0.00  0.00    +0.000 C 
ATOM     13  C   UNL     1       2.310   3.420  17.751  0.00  0.00    +0.000 C 
ATOM     14  C   UNL     1       3.839   3.295  17.646  0.00  0.00    +0.000 C 
ATOM     15  C   UNL     1       4.496   3.793  18.939  0.00  0.00    +0.000 C 
ATOM     16  C   UNL     1       3.991   2.977  20.138  0.00  0.00    +0.000 C 
ATOM     17  C   UNL     1       2.460   3.111  20.250  0.00  0.00    +0.000 C 
ATOM     18 CL   UNL     1       1.874   2.146  21.635  0.00  0.00    +0.000 Cl
ATOM     19  C   UNL     1       1.819   2.588  18.950  0.00  0.00    +0.000 C 
ATOM     20  C   UNL     1       2.074   4.596  20.453  0.00  0.00    +0.000 C 
ATOM     21  C   UNL     1       4.114   5.260  19.150  0.00  0.00    +0.000 C 
ENDBRANCH   8  11
ENDBRANCH   1   9
BRANCH   4  22
ATOM     22  S   UNL     1      -0.508  12.865  21.668  0.00  0.00    +0.000 S 
ATOM     23  O   UNL     1      -0.337  13.131  23.080  0.00  0.00    +0.000 OA
ATOM     24  O   UNL     1       0.096  13.733  20.677  0.00  0.00    +0.000 OA
BRANCH  22  25
ATOM     25  N   UNL     1      -2.139  12.766  21.269  0.00  0.00    +0.000 N 
ATOM     26  C   UNL     1      -2.995  13.106  22.317  0.00  0.00    +0.000 A 
ATOM     27  N   UNL     1      -3.333  14.387  22.442  0.00  0.00    +0.000 NA
ATOM     28  C   UNL     1      -4.062  14.688  23.529  0.00  0.00    +0.000 A 
ATOM     29  C   UNL     1      -4.411  13.764  24.488  0.00  0.00    +0.000 A 
ATOM     30  C   UNL     1      -3.998  12.474  24.245  0.00  0.00    +0.000 A 
ATOM     31  N   UNL     1      -3.302  12.110  23.152  0.00  0.00    +0.000 NA
ATOM     32  H   UNL     1      -2.358  11.843  20.912  0.00  0.00    +0.000 HD
ENDBRANCH  22  25
ENDBRANCH   4  22
TORSDOF 4
ENDMDL
MODEL 6
REMARK VINA RESULT:      -8.7      7.616     11.154
REMARK  Name = 
REMARK  4 active torsions:
REMARK  status: ('A' for Active; 'I' for Inactive)
REMARK    1  A    between atoms: C_2  and  C_20
REMARK    2  A    between atoms: N_3  and  C_4
REMARK    3  A    between atoms: C_7  and  S_8
REMARK    4  A    between atoms: S_8  and  N_11
REMARK                            x       y       z     vdW  Elec       q    Type
REMARK                         _______ _______ _______ _____ _____    ______ ____
ROOT
ATOM      1  C   UNL     1       1.023   8.630  21.024  0.00  0.00    +0.000 A 
ATOM      2  C   UNL     1       0.949   9.655  20.072  0.00  0.00    +0.000 A 
ATOM      3  C   UNL     1       0.400  10.900  20.385  0.00  0.00    +0.000 A 
ATOM      4  C   UNL     1      -0.096  11.128  21.665  0.00  0.00    +0.000 A 
ATOM      5  C   UNL     1      -0.010  10.126  22.641  0.00  0.00    +0.000 A 
ATOM      6  C   UNL     1       0.521   8.869  22.309  0.00  0.00    +0.000 A 
ENDROOT
BRANCH   1   9
ATOM      7  O   UNL     1       2.523   7.866  18.694  0.00  0.00    +0.000 OA
ATOM      8  C   UNL     1       2.205   7.031  19.542  0.00  0.00    +0.000 C 
ATOM      9  N   UNL     1       1.568   7.352  20.724  0.00  0.00    +0.000 N 
ATOM     10  H   UNL     1       1.608   6.683  21.481  0.00  0.00    +0.000 HD
BRANCH   8  11
ATOM     11  C   UNL     1       2.540   5.542  19.298  0.00  0.00    +0.000 C 
ATOM     12  C   UNL     1       1.908   5.018  17.988  0.00  0.00    +0.000 C 
ATOM     13  C   UNL     1       2.357   3.567  17.714  0.00  0.00    +0.000 C 
ATOM     14  C   UNL     1       3.889   3.514  17.595  0.00  0.00    +0.000 C 
ATOM     15  C   UNL     1       4.533   3.992  18.903  0.00  0.00    +0.000 C 
ATOM     16  C   UNL     1       4.073   3.110  20.073  0.00  0.00    +0.000 C 
ATOM     17  C   UNL     1       2.539   3.173  20.199  0.00  0.00    +0.000 C 
ATOM     18 CL   UNL     1       2.005   2.131  21.550  0.00  0.00    +0.000 Cl
ATOM     19  C   UNL     1       1.911   2.670  18.884  0.00  0.00    +0.000 C 
ATOM     20  C   UNL     1       2.089   4.630  20.460  0.00  0.00    +0.000 C 
ATOM     21  C   UNL     1       4.089   5.431  19.171  0.00  0.00    +0.000 C 
ENDBRANCH   8  11
ENDBRANCH   1   9
BRANCH   4  22
ATOM     22  S   UNL     1      -0.794  12.727  22.056  0.00  0.00    +0.000 S 
ATOM     23  O   UNL     1       0.308  13.627  22.318  0.00  0.00    +0.000 OA
ATOM     24  O   UNL     1      -1.752  13.023  21.008  0.00  0.00    +0.000 OA
BRANCH  22  25
ATOM     25  N   UNL     1      -1.696  12.458  23.450  0.00  0.00    +0.000 N 
ATOM     26  C   UNL     1      -2.957  13.055  23.426  0.00  0.00    +0.000 A 
ATOM     27  N   UNL     1      -3.960  12.349  22.910  0.00  0.00    +0.000 NA
ATOM     28  C   UNL     1      -5.128  13.003  22.800  0.00  0.00    +0.000 A 
ATOM     29  C   UNL     1      -5.293  14.324  23.148  0.00  0.00    +0.000 A 
ATOM     30  C   UNL     1      -4.179  14.945  23.666  0.00  0.00    +0.000 A 
ATOM     31  N   UNL     1      -2.996  14.325  23.836  0.00  0.00    +0.000 NA
ATOM     32  H   UNL     1      -1.175  12.753  24.267  0.00  0.00    +0.000 HD
ENDBRANCH  22  25
ENDBRANCH   4  22
TORSDOF 4
ENDMDL
MODEL 7
REMARK VINA RESULT:      -8.7      6.440     10.940
REMARK  Name = 
REMARK  4 active torsions:
REMARK  status: ('A' for Active; 'I' for Inactive)
REMARK    1  A    between atoms: C_2  and  C_20
REMARK    2  A    between atoms: N_3  and  C_4
REMARK    3  A    between atoms: C_7  and  S_8
REMARK    4  A    between atoms: S_8  and  N_11
REMARK                            x       y       z     vdW  Elec       q    Type
REMARK                         _______ _______ _______ _____ _____    ______ ____
ROOT
ATOM      1  C   UNL     1       1.341   8.844  19.918  0.00  0.00    +0.000 A 
ATOM      2  C   UNL     1       1.326   9.607  18.743  0.00  0.00    +0.000 A 
ATOM      3  C   UNL     1       0.975  10.959  18.758  0.00  0.00    +0.000 A 
ATOM      4  C   UNL     1       0.620  11.562  19.961  0.00  0.00    +0.000 A 
ATOM      5  C   UNL     1       0.653  10.825  21.152  0.00  0.00    +0.000 A 
ATOM      6  C   UNL     1       0.983   9.461  21.123  0.00  0.00    +0.000 A 
ENDROOT
BRANCH   1   9
ATOM      7  O   UNL     1       3.120   7.473  18.124  0.00  0.00    +0.000 OA
ATOM      8  C   UNL     1       2.481   6.853  18.976  0.00  0.00    +0.000 C 
ATOM      9  N   UNL     1       1.685   7.466  19.925  0.00  0.00    +0.000 N 
ATOM     10  H   UNL     1       1.441   6.937  20.751  0.00  0.00    +0.000 HD
BRANCH   8  11
ATOM     11  C   UNL     1       2.573   5.312  19.015  0.00  0.00    +0.000 C 
ATOM     12  C   UNL     1       1.899   4.664  17.784  0.00  0.00    +0.000 C 
ATOM     13  C   UNL     1       2.109   3.136  17.793  0.00  0.00    +0.000 C 
ATOM     14  C   UNL     1       3.614   2.821  17.772  0.00  0.00    +0.000 C 
ATOM     15  C   UNL     1       4.292   3.421  19.010  0.00  0.00    +0.000 C 
ATOM     16  C   UNL     1       3.661   2.849  20.288  0.00  0.00    +0.000 C 
ATOM     17  C   UNL     1       2.156   3.175  20.315  0.00  0.00    +0.000 C 
ATOM     18 CL   UNL     1       1.422   2.493  21.795  0.00  0.00    +0.000 Cl
ATOM     19  C   UNL     1       1.490   2.548  19.074  0.00  0.00    +0.000 C 
ATOM     20  C   UNL     1       1.946   4.708  20.292  0.00  0.00    +0.000 C 
ATOM     21  C   UNL     1       4.085   4.936  18.997  0.00  0.00    +0.000 C 
ENDBRANCH   8  11
ENDBRANCH   1   9
BRANCH   4  22
ATOM     22  S   UNL     1       0.176  13.294  19.969  0.00  0.00    +0.000 S 
ATOM     23  O   UNL     1      -0.095  13.676  18.600  0.00  0.00    +0.000 OA
ATOM     24  O   UNL     1      -0.840  13.452  20.991  0.00  0.00    +0.000 OA
BRANCH  22  25
ATOM     25  N   UNL     1       1.548  14.072  20.551  0.00  0.00    +0.000 N 
ATOM     26  C   UNL     1       2.199  14.852  19.594  0.00  0.00    +0.000 A 
ATOM     27  N   UNL     1       1.809  16.118  19.466  0.00  0.00    +0.000 NA
ATOM     28  C   UNL     1       2.380  16.797  18.457  0.00  0.00    +0.000 A 
ATOM     29  C   UNL     1       3.275  16.235  17.575  0.00  0.00    +0.000 A 
ATOM     30  C   UNL     1       3.594  14.918  17.813  0.00  0.00    +0.000 A 
ATOM     31  N   UNL     1       3.084  14.203  18.833  0.00  0.00    +0.000 NA
ATOM     32  H   UNL     1       2.186  13.400  20.960  0.00  0.00    +0.000 HD
ENDBRANCH  22  25
ENDBRANCH   4  22
TORSDOF 4
ENDMDL
MODEL 8
REMARK VINA RESULT:      -8.7      7.395      9.724
REMARK  Name = 
REMARK  4 active torsions:
REMARK  status: ('A' for Active; 'I' for Inactive)
REMARK    1  A    between atoms: C_2  and  C_20
REMARK    2  A    between atoms: N_3  and  C_4
REMARK    3  A    between atoms: C_7  and  S_8
REMARK    4  A    between atoms: S_8  and  N_11
REMARK                            x       y       z     vdW  Elec       q    Type
REMARK                         _______ _______ _______ _____ _____    ______ ____
ROOT
ATOM      1  C   UNL     1       0.708   9.654  20.160  0.00  0.00    +0.000 A 
ATOM      2  C   UNL     1       0.997   8.547  20.967  0.00  0.00    +0.000 A 
ATOM      3  C   UNL     1       1.751   7.474  20.487  0.00  0.00    +0.000 A 
ATOM      4  C   UNL     1       2.215   7.494  19.175  0.00  0.00    +0.000 A 
ATOM      5  C   UNL     1       1.960   8.602  18.358  0.00  0.00    +0.000 A 
ATOM      6  C   UNL     1       1.181   9.666  18.842  0.00  0.00    +0.000 A 
ENDROOT
BRANCH   1   9
ATOM      7  O   UNL     1       0.255  10.452  22.884  0.00  0.00    +0.000 OA
ATOM      8  C   UNL     1      -0.312  11.028  21.955  0.00  0.00    +0.000 C 
ATOM      9  N   UNL     1      -0.064  10.753  20.624  0.00  0.00    +0.000 N 
ATOM     10  H   UNL     1      -0.330  11.447  19.939  0.00  0.00    +0.000 HD
BRANCH   8  11
ATOM     11  C   UNL     1      -1.348  12.130  22.270  0.00  0.00    +0.000 C 
ATOM     12  C   UNL     1      -0.669  13.447  22.711  0.00  0.00    +0.000 C 
ATOM     13  C   UNL     1      -1.721  14.559  22.904  0.00  0.00    +0.000 C 
ATOM     14  C   UNL     1      -2.475  14.793  21.585  0.00  0.00    +0.000 C 
ATOM     15  C   UNL     1      -3.190  13.506  21.154  0.00  0.00    +0.000 C 
ATOM     16  C   UNL     1      -4.177  13.059  22.242  0.00  0.00    +0.000 C 
ATOM     17  C   UNL     1      -3.420  12.814  23.561  0.00  0.00    +0.000 C 
ATOM     18 CL   UNL     1      -4.574  12.312  24.830  0.00  0.00    +0.000 Cl
ATOM     19  C   UNL     1      -2.726  14.123  23.987  0.00  0.00    +0.000 C 
ATOM     20  C   UNL     1      -2.356  11.708  23.362  0.00  0.00    +0.000 C 
ATOM     21  C   UNL     1      -2.145  12.406  20.960  0.00  0.00    +0.000 C 
ENDBRANCH   8  11
ENDBRANCH   1   9
BRANCH   4  22
ATOM     22  S   UNL     1       3.181   6.115  18.573  0.00  0.00    +0.000 S 
ATOM     23  O   UNL     1       3.971   5.624  19.681  0.00  0.00    +0.000 OA
ATOM     24  O   UNL     1       2.256   5.238  17.882  0.00  0.00    +0.000 OA
BRANCH  22  25
ATOM     25  N   UNL     1       4.164   6.785  17.383  0.00  0.00    +0.000 N 
ATOM     26  C   UNL     1       5.332   6.060  17.148  0.00  0.00    +0.000 A 
ATOM     27  N   UNL     1       5.279   5.088  16.241  0.00  0.00    +0.000 NA
ATOM     28  C   UNL     1       6.390   4.342  16.130  0.00  0.00    +0.000 A 
ATOM     29  C   UNL     1       7.505   4.519  16.918  0.00  0.00    +0.000 A 
ATOM     30  C   UNL     1       7.434   5.556  17.820  0.00  0.00    +0.000 A 
ATOM     31  N   UNL     1       6.362   6.360  17.944  0.00  0.00    +0.000 NA
ATOM     32  H   UNL     1       4.378   7.749  17.608  0.00  0.00    +0.000 HD
ENDBRANCH  22  25
ENDBRANCH   4  22
TORSDOF 4
ENDMDL
MODEL 9
REMARK VINA RESULT:      -8.7      7.288     10.619
REMARK  Name = 
REMARK  4 active torsions:
REMARK  status: ('A' for Active; 'I' for Inactive)
REMARK    1  A    between atoms: C_2  and  C_20
REMARK    2  A    between atoms: N_3  and  C_4
REMARK    3  A    between atoms: C_7  and  S_8
REMARK    4  A    between atoms: S_8  and  N_11
REMARK                            x       y       z     vdW  Elec       q    Type
REMARK                         _______ _______ _______ _____ _____    ______ ____
ROOT
ATOM      1  C   UNL     1       1.092   8.635  21.046  0.00  0.00    +0.000 A 
ATOM      2  C   UNL     1       0.840   9.697  20.169  0.00  0.00    +0.000 A 
ATOM      3  C   UNL     1       0.126  10.825  20.580  0.00  0.00    +0.000 A 
ATOM      4  C   UNL     1      -0.358  10.893  21.883  0.00  0.00    +0.000 A 
ATOM      5  C   UNL     1      -0.096   9.854  22.785  0.00  0.00    +0.000 A 
ATOM      6  C   UNL     1       0.602   8.713  22.356  0.00  0.00    +0.000 A 
ENDROOT
BRANCH   1   9
ATOM      7  O   UNL     1       2.222   8.072  18.464  0.00  0.00    +0.000 OA
ATOM      8  C   UNL     1       2.249   7.229  19.362  0.00  0.00    +0.000 C 
ATOM      9  N   UNL     1       1.808   7.473  20.648  0.00  0.00    +0.000 N 
ATOM     10  H   UNL     1       2.128   6.858  21.383  0.00  0.00    +0.000 HD
BRANCH   8  11
ATOM     11  C   UNL     1       2.815   5.823  19.061  0.00  0.00    +0.000 C 
ATOM     12  C   UNL     1       2.718   4.890  20.289  0.00  0.00    +0.000 C 
ATOM     13  C   UNL     1       3.182   3.465  19.924  0.00  0.00    +0.000 C 
ATOM     14  C   UNL     1       2.301   2.909  18.793  0.00  0.00    +0.000 C 
ATOM     15  C   UNL     1       2.418   3.801  17.551  0.00  0.00    +0.000 C 
ATOM     16  C   UNL     1       3.879   3.868  17.083  0.00  0.00    +0.000 C 
ATOM     17  C   UNL     1       4.760   4.436  18.212  0.00  0.00    +0.000 C 
ATOM     18 CL   UNL     1       6.462   4.497  17.671  0.00  0.00    +0.000 Cl
ATOM     19  C   UNL     1       4.644   3.516  19.443  0.00  0.00    +0.000 C 
ATOM     20  C   UNL     1       4.285   5.860  18.588  0.00  0.00    +0.000 C 
ATOM     21  C   UNL     1       1.955   5.212  17.915  0.00  0.00    +0.000 C 
ENDBRANCH   8  11
ENDBRANCH   1   9
BRANCH   4  22
ATOM     22  S   UNL     1      -1.269  12.343  22.398  0.00  0.00    +0.000 S 
ATOM     23  O   UNL     1      -2.546  11.894  22.907  0.00  0.00    +0.000 OA
ATOM     24  O   UNL     1      -0.372  13.114  23.236  0.00  0.00    +0.000 OA
BRANCH  22  25
ATOM     25  N   UNL     1      -1.465  13.234  20.984  0.00  0.00    +0.000 N 
ATOM     26  C   UNL     1      -2.792  13.332  20.563  0.00  0.00    +0.000 A 
ATOM     27  N   UNL     1      -3.512  14.347  21.036  0.00  0.00    +0.000 NA
ATOM     28  C   UNL     1      -4.811  14.338  20.699  0.00  0.00    +0.000 A 
ATOM     29  C   UNL     1      -5.395  13.338  19.954  0.00  0.00    +0.000 A 
ATOM     30  C   UNL     1      -4.545  12.344  19.527  0.00  0.00    +0.000 A 
ATOM     31  N   UNL     1      -3.227  12.325  19.802  0.00  0.00    +0.000 NA
ATOM     32  H   UNL     1      -0.882  12.855  20.248  0.00  0.00    +0.000 HD
ENDBRANCH  22  25
ENDBRANCH   4  22
TORSDOF 4
ENDMDL
