MODEL 1
REMARK VINA RESULT:      -8.4      0.000      0.000
REMARK  Name = 
REMARK  4 active torsions:
REMARK  status: ('A' for Active; 'I' for Inactive)
REMARK    1  A    between atoms: C_1  and  O_2
REMARK    2  A    between atoms: O_2  and  C_3
REMARK    3  A    between atoms: C_6  and  C_7
REMARK    4  A    between atoms: C_9  and  N_10
REMARK                            x       y       z     vdW  Elec       q    Type
REMARK                         _______ _______ _______ _____ _____    ______ ____
ROOT
ATOM      1  C   UNL     1       2.888   6.448  18.114  0.00  0.00    +0.000 A 
ATOM      2  S   UNL     1       2.276   4.820  18.182  0.00  0.00    +0.000 S 
ATOM      3  C   UNL     1       3.844   4.334  18.783  0.00  0.00    +0.000 A 
ATOM      4  C   UNL     1       4.647   5.482  18.968  0.00  0.00    +0.000 A 
ATOM      5  C   UNL     1       4.248   6.306  17.831  0.00  0.00    +0.000 A 
ATOM      6  C   UNL     1       5.205   5.772  16.817  0.00  0.00    +0.000 A 
ATOM      7  C   UNL     1       5.024   5.163  15.584  0.00  0.00    +0.000 A 
ATOM      8  C   UNL     1       6.047   4.295  15.092  0.00  0.00    +0.000 A 
ATOM      9  C   UNL     1       7.260   4.079  15.780  0.00  0.00    +0.000 A 
ATOM     10  C   UNL     1       7.459   4.669  17.022  0.00  0.00    +0.000 A 
ATOM     11  C   UNL     1       6.414   5.442  17.513  0.00  0.00    +0.000 A 
ATOM     12  C   UNL     1       6.103   5.455  18.967  0.00  0.00    +0.000 C 
ATOM     13  O   UNL     1       6.877   5.491  19.905  0.00  0.00    +0.000 OA
ENDROOT
BRANCH   1  17
ATOM     14  C   UNL     1       0.707   9.173  20.772  0.00  0.00    +0.000 A 
ATOM     15  C   UNL     1       1.154   7.924  21.205  0.00  0.00    +0.000 A 
ATOM     16  C   UNL     1       1.921   7.084  20.373  0.00  0.00    +0.000 A 
ATOM     17  C   UNL     1       2.257   7.460  19.057  0.00  0.00    +0.000 A 
ATOM     18  C   UNL     1       1.827   8.747  18.657  0.00  0.00    +0.000 A 
ATOM     19  C   UNL     1       1.049   9.587  19.491  0.00  0.00    +0.000 A 
BRANCH  14  21
ATOM     20  C   UNL     1      -0.012   9.474  23.032  0.00  0.00    +0.000 C 
ATOM     21  O   UNL     1      -0.094   9.840  21.659  0.00  0.00    +0.000 OA
ENDBRANCH  14  21
ENDBRANCH   1  17
BRANCH   3  22
ATOM     22  N   UNL     1       4.206   3.033  18.650  0.00  0.00    +0.000 N 
ATOM     23  H   UNL     1       3.437   2.379  18.790  0.00  0.00    +0.000 HD
ATOM     24  H   UNL     1       4.670   2.792  17.772  0.00  0.00    +0.000 HD
ENDBRANCH   3  22
TORSDOF 3
ENDMDL
MODEL 2
REMARK VINA RESULT:      -8.1      0.307      1.065
REMARK  Name = 
REMARK  4 active torsions:
REMARK  status: ('A' for Active; 'I' for Inactive)
REMARK    1  A    between atoms: C_1  and  O_2
REMARK    2  A    between atoms: O_2  and  C_3
REMARK    3  A    between atoms: C_6  and  C_7
REMARK    4  A    between atoms: C_9  and  N_10
REMARK                            x       y       z     vdW  Elec       q    Type
REMARK                         _______ _______ _______ _____ _____    ______ ____
ROOT
ATOM      1  C   UNL     1       2.781   6.373  18.038  0.00  0.00    +0.000 A 
ATOM      2  S   UNL     1       2.228   4.727  17.932  0.00  0.00    +0.000 S 
ATOM      3  C   UNL     1       3.782   4.241  18.568  0.00  0.00    +0.000 A 
ATOM      4  C   UNL     1       4.531   5.394  18.894  0.00  0.00    +0.000 A 
ATOM      5  C   UNL     1       4.157   6.303  17.814  0.00  0.00    +0.000 A 
ATOM      6  C   UNL     1       5.181   5.893  16.808  0.00  0.00    +0.000 A 
ATOM      7  C   UNL     1       5.083   5.391  15.519  0.00  0.00    +0.000 A 
ATOM      8  C   UNL     1       6.160   4.605  15.006  0.00  0.00    +0.000 A 
ATOM      9  C   UNL     1       7.346   4.368  15.734  0.00  0.00    +0.000 A 
ATOM     10  C   UNL     1       7.463   4.851  17.031  0.00  0.00    +0.000 A 
ATOM     11  C   UNL     1       6.367   5.543  17.534  0.00  0.00    +0.000 A 
ATOM     12  C   UNL     1       5.986   5.415  18.965  0.00  0.00    +0.000 C 
ATOM     13  O   UNL     1       6.711   5.393  19.942  0.00  0.00    +0.000 OA
ENDROOT
BRANCH   1  17
ATOM     14  C   UNL     1       1.090   9.163  20.973  0.00  0.00    +0.000 A 
ATOM     15  C   UNL     1       1.292   9.529  19.641  0.00  0.00    +0.000 A 
ATOM     16  C   UNL     1       1.763   8.607  18.684  0.00  0.00    +0.000 A 
ATOM     17  C   UNL     1       2.067   7.276  19.033  0.00  0.00    +0.000 A 
ATOM     18  C   UNL     1       1.815   6.920  20.379  0.00  0.00    +0.000 A 
ATOM     19  C   UNL     1       1.350   7.850  21.341  0.00  0.00    +0.000 A 
BRANCH  14  21
ATOM     20  C   UNL     1      -0.042   9.847  22.964  0.00  0.00    +0.000 C 
ATOM     21  O   UNL     1       0.708  10.183  21.801  0.00  0.00    +0.000 OA
ENDBRANCH  14  21
ENDBRANCH   1  17
BRANCH   3  22
ATOM     22  N   UNL     1       4.199   2.970  18.340  0.00  0.00    +0.000 N 
ATOM     23  H   UNL     1       5.204   2.892  18.184  0.00  0.00    +0.000 HD
ATOM     24  H   UNL     1       3.935   2.285  19.050  0.00  0.00    +0.000 HD
ENDBRANCH   3  22
TORSDOF 3
ENDMDL
MODEL 3
REMARK VINA RESULT:      -8.1      3.330      7.355
REMARK  Name = 
REMARK  4 active torsions:
REMARK  status: ('A' for Active; 'I' for Inactive)
REMARK    1  A    between atoms: C_1  and  O_2
REMARK    2  A    between atoms: O_2  and  C_3
REMARK    3  A    between atoms: C_6  and  C_7
REMARK    4  A    between atoms: C_9  and  N_10
REMARK                            x       y       z     vdW  Elec       q    Type
REMARK                         _______ _______ _______ _____ _____    ______ ____
ROOT
ATOM      1  C   UNL     1       5.116   5.147  16.778  0.00  0.00    +0.000 A 
ATOM      2  S   UNL     1       6.157   4.704  18.101  0.00  0.00    +0.000 S 
ATOM      3  C   UNL     1       5.007   3.445  18.488  0.00  0.00    +0.000 A 
ATOM      4  C   UNL     1       3.992   3.425  17.504  0.00  0.00    +0.000 A 
ATOM      5  C   UNL     1       3.827   4.848  17.223  0.00  0.00    +0.000 A 
ATOM      6  C   UNL     1       2.826   5.174  18.281  0.00  0.00    +0.000 A 
ATOM      7  C   UNL     1       2.838   6.069  19.341  0.00  0.00    +0.000 A 
ATOM      8  C   UNL     1       2.008   5.801  20.473  0.00  0.00    +0.000 A 
ATOM      9  C   UNL     1       1.132   4.696  20.532  0.00  0.00    +0.000 A 
ATOM     10  C   UNL     1       1.111   3.780  19.488  0.00  0.00    +0.000 A 
ATOM     11  C   UNL     1       1.988   4.022  18.437  0.00  0.00    +0.000 A 
ATOM     12  C   UNL     1       2.656   2.893  17.737  0.00  0.00    +0.000 C 
ATOM     13  O   UNL     1       2.181   1.825  17.400  0.00  0.00    +0.000 OA
ENDROOT
BRANCH   1  17
ATOM     14  C   UNL     1       6.780   4.163  12.839  0.00  0.00    +0.000 A 
ATOM     15  C   UNL     1       5.469   3.833  13.187  0.00  0.00    +0.000 A 
ATOM     16  C   UNL     1       4.914   4.219  14.424  0.00  0.00    +0.000 A 
ATOM     17  C   UNL     1       5.663   4.941  15.373  0.00  0.00    +0.000 A 
ATOM     18  C   UNL     1       6.975   5.298  14.979  0.00  0.00    +0.000 A 
ATOM     19  C   UNL     1       7.534   4.903  13.740  0.00  0.00    +0.000 A 
BRANCH  14  21
ATOM     20  C   UNL     1       6.969   2.272  11.389  0.00  0.00    +0.000 C 
ATOM     21  O   UNL     1       7.206   3.652  11.643  0.00  0.00    +0.000 OA
ENDBRANCH  14  21
ENDBRANCH   1  17
BRANCH   3  22
ATOM     22  N   UNL     1       5.003   2.947  19.750  0.00  0.00    +0.000 N 
ATOM     23  H   UNL     1       5.439   2.028  19.827  0.00  0.00    +0.000 HD
ATOM     24  H   UNL     1       5.412   3.551  20.464  0.00  0.00    +0.000 HD
ENDBRANCH   3  22
TORSDOF 3
ENDMDL
MODEL 4
REMARK VINA RESULT:      -7.9      0.962      1.015
REMARK  Name = 
REMARK  4 active torsions:
REMARK  status: ('A' for Active; 'I' for Inactive)
REMARK    1  A    between atoms: C_1  and  O_2
REMARK    2  A    between atoms: O_2  and  C_3
REMARK    3  A    between atoms: C_6  and  C_7
REMARK    4  A    between atoms: C_9  and  N_10
REMARK                            x       y       z     vdW  Elec       q    Type
REMARK                         _______ _______ _______ _____ _____    ______ ____
ROOT
ATOM      1  C   UNL     1       3.104   6.209  17.999  0.00  0.00    +0.000 A 
ATOM      2  S   UNL     1       3.164   4.630  18.727  0.00  0.00    +0.000 S 
ATOM      3  C   UNL     1       4.904   4.791  18.761  0.00  0.00    +0.000 A 
ATOM      4  C   UNL     1       5.260   6.080  18.304  0.00  0.00    +0.000 A 
ATOM      5  C   UNL     1       4.278   6.299  17.247  0.00  0.00    +0.000 A 
ATOM      6  C   UNL     1       5.019   5.668  16.114  0.00  0.00    +0.000 A 
ATOM      7  C   UNL     1       4.713   4.619  15.261  0.00  0.00    +0.000 A 
ATOM      8  C   UNL     1       5.785   3.899  14.649  0.00  0.00    +0.000 A 
ATOM      9  C   UNL     1       7.140   4.251  14.829  0.00  0.00    +0.000 A 
ATOM     10  C   UNL     1       7.471   5.291  15.687  0.00  0.00    +0.000 A 
ATOM     11  C   UNL     1       6.413   5.920  16.332  0.00  0.00    +0.000 A 
ATOM     12  C   UNL     1       6.560   6.401  17.732  0.00  0.00    +0.000 C 
ATOM     13  O   UNL     1       7.509   6.968  18.240  0.00  0.00    +0.000 OA
ENDROOT
BRANCH   1  17
ATOM     14  C   UNL     1       0.889   9.209  20.311  0.00  0.00    +0.000 A 
ATOM     15  C   UNL     1       1.345   8.023  20.890  0.00  0.00    +0.000 A 
ATOM     16  C   UNL     1       2.123   7.098  20.164  0.00  0.00    +0.000 A 
ATOM     17  C   UNL     1       2.461   7.320  18.814  0.00  0.00    +0.000 A 
ATOM     18  C   UNL     1       2.021   8.547  18.264  0.00  0.00    +0.000 A 
ATOM     19  C   UNL     1       1.233   9.472  18.992  0.00  0.00    +0.000 A 
BRANCH  14  21
ATOM     20  C   UNL     1      -0.186   9.496  22.427  0.00  0.00    +0.000 C 
ATOM     21  O   UNL     1       0.079   9.969  21.110  0.00  0.00    +0.000 OA
ENDBRANCH  14  21
ENDBRANCH   1  17
BRANCH   3  22
ATOM     22  N   UNL     1       5.651   3.661  18.840  0.00  0.00    +0.000 N 
ATOM     23  H   UNL     1       5.354   2.930  18.193  0.00  0.00    +0.000 HD
ATOM     24  H   UNL     1       6.658   3.789  18.731  0.00  0.00    +0.000 HD
ENDBRANCH   3  22
TORSDOF 3
ENDMDL
MODEL 5
REMARK VINA RESULT:      -7.6      1.533      2.064
REMARK  Name = 
REMARK  4 active torsions:
REMARK  status: ('A' for Active; 'I' for Inactive)
REMARK    1  A    between atoms: C_1  and  O_2
REMARK    2  A    between atoms: O_2  and  C_3
REMARK    3  A    between atoms: C_6  and  C_7
REMARK    4  A    between atoms: C_9  and  N_10
REMARK                            x       y       z     vdW  Elec       q    Type
REMARK                         _______ _______ _______ _____ _____    ______ ____
ROOT
ATOM      1  C   UNL     1       3.101   6.115  18.298  0.00  0.00    +0.000 A 
ATOM      2  S   UNL     1       3.733   4.970  19.446  0.00  0.00    +0.000 S 
ATOM      3  C   UNL     1       5.331   5.536  19.020  0.00  0.00    +0.000 A 
ATOM      4  C   UNL     1       5.216   6.616  18.115  0.00  0.00    +0.000 A 
ATOM      5  C   UNL     1       4.077   6.198  17.303  0.00  0.00    +0.000 A 
ATOM      6  C   UNL     1       4.810   5.392  16.282  0.00  0.00    +0.000 A 
ATOM      7  C   UNL     1       4.720   4.064  15.894  0.00  0.00    +0.000 A 
ATOM      8  C   UNL     1       5.864   3.444  15.302  0.00  0.00    +0.000 A 
ATOM      9  C   UNL     1       7.062   4.145  15.042  0.00  0.00    +0.000 A 
ATOM     10  C   UNL     1       7.179   5.472  15.433  0.00  0.00    +0.000 A 
ATOM     11  C   UNL     1       6.080   6.025  16.079  0.00  0.00    +0.000 A 
ATOM     12  C   UNL     1       6.267   7.002  17.185  0.00  0.00    +0.000 C 
ATOM     13  O   UNL     1       7.062   7.921  17.255  0.00  0.00    +0.000 OA
ENDROOT
BRANCH   1  17
ATOM     14  C   UNL     1       1.062   9.639  19.934  0.00  0.00    +0.000 A 
ATOM     15  C   UNL     1       1.393   9.542  18.582  0.00  0.00    +0.000 A 
ATOM     16  C   UNL     1       1.977   8.377  18.045  0.00  0.00    +0.000 A 
ATOM     17  C   UNL     1       2.271   7.262  18.855  0.00  0.00    +0.000 A 
ATOM     18  C   UNL     1       1.890   7.370  20.213  0.00  0.00    +0.000 A 
ATOM     19  C   UNL     1       1.310   8.544  20.753  0.00  0.00    +0.000 A 
BRANCH  14  21
ATOM     20  C   UNL     1       0.462  11.874  19.336  0.00  0.00    +0.000 C 
ATOM     21  O   UNL     1       0.577  10.857  20.326  0.00  0.00    +0.000 OA
ENDBRANCH  14  21
ENDBRANCH   1  17
BRANCH   3  22
ATOM     22  N   UNL     1       6.387   4.721  19.269  0.00  0.00    +0.000 N 
ATOM     23  H   UNL     1       7.264   5.054  18.867  0.00  0.00    +0.000 HD
ATOM     24  H   UNL     1       6.553   4.502  20.253  0.00  0.00    +0.000 HD
ENDBRANCH   3  22
TORSDOF 3
ENDMDL
MODEL 6
REMARK VINA RESULT:      -7.4      2.998      7.464
REMARK  Name = 
REMARK  4 active torsions:
REMARK  status: ('A' for Active; 'I' for Inactive)
REMARK    1  A    between atoms: C_1  and  O_2
REMARK    2  A    between atoms: O_2  and  C_3
REMARK    3  A    between atoms: C_6  and  C_7
REMARK    4  A    between atoms: C_9  and  N_10
REMARK                            x       y       z     vdW  Elec       q    Type
REMARK                         _______ _______ _______ _____ _____    ______ ____
ROOT
ATOM      1  C   UNL     1       5.247   5.446  16.122  0.00  0.00    +0.000 A 
ATOM      2  S   UNL     1       6.441   6.122  17.192  0.00  0.00    +0.000 S 
ATOM      3  C   UNL     1       5.909   4.970  18.395  0.00  0.00    +0.000 A 
ATOM      4  C   UNL     1       4.941   4.115  17.822  0.00  0.00    +0.000 A 
ATOM      5  C   UNL     1       4.208   5.037  16.960  0.00  0.00    +0.000 A 
ATOM      6  C   UNL     1       3.213   5.536  17.954  0.00  0.00    +0.000 A 
ATOM      7  C   UNL     1       2.918   6.804  18.432  0.00  0.00    +0.000 A 
ATOM      8  C   UNL     1       2.320   6.928  19.724  0.00  0.00    +0.000 A 
ATOM      9  C   UNL     1       1.962   5.810  20.509  0.00  0.00    +0.000 A 
ATOM     10  C   UNL     1       2.258   4.531  20.056  0.00  0.00    +0.000 A 
ATOM     11  C   UNL     1       2.913   4.444  18.833  0.00  0.00    +0.000 A 
ATOM     12  C   UNL     1       3.942   3.396  18.600  0.00  0.00    +0.000 C 
ATOM     13  O   UNL     1       3.916   2.225  18.931  0.00  0.00    +0.000 OA
ENDROOT
BRANCH   1  17
ATOM     14  C   UNL     1       6.683   3.698  12.362  0.00  0.00    +0.000 A 
ATOM     15  C   UNL     1       7.518   4.449  13.190  0.00  0.00    +0.000 A 
ATOM     16  C   UNL     1       7.075   4.943  14.433  0.00  0.00    +0.000 A 
ATOM     17  C   UNL     1       5.762   4.716  14.890  0.00  0.00    +0.000 A 
ATOM     18  C   UNL     1       4.949   3.918  14.051  0.00  0.00    +0.000 A 
ATOM     19  C   UNL     1       5.392   3.428  12.798  0.00  0.00    +0.000 A 
BRANCH  14  21
ATOM     20  C   UNL     1       7.447   1.973  10.893  0.00  0.00    +0.000 C 
ATOM     21  O   UNL     1       7.223   3.355  11.152  0.00  0.00    +0.000 OA
ENDBRANCH  14  21
ENDBRANCH   1  17
BRANCH   3  22
ATOM     22  N   UNL     1       6.167   5.241  19.699  0.00  0.00    +0.000 N 
ATOM     23  H   UNL     1       7.162   5.294  19.916  0.00  0.00    +0.000 HD
ATOM     24  H   UNL     1       5.717   6.078  20.073  0.00  0.00    +0.000 HD
ENDBRANCH   3  22
TORSDOF 3
ENDMDL
MODEL 7
REMARK VINA RESULT:      -7.0      3.206      7.384
REMARK  Name = 
REMARK  4 active torsions:
REMARK  status: ('A' for Active; 'I' for Inactive)
REMARK    1  A    between atoms: C_1  and  O_2
REMARK    2  A    between atoms: O_2  and  C_3
REMARK    3  A    between atoms: C_6  and  C_7
REMARK    4  A    between atoms: C_9  and  N_10
REMARK                            x       y       z     vdW  Elec       q    Type
REMARK                         _______ _______ _______ _____ _____    ______ ____
ROOT
ATOM      1  C   UNL     1       5.122   4.956  16.902  0.00  0.00    +0.000 A 
ATOM      2  S   UNL     1       6.140   4.750  18.298  0.00  0.00    +0.000 S 
ATOM      3  C   UNL     1       4.998   3.554  18.864  0.00  0.00    +0.000 A 
ATOM      4  C   UNL     1       4.004   3.359  17.878  0.00  0.00    +0.000 A 
ATOM      5  C   UNL     1       3.827   4.714  17.365  0.00  0.00    +0.000 A 
ATOM      6  C   UNL     1       2.801   5.193  18.338  0.00  0.00    +0.000 A 
ATOM      7  C   UNL     1       2.781   6.249  19.238  0.00  0.00    +0.000 A 
ATOM      8  C   UNL     1       1.931   6.156  20.383  0.00  0.00    +0.000 A 
ATOM      9  C   UNL     1       1.067   5.062  20.605  0.00  0.00    +0.000 A 
ATOM     10  C   UNL     1       1.079   3.988  19.724  0.00  0.00    +0.000 A 
ATOM     11  C   UNL     1       1.974   4.069  18.664  0.00  0.00    +0.000 A 
ATOM     12  C   UNL     1       2.670   2.851  18.170  0.00  0.00    +0.000 C 
ATOM     13  O   UNL     1       2.215   1.736  18.002  0.00  0.00    +0.000 OA
ENDROOT
BRANCH   1  17
ATOM     14  C   UNL     1       6.704   4.119  12.896  0.00  0.00    +0.000 A 
ATOM     15  C   UNL     1       7.464   4.777  13.864  0.00  0.00    +0.000 A 
ATOM     16  C   UNL     1       6.982   4.975  15.173  0.00  0.00    +0.000 A 
ATOM     17  C   UNL     1       5.701   4.533  15.560  0.00  0.00    +0.000 A 
ATOM     18  C   UNL     1       4.967   3.834  14.572  0.00  0.00    +0.000 A 
ATOM     19  C   UNL     1       5.451   3.643  13.254  0.00  0.00    +0.000 A 
BRANCH  14  21
ATOM     20  C   UNL     1       7.463   2.793  11.057  0.00  0.00    +0.000 C 
ATOM     21  O   UNL     1       7.270   4.073  11.650  0.00  0.00    +0.000 OA
ENDBRANCH  14  21
ENDBRANCH   1  17
BRANCH   3  22
ATOM     22  N   UNL     1       4.974   3.268  20.190  0.00  0.00    +0.000 N 
ATOM     23  H   UNL     1       5.879   3.379  20.648  0.00  0.00    +0.000 HD
ATOM     24  H   UNL     1       4.278   3.775  20.738  0.00  0.00    +0.000 HD
ENDBRANCH   3  22
TORSDOF 3
ENDMDL
MODEL 8
REMARK VINA RESULT:      -6.9      2.872      5.873
REMARK  Name = 
REMARK  4 active torsions:
REMARK  status: ('A' for Active; 'I' for Inactive)
REMARK    1  A    between atoms: C_1  and  O_2
REMARK    2  A    between atoms: O_2  and  C_3
REMARK    3  A    between atoms: C_6  and  C_7
REMARK    4  A    between atoms: C_9  and  N_10
REMARK                            x       y       z     vdW  Elec       q    Type
REMARK                         _______ _______ _______ _____ _____    ______ ____
ROOT
ATOM      1  C   UNL     1       5.497   4.928  18.381  0.00  0.00    +0.000 A 
ATOM      2  S   UNL     1       4.739   4.189  17.000  0.00  0.00    +0.000 S 
ATOM      3  C   UNL     1       3.218   4.815  17.591  0.00  0.00    +0.000 A 
ATOM      4  C   UNL     1       3.457   5.613  18.733  0.00  0.00    +0.000 A 
ATOM      5  C   UNL     1       4.531   4.875  19.389  0.00  0.00    +0.000 A 
ATOM      6  C   UNL     1       3.700   3.931  20.194  0.00  0.00    +0.000 A 
ATOM      7  C   UNL     1       3.626   2.547  20.237  0.00  0.00    +0.000 A 
ATOM      8  C   UNL     1       2.412   1.939  20.683  0.00  0.00    +0.000 A 
ATOM      9  C   UNL     1       1.306   2.689  21.138  0.00  0.00    +0.000 A 
ATOM     10  C   UNL     1       1.352   4.076  21.092  0.00  0.00    +0.000 A 
ATOM     11  C   UNL     1       2.514   4.639  20.578  0.00  0.00    +0.000 A 
ATOM     12  C   UNL     1       2.453   5.876  19.755  0.00  0.00    +0.000 C 
ATOM     13  O   UNL     1       1.775   6.871  19.934  0.00  0.00    +0.000 OA
ENDROOT
BRANCH   1  17
ATOM     14  C   UNL     1       8.125   8.412  17.929  0.00  0.00    +0.000 A 
ATOM     15  C   UNL     1       8.428   7.371  18.808  0.00  0.00    +0.000 A 
ATOM     16  C   UNL     1       7.622   6.218  18.894  0.00  0.00    +0.000 A 
ATOM     17  C   UNL     1       6.462   6.071  18.107  0.00  0.00    +0.000 A 
ATOM     18  C   UNL     1       6.200   7.121  17.196  0.00  0.00    +0.000 A 
ATOM     19  C   UNL     1       7.007   8.283  17.117  0.00  0.00    +0.000 A 
BRANCH  14  21
ATOM     20  C   UNL     1       9.242  10.012  19.310  0.00  0.00    +0.000 C 
ATOM     21  O   UNL     1       8.951   9.499  18.014  0.00  0.00    +0.000 OA
ENDBRANCH  14  21
ENDBRANCH   1  17
BRANCH   3  22
ATOM     22  N   UNL     1       2.073   4.219  17.172  0.00  0.00    +0.000 N 
ATOM     23  H   UNL     1       1.231   4.609  17.596  0.00  0.00    +0.000 HD
ATOM     24  H   UNL     1       1.934   4.192  16.161  0.00  0.00    +0.000 HD
ENDBRANCH   3  22
TORSDOF 3
ENDMDL
MODEL 9
REMARK VINA RESULT:      -6.7      3.663      6.913
REMARK  Name = 
REMARK  4 active torsions:
REMARK  status: ('A' for Active; 'I' for Inactive)
REMARK    1  A    between atoms: C_1  and  O_2
REMARK    2  A    between atoms: O_2  and  C_3
REMARK    3  A    between atoms: C_6  and  C_7
REMARK    4  A    between atoms: C_9  and  N_10
REMARK                            x       y       z     vdW  Elec       q    Type
REMARK                         _______ _______ _______ _____ _____    ______ ____
ROOT
ATOM      1  C   UNL     1       4.071   4.768  16.736  0.00  0.00    +0.000 A 
ATOM      2  S   UNL     1       3.751   6.232  17.622  0.00  0.00    +0.000 S 
ATOM      3  C   UNL     1       4.065   5.328  19.085  0.00  0.00    +0.000 A 
ATOM      4  C   UNL     1       4.483   4.022  18.744  0.00  0.00    +0.000 A 
ATOM      5  C   UNL     1       3.647   3.740  17.581  0.00  0.00    +0.000 A 
ATOM      6  C   UNL     1       2.450   3.197  18.288  0.00  0.00    +0.000 A 
ATOM      7  C   UNL     1       1.119   3.585  18.315  0.00  0.00    +0.000 A 
ATOM      8  C   UNL     1       0.327   3.238  19.453  0.00  0.00    +0.000 A 
ATOM      9  C   UNL     1       0.827   2.465  20.523  0.00  0.00    +0.000 A 
ATOM     10  C   UNL     1       2.160   2.075  20.524  0.00  0.00    +0.000 A 
ATOM     11  C   UNL     1       2.927   2.496  19.444  0.00  0.00    +0.000 A 
ATOM     12  C   UNL     1       4.352   2.877  19.634  0.00  0.00    +0.000 C 
ATOM     13  O   UNL     1       5.196   2.329  20.317  0.00  0.00    +0.000 OA
ENDROOT
BRANCH   1  17
ATOM     14  C   UNL     1       7.505   5.121  14.027  0.00  0.00    +0.000 A 
ATOM     15  C   UNL     1       7.504   5.707  15.294  0.00  0.00    +0.000 A 
ATOM     16  C   UNL     1       6.431   5.527  16.191  0.00  0.00    +0.000 A 
ATOM     17  C   UNL     1       5.302   4.760  15.842  0.00  0.00    +0.000 A 
ATOM     18  C   UNL     1       5.346   4.144  14.569  0.00  0.00    +0.000 A 
ATOM     19  C   UNL     1       6.420   4.332  13.666  0.00  0.00    +0.000 A 
BRANCH  14  21
ATOM     20  C   UNL     1       8.307   6.089  11.994  0.00  0.00    +0.000 C 
ATOM     21  O   UNL     1       8.573   5.450  13.238  0.00  0.00    +0.000 OA
ENDBRANCH  14  21
ENDBRANCH   1  17
BRANCH   3  22
ATOM     22  N   UNL     1       3.557   5.801  20.251  0.00  0.00    +0.000 N 
ATOM     23  H   UNL     1       4.220   5.773  21.026  0.00  0.00    +0.000 HD
ATOM     24  H   UNL     1       3.157   6.739  20.210  0.00  0.00    +0.000 HD
ENDBRANCH   3  22
TORSDOF 3
ENDMDL
