MODEL 1
REMARK VINA RESULT:      -6.7      0.000      0.000
REMARK  Name = 
REMARK  1 active torsions:
REMARK  status: ('A' for Active; 'I' for Inactive)
REMARK    1  A    between atoms: C_5  and  C_7
REMARK                            x       y       z     vdW  Elec       q    Type
REMARK                         _______ _______ _______ _____ _____    ______ ____
ROOT
ATOM      1  O   UNL     1       7.604   6.556  18.332  0.00  0.00    +0.000 OA
ATOM      2  C   UNL     1       7.185   5.833  17.432  0.00  0.00    +0.000 C 
ATOM      3  C   UNL     1       6.459   4.521  17.689  0.00  0.00    +0.000 C 
ATOM      4  N   UNL     1       5.456   4.262  16.648  0.00  0.00    +0.000 N 
ATOM      5  C   UNL     1       4.083   4.023  16.871  0.00  0.00    +0.000 C 
ATOM      6  O   UNL     1       3.322   3.760  15.936  0.00  0.00    +0.000 OA
ATOM      7  C   UNL     1       6.016   4.314  15.326  0.00  0.00    +0.000 A 
ATOM      8  C   UNL     1       5.572   3.507  14.273  0.00  0.00    +0.000 A 
ATOM      9  C   UNL     1       6.176   3.599  13.016  0.00  0.00    +0.000 A 
ATOM     10  C   UNL     1       7.201   4.518  12.786  0.00  0.00    +0.000 A 
ATOM     11  C   UNL     1       7.639   5.344  13.820  0.00  0.00    +0.000 A 
ATOM     12  C   UNL     1       7.070   5.222  15.087  0.00  0.00    +0.000 A 
ATOM     13  N   UNL     1       7.528   6.050  16.121  0.00  0.00    +0.000 N 
ATOM     14  H   UNL     1       8.154   6.822  15.928  0.00  0.00    +0.000 HD
ENDROOT
BRANCH   5  15
ATOM     15  C   UNL     1       3.544   4.125  18.228  0.00  0.00    +0.000 A 
ATOM     16  C   UNL     1       3.334   5.209  19.068  0.00  0.00    +0.000 A 
ATOM     17  C   UNL     1       2.825   4.835  20.351  0.00  0.00    +0.000 A 
ATOM     18  C   UNL     1       2.528   3.500  20.390  0.00  0.00    +0.000 A 
ATOM     19 BR   UNL     1       1.745   2.660  21.870  0.00  0.00    +0.000 Br
ATOM     20  S   UNL     1       2.922   2.685  18.961  0.00  0.00    +0.000 S 
ENDBRANCH   5  15
TORSDOF 1
ENDMDL
MODEL 2
REMARK VINA RESULT:      -6.4      3.331      6.478
REMARK  Name = 
REMARK  1 active torsions:
REMARK  status: ('A' for Active; 'I' for Inactive)
REMARK    1  A    between atoms: C_5  and  C_7
REMARK                            x       y       z     vdW  Elec       q    Type
REMARK                         _______ _______ _______ _____ _____    ______ ____
ROOT
ATOM      1  O   UNL     1       3.718   1.406  17.896  0.00  0.00    +0.000 OA
ATOM      2  C   UNL     1       3.596   2.562  18.291  0.00  0.00    +0.000 C 
ATOM      3  C   UNL     1       4.727   3.578  18.253  0.00  0.00    +0.000 C 
ATOM      4  N   UNL     1       4.210   4.934  18.031  0.00  0.00    +0.000 N 
ATOM      5  C   UNL     1       4.602   5.804  16.991  0.00  0.00    +0.000 C 
ATOM      6  O   UNL     1       4.152   6.951  16.915  0.00  0.00    +0.000 OA
ATOM      7  C   UNL     1       3.199   5.296  18.986  0.00  0.00    +0.000 A 
ATOM      8  C   UNL     1       3.027   6.599  19.464  0.00  0.00    +0.000 A 
ATOM      9  C   UNL     1       2.032   6.874  20.408  0.00  0.00    +0.000 A 
ATOM     10  C   UNL     1       1.179   5.865  20.854  0.00  0.00    +0.000 A 
ATOM     11  C   UNL     1       1.324   4.566  20.370  0.00  0.00    +0.000 A 
ATOM     12  C   UNL     1       2.345   4.279  19.464  0.00  0.00    +0.000 A 
ATOM     13  N   UNL     1       2.489   2.966  18.995  0.00  0.00    +0.000 N 
ATOM     14  H   UNL     1       1.783   2.266  19.188  0.00  0.00    +0.000 HD
ENDROOT
BRANCH   5  15
ATOM     15  C   UNL     1       5.531   5.328  15.964  0.00  0.00    +0.000 A 
ATOM     16  C   UNL     1       6.917   5.328  15.890  0.00  0.00    +0.000 A 
ATOM     17  C   UNL     1       7.413   4.799  14.658  0.00  0.00    +0.000 A 
ATOM     18  C   UNL     1       6.396   4.284  13.901  0.00  0.00    +0.000 A 
ATOM     19 BR   UNL     1       6.666   3.413  12.264  0.00  0.00    +0.000 Br
ATOM     20  S   UNL     1       4.870   4.495  14.599  0.00  0.00    +0.000 S 
ENDBRANCH   5  15
TORSDOF 1
ENDMDL
MODEL 3
REMARK VINA RESULT:      -6.0      3.219      4.305
REMARK  Name = 
REMARK  1 active torsions:
REMARK  status: ('A' for Active; 'I' for Inactive)
REMARK    1  A    between atoms: C_5  and  C_7
REMARK                            x       y       z     vdW  Elec       q    Type
REMARK                         _______ _______ _______ _____ _____    ______ ____
ROOT
ATOM      1  O   UNL     1       2.525   2.767  19.273  0.00  0.00    +0.000 OA
ATOM      2  C   UNL     1       3.072   3.455  18.415  0.00  0.00    +0.000 C 
ATOM      3  C   UNL     1       2.450   4.719  17.842  0.00  0.00    +0.000 C 
ATOM      4  N   UNL     1       3.483   5.700  17.487  0.00  0.00    +0.000 N 
ATOM      5  C   UNL     1       3.552   7.029  17.958  0.00  0.00    +0.000 C 
ATOM      6  O   UNL     1       4.429   7.801  17.562  0.00  0.00    +0.000 OA
ATOM      7  C   UNL     1       4.479   5.150  16.611  0.00  0.00    +0.000 A 
ATOM      8  C   UNL     1       5.125   5.896  15.619  0.00  0.00    +0.000 A 
ATOM      9  C   UNL     1       6.073   5.289  14.790  0.00  0.00    +0.000 A 
ATOM     10  C   UNL     1       6.413   3.948  14.964  0.00  0.00    +0.000 A 
ATOM     11  C   UNL     1       5.795   3.197  15.963  0.00  0.00    +0.000 A 
ATOM     12  C   UNL     1       4.816   3.788  16.761  0.00  0.00    +0.000 A 
ATOM     13  N   UNL     1       4.192   3.018  17.753  0.00  0.00    +0.000 N 
ATOM     14  H   UNL     1       4.541   2.098  17.991  0.00  0.00    +0.000 HD
ENDROOT
BRANCH   5  15
ATOM     15  C   UNL     1       2.589   7.490  18.961  0.00  0.00    +0.000 A 
ATOM     16  C   UNL     1       2.251   7.008  20.218  0.00  0.00    +0.000 A 
ATOM     17  C   UNL     1       1.202   7.754  20.841  0.00  0.00    +0.000 A 
ATOM     18  C   UNL     1       0.881   8.860  20.101  0.00  0.00    +0.000 A 
ATOM     19 BR   UNL     1      -0.379  10.135  20.646  0.00  0.00    +0.000 Br
ATOM     20  S   UNL     1       1.748   8.972  18.654  0.00  0.00    +0.000 S 
ENDBRANCH   5  15
TORSDOF 1
ENDMDL
MODEL 4
REMARK VINA RESULT:      -6.0      7.991     10.640
REMARK  Name = 
REMARK  1 active torsions:
REMARK  status: ('A' for Active; 'I' for Inactive)
REMARK    1  A    between atoms: C_5  and  C_7
REMARK                            x       y       z     vdW  Elec       q    Type
REMARK                         _______ _______ _______ _____ _____    ______ ____
ROOT
ATOM      1  O   UNL     1      -2.212  11.496  16.985  0.00  0.00    +0.000 OA
ATOM      2  C   UNL     1      -2.050  11.531  18.202  0.00  0.00    +0.000 C 
ATOM      3  C   UNL     1      -1.575  10.335  19.012  0.00  0.00    +0.000 C 
ATOM      4  N   UNL     1      -0.769  10.765  20.162  0.00  0.00    +0.000 N 
ATOM      5  C   UNL     1       0.546  10.341  20.451  0.00  0.00    +0.000 C 
ATOM      6  O   UNL     1       1.126  10.714  21.473  0.00  0.00    +0.000 OA
ATOM      7  C   UNL     1      -1.456  11.726  20.980  0.00  0.00    +0.000 A 
ATOM      8  C   UNL     1      -1.305  11.798  22.369  0.00  0.00    +0.000 A 
ATOM      9  C   UNL     1      -2.020  12.749  23.104  0.00  0.00    +0.000 A 
ATOM     10  C   UNL     1      -2.861  13.657  22.461  0.00  0.00    +0.000 A 
ATOM     11  C   UNL     1      -3.006  13.611  21.075  0.00  0.00    +0.000 A 
ATOM     12  C   UNL     1      -2.330  12.634  20.345  0.00  0.00    +0.000 A 
ATOM     13  N   UNL     1      -2.493  12.591  18.953  0.00  0.00    +0.000 N 
ATOM     14  H   UNL     1      -2.971  13.337  18.464  0.00  0.00    +0.000 HD
ENDROOT
BRANCH   5  15
ATOM     15  C   UNL     1       1.247   9.471  19.504  0.00  0.00    +0.000 A 
ATOM     16  C   UNL     1       1.682   9.672  18.201  0.00  0.00    +0.000 A 
ATOM     17  C   UNL     1       2.288   8.511  17.627  0.00  0.00    +0.000 A 
ATOM     18  C   UNL     1       2.424   7.518  18.559  0.00  0.00    +0.000 A 
ATOM     19 BR   UNL     1       3.266   5.882  18.206  0.00  0.00    +0.000 Br
ATOM     20  S   UNL     1       1.771   7.920  20.066  0.00  0.00    +0.000 S 
ENDBRANCH   5  15
TORSDOF 1
ENDMDL
MODEL 5
REMARK VINA RESULT:      -5.9      3.447      6.411
REMARK  Name = 
REMARK  1 active torsions:
REMARK  status: ('A' for Active; 'I' for Inactive)
REMARK    1  A    between atoms: C_5  and  C_7
REMARK                            x       y       z     vdW  Elec       q    Type
REMARK                         _______ _______ _______ _____ _____    ______ ____
ROOT
ATOM      1  O   UNL     1       2.751   7.894  18.001  0.00  0.00    +0.000 OA
ATOM      2  C   UNL     1       2.831   6.741  18.415  0.00  0.00    +0.000 C 
ATOM      3  C   UNL     1       3.272   5.574  17.545  0.00  0.00    +0.000 C 
ATOM      4  N   UNL     1       3.993   4.569  18.338  0.00  0.00    +0.000 N 
ATOM      5  C   UNL     1       5.293   4.088  18.070  0.00  0.00    +0.000 C 
ATOM      6  O   UNL     1       5.799   3.201  18.762  0.00  0.00    +0.000 OA
ATOM      7  C   UNL     1       3.238   4.131  19.479  0.00  0.00    +0.000 A 
ATOM      8  C   UNL     1       3.296   2.827  19.982  0.00  0.00    +0.000 A 
ATOM      9  C   UNL     1       2.519   2.465  21.087  0.00  0.00    +0.000 A 
ATOM     10  C   UNL     1       1.708   3.406  21.721  0.00  0.00    +0.000 A 
ATOM     11  C   UNL     1       1.656   4.715  21.245  0.00  0.00    +0.000 A 
ATOM     12  C   UNL     1       2.394   5.066  20.116  0.00  0.00    +0.000 A 
ATOM     13  N   UNL     1       2.323   6.382  19.639  0.00  0.00    +0.000 N 
ATOM     14  H   UNL     1       1.866   7.106  20.180  0.00  0.00    +0.000 HD
ENDROOT
BRANCH   5  15
ATOM     15  C   UNL     1       6.069   4.677  16.977  0.00  0.00    +0.000 A 
ATOM     16  C   UNL     1       6.930   5.764  16.926  0.00  0.00    +0.000 A 
ATOM     17  C   UNL     1       7.439   6.016  15.614  0.00  0.00    +0.000 A 
ATOM     18  C   UNL     1       7.064   5.026  14.745  0.00  0.00    +0.000 A 
ATOM     19 BR   UNL     1       7.625   4.956  12.959  0.00  0.00    +0.000 Br
ATOM     20  S   UNL     1       6.059   3.863  15.449  0.00  0.00    +0.000 S 
ENDBRANCH   5  15
TORSDOF 1
ENDMDL
MODEL 6
REMARK VINA RESULT:      -5.9      1.094      1.234
REMARK  Name = 
REMARK  1 active torsions:
REMARK  status: ('A' for Active; 'I' for Inactive)
REMARK    1  A    between atoms: C_5  and  C_7
REMARK                            x       y       z     vdW  Elec       q    Type
REMARK                         _______ _______ _______ _____ _____    ______ ____
ROOT
ATOM      1  O   UNL     1       7.360   5.643  19.898  0.00  0.00    +0.000 OA
ATOM      2  C   UNL     1       6.906   5.201  18.846  0.00  0.00    +0.000 C 
ATOM      3  C   UNL     1       5.925   4.039  18.787  0.00  0.00    +0.000 C 
ATOM      4  N   UNL     1       5.002   4.187  17.655  0.00  0.00    +0.000 N 
ATOM      5  C   UNL     1       3.593   4.196  17.738  0.00  0.00    +0.000 C 
ATOM      6  O   UNL     1       2.895   4.271  16.723  0.00  0.00    +0.000 OA
ATOM      7  C   UNL     1       5.692   4.369  16.408  0.00  0.00    +0.000 A 
ATOM      8  C   UNL     1       5.214   3.879  15.188  0.00  0.00    +0.000 A 
ATOM      9  C   UNL     1       5.949   4.078  14.015  0.00  0.00    +0.000 A 
ATOM     10  C   UNL     1       7.145   4.795  14.041  0.00  0.00    +0.000 A 
ATOM     11  C   UNL     1       7.624   5.308  15.246  0.00  0.00    +0.000 A 
ATOM     12  C   UNL     1       6.916   5.072  16.423  0.00  0.00    +0.000 A 
ATOM     13  N   UNL     1       7.415   5.582  17.630  0.00  0.00    +0.000 N 
ATOM     14  H   UNL     1       8.190   6.233  17.637  0.00  0.00    +0.000 HD
ENDROOT
BRANCH   5  15
ATOM     15  C   UNL     1       2.947   4.151  19.052  0.00  0.00    +0.000 A 
ATOM     16  C   UNL     1       2.510   5.151  19.909  0.00  0.00    +0.000 A 
ATOM     17  C   UNL     1       1.974   4.645  21.134  0.00  0.00    +0.000 A 
ATOM     18  C   UNL     1       1.889   3.279  21.104  0.00  0.00    +0.000 A 
ATOM     19 BR   UNL     1       1.143   2.262  22.490  0.00  0.00    +0.000 Br
ATOM     20  S   UNL     1       2.508   2.601  19.685  0.00  0.00    +0.000 S 
ENDBRANCH   5  15
TORSDOF 1
ENDMDL
MODEL 7
REMARK VINA RESULT:      -5.9      3.421      6.698
REMARK  Name = 
REMARK  1 active torsions:
REMARK  status: ('A' for Active; 'I' for Inactive)
REMARK    1  A    between atoms: C_5  and  C_7
REMARK                            x       y       z     vdW  Elec       q    Type
REMARK                         _______ _______ _______ _____ _____    ______ ____
ROOT
ATOM      1  O   UNL     1       0.636   4.702  16.729  0.00  0.00    +0.000 OA
ATOM      2  C   UNL     1       1.366   4.154  17.551  0.00  0.00    +0.000 C 
ATOM      3  C   UNL     1       2.661   3.451  17.175  0.00  0.00    +0.000 C 
ATOM      4  N   UNL     1       3.655   3.568  18.250  0.00  0.00    +0.000 N 
ATOM      5  C   UNL     1       4.957   4.096  18.113  0.00  0.00    +0.000 C 
ATOM      6  O   UNL     1       5.744   4.104  19.063  0.00  0.00    +0.000 OA
ATOM      7  C   UNL     1       3.147   3.112  19.514  0.00  0.00    +0.000 A 
ATOM      8  C   UNL     1       3.941   2.480  20.477  0.00  0.00    +0.000 A 
ATOM      9  C   UNL     1       3.374   2.046  21.679  0.00  0.00    +0.000 A 
ATOM     10  C   UNL     1       2.023   2.269  21.948  0.00  0.00    +0.000 A 
ATOM     11  C   UNL     1       1.224   2.917  21.007  0.00  0.00    +0.000 A 
ATOM     12  C   UNL     1       1.776   3.309  19.789  0.00  0.00    +0.000 A 
ATOM     13  N   UNL     1       0.959   3.949  18.846  0.00  0.00    +0.000 N 
ATOM     14  H   UNL     1       0.026   4.255  19.092  0.00  0.00    +0.000 HD
ENDROOT
BRANCH   5  15
ATOM     15  C   UNL     1       5.369   4.678  16.834  0.00  0.00    +0.000 A 
ATOM     16  C   UNL     1       5.287   5.968  16.328  0.00  0.00    +0.000 A 
ATOM     17  C   UNL     1       5.775   6.077  14.989  0.00  0.00    +0.000 A 
ATOM     18  C   UNL     1       6.344   4.902  14.577  0.00  0.00    +0.000 A 
ATOM     19 BR   UNL     1       7.183   4.688  12.916  0.00  0.00    +0.000 Br
ATOM     20  S   UNL     1       6.229   3.665  15.725  0.00  0.00    +0.000 S 
ENDBRANCH   5  15
TORSDOF 1
ENDMDL
MODEL 8
REMARK VINA RESULT:      -5.9      8.133      9.705
REMARK  Name = 
REMARK  1 active torsions:
REMARK  status: ('A' for Active; 'I' for Inactive)
REMARK    1  A    between atoms: C_5  and  C_7
REMARK                            x       y       z     vdW  Elec       q    Type
REMARK                         _______ _______ _______ _____ _____    ______ ____
ROOT
ATOM      1  O   UNL     1       0.408   9.586  23.679  0.00  0.00    +0.000 OA
ATOM      2  C   UNL     1       0.580   9.536  22.464  0.00  0.00    +0.000 C 
ATOM      3  C   UNL     1      -0.229  10.361  21.475  0.00  0.00    +0.000 C 
ATOM      4  N   UNL     1       0.580  10.722  20.304  0.00  0.00    +0.000 N 
ATOM      5  C   UNL     1       0.805  12.033  19.831  0.00  0.00    +0.000 C 
ATOM      6  O   UNL     1       1.457  12.237  18.804  0.00  0.00    +0.000 OA
ATOM      7  C   UNL     1       1.178   9.574  19.680  0.00  0.00    +0.000 A 
ATOM      8  C   UNL     1       1.390   9.474  18.301  0.00  0.00    +0.000 A 
ATOM      9  C   UNL     1       1.962   8.318  17.761  0.00  0.00    +0.000 A 
ATOM     10  C   UNL     1       2.360   7.270  18.590  0.00  0.00    +0.000 A 
ATOM     11  C   UNL     1       2.176   7.364  19.969  0.00  0.00    +0.000 A 
ATOM     12  C   UNL     1       1.564   8.496  20.505  0.00  0.00    +0.000 A 
ATOM     13  N   UNL     1       1.372   8.573  21.892  0.00  0.00    +0.000 N 
ATOM     14  H   UNL     1       1.797   7.894  22.512  0.00  0.00    +0.000 HD
ENDROOT
BRANCH   5  15
ATOM     15  C   UNL     1       0.287  13.172  20.592  0.00  0.00    +0.000 A 
ATOM     16  C   UNL     1       0.854  13.969  21.577  0.00  0.00    +0.000 A 
ATOM     17  C   UNL     1      -0.047  14.955  22.088  0.00  0.00    +0.000 A 
ATOM     18  C   UNL     1      -1.214  14.968  21.374  0.00  0.00    +0.000 A 
ATOM     19 BR   UNL     1      -2.598  16.193  21.683  0.00  0.00    +0.000 Br
ATOM     20  S   UNL     1      -1.278  13.781  20.172  0.00  0.00    +0.000 S 
ENDBRANCH   5  15
TORSDOF 1
ENDMDL
MODEL 9
REMARK VINA RESULT:      -5.8      5.556      8.215
REMARK  Name = 
REMARK  1 active torsions:
REMARK  status: ('A' for Active; 'I' for Inactive)
REMARK    1  A    between atoms: C_5  and  C_7
REMARK                            x       y       z     vdW  Elec       q    Type
REMARK                         _______ _______ _______ _____ _____    ______ ____
ROOT
ATOM      1  O   UNL     1       2.418  11.595  17.744  0.00  0.00    +0.000 OA
ATOM      2  C   UNL     1       1.813  10.948  18.595  0.00  0.00    +0.000 C 
ATOM      3  C   UNL     1       1.326   9.525  18.368  0.00  0.00    +0.000 C 
ATOM      4  N   UNL     1       1.356   8.753  19.617  0.00  0.00    +0.000 N 
ATOM      5  C   UNL     1       2.033   7.530  19.813  0.00  0.00    +0.000 C 
ATOM      6  O   UNL     1       1.956   6.924  20.884  0.00  0.00    +0.000 OA
ATOM      7  C   UNL     1       0.634   9.402  20.676  0.00  0.00    +0.000 A 
ATOM      8  C   UNL     1      -0.070   8.706  21.664  0.00  0.00    +0.000 A 
ATOM      9  C   UNL     1      -0.765   9.405  22.655  0.00  0.00    +0.000 A 
ATOM     10  C   UNL     1      -0.735  10.799  22.694  0.00  0.00    +0.000 A 
ATOM     11  C   UNL     1      -0.019  11.507  21.729  0.00  0.00    +0.000 A 
ATOM     12  C   UNL     1       0.636  10.813  20.713  0.00  0.00    +0.000 A 
ATOM     13  N   UNL     1       1.342  11.537  19.741  0.00  0.00    +0.000 N 
ATOM     14  H   UNL     1       1.501  12.531  19.850  0.00  0.00    +0.000 HD
ENDROOT
BRANCH   5  15
ATOM     15  C   UNL     1       2.870   6.989  18.739  0.00  0.00    +0.000 A 
ATOM     16  C   UNL     1       3.593   7.600  17.725  0.00  0.00    +0.000 A 
ATOM     17  C   UNL     1       4.236   6.666  16.854  0.00  0.00    +0.000 A 
ATOM     18  C   UNL     1       4.100   5.387  17.321  0.00  0.00    +0.000 A 
ATOM     19 BR   UNL     1       4.894   3.900  16.503  0.00  0.00    +0.000 Br
ATOM     20  S   UNL     1       3.158   5.282  18.722  0.00  0.00    +0.000 S 
ENDBRANCH   5  15
TORSDOF 1
ENDMDL
