MODEL 1
REMARK VINA RESULT:      -8.4      0.000      0.000
REMARK  Name = 
REMARK  10 active torsions:
REMARK  status: ('A' for Active; 'I' for Inactive)
REMARK    1  A    between atoms: C_2  and  OXT_3
REMARK    2  A    between atoms: C_2  and  CA_4
REMARK    3  A    between atoms: C_9  and  CA_11
REMARK    4  A    between atoms: CA_11  and  CB_12
REMARK    5  A    between atoms: CA_11  and  N_19
REMARK    6  A    between atoms: CB_12  and  CG_13
REMARK    7  A    between atoms: C_20  and  C_22
REMARK    8  A    between atoms: C_22  and  S_23
REMARK    9  A    between atoms: C_22  and  C_24
REMARK   10  A    between atoms: C_24  and  C_25
REMARK                            x       y       z     vdW  Elec       q    Type
REMARK                         _______ _______ _______ _____ _____    ______ ____
ROOT
ATOM      1  CA  PHE A   1       3.563   6.404  18.536  0.00  0.00    +0.000 C 
ENDROOT
BRANCH   1   7
ATOM      2  CA  PHE A   1       2.170   2.927  19.512  0.00  0.00    +0.000 C 
ATOM      3  CB  PHE A   1       1.561   2.705  20.905  0.00  0.00    +0.000 C 
ATOM      4  CG  PHE A   1       2.199   3.762  21.783  0.00  0.00    +0.000 C 
ATOM      5  CD  PHE A   1       2.536   4.899  20.839  0.00  0.00    +0.000 C 
ATOM      6  N   PHE A   1       2.343   4.397  19.481  0.00  0.00    +0.000 N 
ATOM      7  C   PHE A   1       2.827   5.052  18.360  0.00  0.00    +0.000 C 
ATOM      8  O   PHE A   1       2.692   4.526  17.252  0.00  0.00    +0.000 OA
BRANCH   2  10
ATOM      9  O   PHE A   1       0.099   1.930  18.724  0.00  0.00    +0.000 OA
ATOM     10  C   PHE A   1       1.293   2.128  18.528  0.00  0.00    +0.000 C 
BRANCH  10  11
ATOM     11  OXT PHE A   1       1.913   1.643  17.436  0.00  0.00    +0.000 OA
ATOM     12  HXT PHE A   1       2.644   1.025  17.679  0.00  0.00    +0.000 HD
ENDBRANCH  10  11
ENDBRANCH   2  10
ENDBRANCH   1   7
BRANCH   1  13
ATOM     13  N   PHE A   1       4.971   6.176  18.237  0.00  0.00    +0.000 N 
ATOM     14  C   UNK A   0       5.467   6.406  16.977  0.00  0.00    +0.000 C 
ATOM     15  O   UNK A   0       4.738   6.779  16.059  0.00  0.00    +0.000 OA
ATOM     16  H   PHE A   1       5.557   5.751  18.954  0.00  0.00    +0.000 HD
BRANCH  14  17
ATOM     17  C   UNK A   0       6.978   6.242  16.814  0.00  0.00    +0.000 C 
BRANCH  17  18
ATOM     18  S   UNK A   0       7.792   6.582  18.422  0.00  0.00    +0.000 S 
ATOM     19  H   UNK A   0       7.150   7.731  18.675  0.00  0.00    +0.000 HD
ENDBRANCH  17  18
BRANCH  17  20
ATOM     20  C   UNK A   0       7.261   4.823  16.286  0.00  0.00    +0.000 C 
BRANCH  20  21
ATOM     21  C   UNK A   0       7.065   4.615  14.807  0.00  0.00    +0.000 A 
ATOM     22  C   UNK A   0       7.884   5.297  13.899  0.00  0.00    +0.000 A 
ATOM     23  C   UNK A   0       7.726   5.112  12.525  0.00  0.00    +0.000 A 
ATOM     24  C   UNK A   0       6.750   4.238  12.051  0.00  0.00    +0.000 A 
ATOM     25  C   UNK A   0       5.939   3.545  12.948  0.00  0.00    +0.000 A 
ATOM     26  C   UNK A   0       6.098   3.727  14.321  0.00  0.00    +0.000 A 
ENDBRANCH  20  21
ENDBRANCH  17  20
ENDBRANCH  14  17
ENDBRANCH   1  13
BRANCH   1  27
ATOM     27  CB  PHE A   1       2.960   7.617  17.821  0.00  0.00    +0.000 C 
BRANCH  27  28
ATOM     28  CG  PHE A   1       1.957   8.433  18.592  0.00  0.00    +0.000 A 
ATOM     29  CD1 PHE A   1       1.174   9.392  17.941  0.00  0.00    +0.000 A 
ATOM     30  CE1 PHE A   1       0.234  10.138  18.652  0.00  0.00    +0.000 A 
ATOM     31  CZ  PHE A   1       0.066   9.930  20.020  0.00  0.00    +0.000 A 
ATOM     32  CE2 PHE A   1       0.832   8.971  20.677  0.00  0.00    +0.000 A 
ATOM     33  CD2 PHE A   1       1.771   8.222  19.967  0.00  0.00    +0.000 A 
ENDBRANCH  27  28
ENDBRANCH   1  27
TORSDOF 10
ENDMDL
MODEL 2
REMARK VINA RESULT:      -8.0      0.159      1.257
REMARK  Name = 
REMARK  10 active torsions:
REMARK  status: ('A' for Active; 'I' for Inactive)
REMARK    1  A    between atoms: C_2  and  OXT_3
REMARK    2  A    between atoms: C_2  and  CA_4
REMARK    3  A    between atoms: C_9  and  CA_11
REMARK    4  A    between atoms: CA_11  and  CB_12
REMARK    5  A    between atoms: CA_11  and  N_19
REMARK    6  A    between atoms: CB_12  and  CG_13
REMARK    7  A    between atoms: C_20  and  C_22
REMARK    8  A    between atoms: C_22  and  S_23
REMARK    9  A    between atoms: C_22  and  C_24
REMARK   10  A    between atoms: C_24  and  C_25
REMARK                            x       y       z     vdW  Elec       q    Type
REMARK                         _______ _______ _______ _____ _____    ______ ____
ROOT
ATOM      1  CA  PHE A   1       3.537   6.497  18.587  0.00  0.00    +0.000 C 
ENDROOT
BRANCH   1   7
ATOM      2  CA  PHE A   1       2.139   3.013  19.526  0.00  0.00    +0.000 C 
ATOM      3  CB  PHE A   1       1.534   2.776  20.919  0.00  0.00    +0.000 C 
ATOM      4  CG  PHE A   1       2.178   3.821  21.807  0.00  0.00    +0.000 C 
ATOM      5  CD  PHE A   1       2.516   4.968  20.875  0.00  0.00    +0.000 C 
ATOM      6  N   PHE A   1       2.315   4.483  19.512  0.00  0.00    +0.000 N 
ATOM      7  C   PHE A   1       2.798   5.150  18.397  0.00  0.00    +0.000 C 
ATOM      8  O   PHE A   1       2.656   4.638  17.284  0.00  0.00    +0.000 OA
BRANCH   2  10
ATOM      9  O   PHE A   1       0.037   2.358  18.497  0.00  0.00    +0.000 OA
ATOM     10  C   PHE A   1       1.255   2.228  18.537  0.00  0.00    +0.000 C 
BRANCH  10  11
ATOM     11  OXT PHE A   1       1.895   1.373  17.716  0.00  0.00    +0.000 OA
ATOM     12  HXT PHE A   1       2.007   1.755  16.812  0.00  0.00    +0.000 HD
ENDBRANCH  10  11
ENDBRANCH   2  10
ENDBRANCH   1   7
BRANCH   1  13
ATOM     13  N   PHE A   1       4.943   6.270  18.277  0.00  0.00    +0.000 N 
ATOM     14  C   UNK A   0       5.432   6.505  17.015  0.00  0.00    +0.000 C 
ATOM     15  O   UNK A   0       4.697   6.883  16.104  0.00  0.00    +0.000 OA
ATOM     16  H   PHE A   1       5.534   5.841  18.988  0.00  0.00    +0.000 HD
BRANCH  14  17
ATOM     17  C   UNK A   0       6.941   6.341  16.841  0.00  0.00    +0.000 C 
BRANCH  17  18
ATOM     18  S   UNK A   0       7.771   6.742  18.427  0.00  0.00    +0.000 S 
ATOM     19  H   UNK A   0       7.279   7.983  18.544  0.00  0.00    +0.000 HD
ENDBRANCH  17  18
BRANCH  17  20
ATOM     20  C   UNK A   0       7.224   4.905  16.363  0.00  0.00    +0.000 C 
BRANCH  20  21
ATOM     21  C   UNK A   0       7.087   4.660  14.883  0.00  0.00    +0.000 A 
ATOM     22  C   UNK A   0       6.091   3.793  14.416  0.00  0.00    +0.000 A 
ATOM     23  C   UNK A   0       5.941   3.559  13.048  0.00  0.00    +0.000 A 
ATOM     24  C   UNK A   0       6.782   4.196  12.138  0.00  0.00    +0.000 A 
ATOM     25  C   UNK A   0       7.767   5.071  12.594  0.00  0.00    +0.000 A 
ATOM     26  C   UNK A   0       7.917   5.307  13.960  0.00  0.00    +0.000 A 
ENDBRANCH  20  21
ENDBRANCH  17  20
ENDBRANCH  14  17
ENDBRANCH   1  13
BRANCH   1  27
ATOM     27  CB  PHE A   1       2.934   7.721  17.890  0.00  0.00    +0.000 C 
BRANCH  27  28
ATOM     28  CG  PHE A   1       1.861   8.469  18.636  0.00  0.00    +0.000 A 
ATOM     29  CD1 PHE A   1       1.652   8.234  19.999  0.00  0.00    +0.000 A 
ATOM     30  CE1 PHE A   1       0.669   8.940  20.694  0.00  0.00    +0.000 A 
ATOM     31  CZ  PHE A   1      -0.111   9.887  20.034  0.00  0.00    +0.000 A 
ATOM     32  CE2 PHE A   1       0.096  10.137  18.679  0.00  0.00    +0.000 A 
ATOM     33  CD2 PHE A   1       1.080   9.435  17.983  0.00  0.00    +0.000 A 
ENDBRANCH  27  28
ENDBRANCH   1  27
TORSDOF 10
ENDMDL
MODEL 3
REMARK VINA RESULT:      -7.9      2.634      7.605
REMARK  Name = 
REMARK  10 active torsions:
REMARK  status: ('A' for Active; 'I' for Inactive)
REMARK    1  A    between atoms: C_2  and  OXT_3
REMARK    2  A    between atoms: C_2  and  CA_4
REMARK    3  A    between atoms: C_9  and  CA_11
REMARK    4  A    between atoms: CA_11  and  CB_12
REMARK    5  A    between atoms: CA_11  and  N_19
REMARK    6  A    between atoms: CB_12  and  CG_13
REMARK    7  A    between atoms: C_20  and  C_22
REMARK    8  A    between atoms: C_22  and  S_23
REMARK    9  A    between atoms: C_22  and  C_24
REMARK   10  A    between atoms: C_24  and  C_25
REMARK                            x       y       z     vdW  Elec       q    Type
REMARK                         _______ _______ _______ _____ _____    ______ ____
ROOT
ATOM      1  CA  PHE A   1       3.283   6.636  18.166  0.00  0.00    +0.000 C 
ENDROOT
BRANCH   1   7
ATOM      2  CA  PHE A   1       2.137   3.454  20.047  0.00  0.00    +0.000 C 
ATOM      3  CB  PHE A   1       1.286   2.397  19.325  0.00  0.00    +0.000 C 
ATOM      4  CG  PHE A   1       0.596   3.150  18.207  0.00  0.00    +0.000 C 
ATOM      5  CD  PHE A   1       1.525   4.302  17.882  0.00  0.00    +0.000 C 
ATOM      6  N   PHE A   1       2.539   4.341  18.932  0.00  0.00    +0.000 N 
ATOM      7  C   PHE A   1       3.378   5.427  19.128  0.00  0.00    +0.000 C 
ATOM      8  O   PHE A   1       4.156   5.419  20.086  0.00  0.00    +0.000 OA
BRANCH   2  10
ATOM      9  O   PHE A   1       2.860   2.382  22.104  0.00  0.00    +0.000 OA
ATOM     10  C   PHE A   1       3.120   2.675  20.943  0.00  0.00    +0.000 C 
BRANCH  10  11
ATOM     11  OXT PHE A   1       4.297   2.337  20.382  0.00  0.00    +0.000 OA
ATOM     12  HXT PHE A   1       4.289   2.485  19.406  0.00  0.00    +0.000 HD
ENDBRANCH  10  11
ENDBRANCH   2  10
ENDBRANCH   1   7
BRANCH   1  13
ATOM     13  N   PHE A   1       2.473   7.654  18.823  0.00  0.00    +0.000 N 
ATOM     14  C   UNK A   0       2.087   8.787  18.149  0.00  0.00    +0.000 C 
ATOM     15  O   UNK A   0       2.435   8.992  16.987  0.00  0.00    +0.000 OA
ATOM     16  H   PHE A   1       2.282   7.555  19.819  0.00  0.00    +0.000 HD
BRANCH  14  17
ATOM     17  C   UNK A   0       1.146   9.726  18.904  0.00  0.00    +0.000 C 
BRANCH  17  18
ATOM     18  S   UNK A   0      -0.436   9.852  17.982  0.00  0.00    +0.000 S 
ATOM     19  H   UNK A   0      -1.021  10.729  18.808  0.00  0.00    +0.000 HD
ENDBRANCH  17  18
BRANCH  17  20
ATOM     20  C   UNK A   0       0.964   9.188  20.335  0.00  0.00    +0.000 C 
BRANCH  20  21
ATOM     21  C   UNK A   0       0.239  10.094  21.296  0.00  0.00    +0.000 A 
ATOM     22  C   UNK A   0       0.249  11.478  21.082  0.00  0.00    +0.000 A 
ATOM     23  C   UNK A   0      -0.423  12.335  21.954  0.00  0.00    +0.000 A 
ATOM     24  C   UNK A   0      -1.115  11.812  23.044  0.00  0.00    +0.000 A 
ATOM     25  C   UNK A   0      -1.142  10.434  23.257  0.00  0.00    +0.000 A 
ATOM     26  C   UNK A   0      -0.472   9.577  22.385  0.00  0.00    +0.000 A 
ENDBRANCH  20  21
ENDBRANCH  17  20
ENDBRANCH  14  17
ENDBRANCH   1  13
BRANCH   1  27
ATOM     27  CB  PHE A   1       4.600   7.163  17.586  0.00  0.00    +0.000 C 
BRANCH  27  28
ATOM     28  CG  PHE A   1       5.461   6.176  16.844  0.00  0.00    +0.000 A 
ATOM     29  CD1 PHE A   1       5.159   5.826  15.524  0.00  0.00    +0.000 A 
ATOM     30  CE1 PHE A   1       5.966   4.923  14.831  0.00  0.00    +0.000 A 
ATOM     31  CZ  PHE A   1       7.083   4.365  15.449  0.00  0.00    +0.000 A 
ATOM     32  CE2 PHE A   1       7.400   4.714  16.760  0.00  0.00    +0.000 A 
ATOM     33  CD2 PHE A   1       6.595   5.618  17.454  0.00  0.00    +0.000 A 
ENDBRANCH  27  28
ENDBRANCH   1  27
TORSDOF 10
ENDMDL
MODEL 4
REMARK VINA RESULT:      -7.9      2.233      4.919
REMARK  Name = 
REMARK  10 active torsions:
REMARK  status: ('A' for Active; 'I' for Inactive)
REMARK    1  A    between atoms: C_2  and  OXT_3
REMARK    2  A    between atoms: C_2  and  CA_4
REMARK    3  A    between atoms: C_9  and  CA_11
REMARK    4  A    between atoms: CA_11  and  CB_12
REMARK    5  A    between atoms: CA_11  and  N_19
REMARK    6  A    between atoms: CB_12  and  CG_13
REMARK    7  A    between atoms: C_20  and  C_22
REMARK    8  A    between atoms: C_22  and  S_23
REMARK    9  A    between atoms: C_22  and  C_24
REMARK   10  A    between atoms: C_24  and  C_25
REMARK                            x       y       z     vdW  Elec       q    Type
REMARK                         _______ _______ _______ _____ _____    ______ ____
ROOT
ATOM      1  CA  PHE A   1       2.833   6.912  18.429  0.00  0.00    +0.000 C 
ENDROOT
BRANCH   1   7
ATOM      2  CA  PHE A   1       0.457   9.814  19.383  0.00  0.00    +0.000 C 
ATOM      3  CB  PHE A   1       0.222  10.162  20.861  0.00  0.00    +0.000 C 
ATOM      4  CG  PHE A   1       0.524   8.884  21.616  0.00  0.00    +0.000 C 
ATOM      5  CD  PHE A   1       1.526   8.149  20.749  0.00  0.00    +0.000 C 
ATOM      6  N   PHE A   1       1.575   8.847  19.467  0.00  0.00    +0.000 N 
ATOM      7  C   PHE A   1       2.156   8.301  18.333  0.00  0.00    +0.000 C 
ATOM      8  O   PHE A   1       2.089   8.919  17.268  0.00  0.00    +0.000 OA
BRANCH   2  10
ATOM      9  O   PHE A   1      -0.489  11.803  18.356  0.00  0.00    +0.000 OA
ATOM     10  C   PHE A   1       0.516  11.157  18.630  0.00  0.00    +0.000 C 
BRANCH  10  11
ATOM     11  OXT PHE A   1       1.743  11.586  18.274  0.00  0.00    +0.000 OA
ATOM     12  HXT PHE A   1       2.024  12.365  18.812  0.00  0.00    +0.000 HD
ENDBRANCH  10  11
ENDBRANCH   2  10
ENDBRANCH   1   7
BRANCH   1  13
ATOM     13  N   PHE A   1       4.153   7.027  17.820  0.00  0.00    +0.000 N 
ATOM     14  C   UNK A   0       4.670   6.002  17.066  0.00  0.00    +0.000 C 
ATOM     15  O   UNK A   0       4.054   4.949  16.908  0.00  0.00    +0.000 OA
ATOM     16  H   PHE A   1       4.722   7.841  18.045  0.00  0.00    +0.000 HD
BRANCH  14  17
ATOM     17  C   UNK A   0       6.009   6.283  16.385  0.00  0.00    +0.000 C 
BRANCH  17  18
ATOM     18  S   UNK A   0       7.052   7.285  17.513  0.00  0.00    +0.000 S 
ATOM     19  H   UNK A   0       7.561   6.255  18.202  0.00  0.00    +0.000 HD
ENDBRANCH  17  18
BRANCH  17  20
ATOM     20  C   UNK A   0       6.656   4.937  16.007  0.00  0.00    +0.000 C 
BRANCH  20  21
ATOM     21  C   UNK A   0       6.762   4.645  14.533  0.00  0.00    +0.000 A 
ATOM     22  C   UNK A   0       5.922   3.683  13.958  0.00  0.00    +0.000 A 
ATOM     23  C   UNK A   0       5.997   3.402  12.593  0.00  0.00    +0.000 A 
ATOM     24  C   UNK A   0       6.910   4.086  11.793  0.00  0.00    +0.000 A 
ATOM     25  C   UNK A   0       7.740   5.055  12.355  0.00  0.00    +0.000 A 
ATOM     26  C   UNK A   0       7.665   5.338  13.718  0.00  0.00    +0.000 A 
ENDBRANCH  20  21
ENDBRANCH  17  20
ENDBRANCH  14  17
ENDBRANCH   1  13
BRANCH   1  27
ATOM     27  CB  PHE A   1       2.837   6.239  19.805  0.00  0.00    +0.000 C 
BRANCH  27  28
ATOM     28  CG  PHE A   1       2.182   4.887  19.904  0.00  0.00    +0.000 A 
ATOM     29  CD1 PHE A   1       1.651   4.273  18.764  0.00  0.00    +0.000 A 
ATOM     30  CE1 PHE A   1       1.058   3.013  18.853  0.00  0.00    +0.000 A 
ATOM     31  CZ  PHE A   1       0.993   2.354  20.079  0.00  0.00    +0.000 A 
ATOM     32  CE2 PHE A   1       1.529   2.950  21.218  0.00  0.00    +0.000 A 
ATOM     33  CD2 PHE A   1       2.124   4.209  21.132  0.00  0.00    +0.000 A 
ENDBRANCH  27  28
ENDBRANCH   1  27
TORSDOF 10
ENDMDL
MODEL 5
REMARK VINA RESULT:      -7.9      2.244      4.875
REMARK  Name = 
REMARK  10 active torsions:
REMARK  status: ('A' for Active; 'I' for Inactive)
REMARK    1  A    between atoms: C_2  and  OXT_3
REMARK    2  A    between atoms: C_2  and  CA_4
REMARK    3  A    between atoms: C_9  and  CA_11
REMARK    4  A    between atoms: CA_11  and  CB_12
REMARK    5  A    between atoms: CA_11  and  N_19
REMARK    6  A    between atoms: CB_12  and  CG_13
REMARK    7  A    between atoms: C_20  and  C_22
REMARK    8  A    between atoms: C_22  and  S_23
REMARK    9  A    between atoms: C_22  and  C_24
REMARK   10  A    between atoms: C_24  and  C_25
REMARK                            x       y       z     vdW  Elec       q    Type
REMARK                         _______ _______ _______ _____ _____    ______ ____
ROOT
ATOM      1  CA  PHE A   1       2.800   6.842  18.457  0.00  0.00    +0.000 C 
ENDROOT
BRANCH   1   7
ATOM      2  CA  PHE A   1       0.495   9.791  19.440  0.00  0.00    +0.000 C 
ATOM      3  CB  PHE A   1       0.236  10.105  20.922  0.00  0.00    +0.000 C 
ATOM      4  CG  PHE A   1       0.481   8.798  21.647  0.00  0.00    +0.000 C 
ATOM      5  CD  PHE A   1       1.479   8.055  20.781  0.00  0.00    +0.000 C 
ATOM      6  N   PHE A   1       1.580   8.787  19.522  0.00  0.00    +0.000 N 
ATOM      7  C   PHE A   1       2.169   8.254  18.386  0.00  0.00    +0.000 C 
ATOM      8  O   PHE A   1       2.146   8.903  17.338  0.00  0.00    +0.000 OA
BRANCH   2  10
ATOM      9  O   PHE A   1       1.523  11.940  18.962  0.00  0.00    +0.000 OA
ATOM     10  C   PHE A   1       0.614  11.152  18.728  0.00  0.00    +0.000 C 
BRANCH  10  11
ATOM     11  OXT PHE A   1      -0.349  11.441  17.831  0.00  0.00    +0.000 OA
ATOM     12  HXT PHE A   1      -0.907  12.198  18.131  0.00  0.00    +0.000 HD
ENDBRANCH  10  11
ENDBRANCH   2  10
ENDBRANCH   1   7
BRANCH   1  13
ATOM     13  N   PHE A   1       4.122   6.923  17.847  0.00  0.00    +0.000 N 
ATOM     14  C   UNK A   0       4.610   5.887  17.088  0.00  0.00    +0.000 C 
ATOM     15  O   UNK A   0       3.965   4.852  16.926  0.00  0.00    +0.000 OA
ATOM     16  H   PHE A   1       4.714   7.720  18.075  0.00  0.00    +0.000 HD
BRANCH  14  17
ATOM     17  C   UNK A   0       5.956   6.134  16.408  0.00  0.00    +0.000 C 
BRANCH  17  18
ATOM     18  S   UNK A   0       7.049   7.048  17.563  0.00  0.00    +0.000 S 
ATOM     19  H   UNK A   0       6.073   7.707  18.202  0.00  0.00    +0.000 HD
ENDBRANCH  17  18
BRANCH  17  20
ATOM     20  C   UNK A   0       6.541   4.777  15.976  0.00  0.00    +0.000 C 
BRANCH  20  21
ATOM     21  C   UNK A   0       6.676   4.556  14.492  0.00  0.00    +0.000 A 
ATOM     22  C   UNK A   0       7.626   5.286  13.768  0.00  0.00    +0.000 A 
ATOM     23  C   UNK A   0       7.774   5.092  12.395  0.00  0.00    +0.000 A 
ATOM     24  C   UNK A   0       6.976   4.159  11.736  0.00  0.00    +0.000 A 
ATOM     25  C   UNK A   0       6.036   3.417  12.451  0.00  0.00    +0.000 A 
ATOM     26  C   UNK A   0       5.889   3.609  13.824  0.00  0.00    +0.000 A 
ENDBRANCH  20  21
ENDBRANCH  17  20
ENDBRANCH  14  17
ENDBRANCH   1  13
BRANCH   1  27
ATOM     27  CB  PHE A   1       2.784   6.145  19.822  0.00  0.00    +0.000 C 
BRANCH  27  28
ATOM     28  CG  PHE A   1       2.143   4.785  19.884  0.00  0.00    +0.000 A 
ATOM     29  CD1 PHE A   1       1.559   4.224  18.743  0.00  0.00    +0.000 A 
ATOM     30  CE1 PHE A   1       0.979   2.956  18.797  0.00  0.00    +0.000 A 
ATOM     31  CZ  PHE A   1       0.980   2.236  19.990  0.00  0.00    +0.000 A 
ATOM     32  CE2 PHE A   1       1.567   2.779  21.130  0.00  0.00    +0.000 A 
ATOM     33  CD2 PHE A   1       2.150   4.046  21.078  0.00  0.00    +0.000 A 
ENDBRANCH  27  28
ENDBRANCH   1  27
TORSDOF 10
ENDMDL
MODEL 6
REMARK VINA RESULT:      -7.8      2.605      7.266
REMARK  Name = 
REMARK  10 active torsions:
REMARK  status: ('A' for Active; 'I' for Inactive)
REMARK    1  A    between atoms: C_2  and  OXT_3
REMARK    2  A    between atoms: C_2  and  CA_4
REMARK    3  A    between atoms: C_9  and  CA_11
REMARK    4  A    between atoms: CA_11  and  CB_12
REMARK    5  A    between atoms: CA_11  and  N_19
REMARK    6  A    between atoms: CB_12  and  CG_13
REMARK    7  A    between atoms: C_20  and  C_22
REMARK    8  A    between atoms: C_22  and  S_23
REMARK    9  A    between atoms: C_22  and  C_24
REMARK   10  A    between atoms: C_24  and  C_25
REMARK                            x       y       z     vdW  Elec       q    Type
REMARK                         _______ _______ _______ _____ _____    ______ ____
ROOT
ATOM      1  CA  PHE A   1       3.125   6.550  18.208  0.00  0.00    +0.000 C 
ENDROOT
BRANCH   1   7
ATOM      2  CA  PHE A   1       2.671   3.129  19.959  0.00  0.00    +0.000 C 
ATOM      3  CB  PHE A   1       1.796   2.043  19.312  0.00  0.00    +0.000 C 
ATOM      4  CG  PHE A   1       0.832   2.799  18.421  0.00  0.00    +0.000 C 
ATOM      5  CD  PHE A   1       1.569   4.067  18.039  0.00  0.00    +0.000 C 
ATOM      6  N   PHE A   1       2.762   4.137  18.878  0.00  0.00    +0.000 N 
ATOM      7  C   PHE A   1       3.519   5.289  19.016  0.00  0.00    +0.000 C 
ATOM      8  O   PHE A   1       4.468   5.293  19.804  0.00  0.00    +0.000 OA
BRANCH   2  10
ATOM      9  O   PHE A   1       3.858   1.934  21.710  0.00  0.00    +0.000 OA
ATOM     10  C   PHE A   1       3.878   2.395  20.575  0.00  0.00    +0.000 C 
BRANCH  10  11
ATOM     11  OXT PHE A   1       4.974   2.294  19.797  0.00  0.00    +0.000 OA
ATOM     12  HXT PHE A   1       5.205   3.160  19.384  0.00  0.00    +0.000 HD
ENDBRANCH  10  11
ENDBRANCH   2  10
ENDBRANCH   1   7
BRANCH   1  13
ATOM     13  N   PHE A   1       2.308   7.387  19.078  0.00  0.00    +0.000 N 
ATOM     14  C   UNK A   0       1.668   8.498  18.584  0.00  0.00    +0.000 C 
ATOM     15  O   UNK A   0       1.788   8.837  17.408  0.00  0.00    +0.000 OA
ATOM     16  H   PHE A   1       2.300   7.187  20.077  0.00  0.00    +0.000 HD
BRANCH  14  17
ATOM     17  C   UNK A   0       0.749   9.230  19.562  0.00  0.00    +0.000 C 
BRANCH  17  18
ATOM     18  S   UNK A   0       1.592   9.362  21.187  0.00  0.00    +0.000 S 
ATOM     19  H   UNK A   0       1.599   8.050  21.458  0.00  0.00    +0.000 HD
ENDBRANCH  17  18
BRANCH  17  20
ATOM     20  C   UNK A   0       0.388  10.600  18.960  0.00  0.00    +0.000 C 
BRANCH  20  21
ATOM     21  C   UNK A   0      -1.044  10.777  18.528  0.00  0.00    +0.000 A 
ATOM     22  C   UNK A   0      -1.551   9.996  17.482  0.00  0.00    +0.000 A 
ATOM     23  C   UNK A   0      -2.876  10.137  17.070  0.00  0.00    +0.000 A 
ATOM     24  C   UNK A   0      -3.706  11.057  17.707  0.00  0.00    +0.000 A 
ATOM     25  C   UNK A   0      -3.214  11.830  18.759  0.00  0.00    +0.000 A 
ATOM     26  C   UNK A   0      -1.890  11.688  19.172  0.00  0.00    +0.000 A 
ENDBRANCH  20  21
ENDBRANCH  17  20
ENDBRANCH  14  17
ENDBRANCH   1  13
BRANCH   1  27
ATOM     27  CB  PHE A   1       4.259   7.302  17.504  0.00  0.00    +0.000 C 
BRANCH  27  28
ATOM     28  CG  PHE A   1       5.287   6.467  16.787  0.00  0.00    +0.000 A 
ATOM     29  CD1 PHE A   1       4.985   5.874  15.557  0.00  0.00    +0.000 A 
ATOM     30  CE1 PHE A   1       5.942   5.114  14.885  0.00  0.00    +0.000 A 
ATOM     31  CZ  PHE A   1       7.211   4.942  15.434  0.00  0.00    +0.000 A 
ATOM     32  CE2 PHE A   1       7.528   5.537  16.653  0.00  0.00    +0.000 A 
ATOM     33  CD2 PHE A   1       6.572   6.299  17.326  0.00  0.00    +0.000 A 
ENDBRANCH  27  28
ENDBRANCH   1  27
TORSDOF 10
ENDMDL
MODEL 7
REMARK VINA RESULT:      -7.8      0.907      1.264
REMARK  Name = 
REMARK  10 active torsions:
REMARK  status: ('A' for Active; 'I' for Inactive)
REMARK    1  A    between atoms: C_2  and  OXT_3
REMARK    2  A    between atoms: C_2  and  CA_4
REMARK    3  A    between atoms: C_9  and  CA_11
REMARK    4  A    between atoms: CA_11  and  CB_12
REMARK    5  A    between atoms: CA_11  and  N_19
REMARK    6  A    between atoms: CB_12  and  CG_13
REMARK    7  A    between atoms: C_20  and  C_22
REMARK    8  A    between atoms: C_22  and  S_23
REMARK    9  A    between atoms: C_22  and  C_24
REMARK   10  A    between atoms: C_24  and  C_25
REMARK                            x       y       z     vdW  Elec       q    Type
REMARK                         _______ _______ _______ _____ _____    ______ ____
ROOT
ATOM      1  CA  PHE A   1       3.129   6.695  18.263  0.00  0.00    +0.000 C 
ENDROOT
BRANCH   1   7
ATOM      2  CA  PHE A   1       2.179   3.124  19.414  0.00  0.00    +0.000 C 
ATOM      3  CB  PHE A   1       1.568   2.901  20.806  0.00  0.00    +0.000 C 
ATOM      4  CG  PHE A   1       2.038   4.081  21.632  0.00  0.00    +0.000 C 
ATOM      5  CD  PHE A   1       2.249   5.198  20.629  0.00  0.00    +0.000 C 
ATOM      6  N   PHE A   1       2.158   4.600  19.300  0.00  0.00    +0.000 N 
ATOM      7  C   PHE A   1       2.582   5.251  18.152  0.00  0.00    +0.000 C 
ATOM      8  O   PHE A   1       2.546   4.651  17.075  0.00  0.00    +0.000 OA
BRANCH   2  10
ATOM      9  O   PHE A   1       0.237   1.946  18.551  0.00  0.00    +0.000 OA
ATOM     10  C   PHE A   1       1.440   2.163  18.462  0.00  0.00    +0.000 C 
BRANCH  10  11
ATOM     11  OXT PHE A   1       2.194   1.558  17.524  0.00  0.00    +0.000 OA
ATOM     12  HXT PHE A   1       3.150   1.565  17.768  0.00  0.00    +0.000 HD
ENDBRANCH  10  11
ENDBRANCH   2  10
ENDBRANCH   1   7
BRANCH   1  13
ATOM     13  N   PHE A   1       4.468   6.700  17.687  0.00  0.00    +0.000 N 
ATOM     14  C   UNK A   0       5.512   6.085  18.334  0.00  0.00    +0.000 C 
ATOM     15  O   UNK A   0       5.358   5.540  19.427  0.00  0.00    +0.000 OA
ATOM     16  H   PHE A   1       4.634   7.251  16.847  0.00  0.00    +0.000 HD
BRANCH  14  17
ATOM     17  C   UNK A   0       6.842   6.056  17.581  0.00  0.00    +0.000 C 
BRANCH  17  18
ATOM     18  S   UNK A   0       8.186   6.554  18.726  0.00  0.00    +0.000 S 
ATOM     19  H   UNK A   0       9.172   5.905  18.090  0.00  0.00    +0.000 HD
ENDBRANCH  17  18
BRANCH  17  20
ATOM     20  C   UNK A   0       7.042   4.646  16.997  0.00  0.00    +0.000 C 
BRANCH  20  21
ATOM     21  C   UNK A   0       6.843   4.510  15.510  0.00  0.00    +0.000 A 
ATOM     22  C   UNK A   0       7.712   5.172  14.633  0.00  0.00    +0.000 A 
ATOM     23  C   UNK A   0       7.552   5.054  13.253  0.00  0.00    +0.000 A 
ATOM     24  C   UNK A   0       6.524   4.266  12.739  0.00  0.00    +0.000 A 
ATOM     25  C   UNK A   0       5.662   3.593  13.604  0.00  0.00    +0.000 A 
ATOM     26  C   UNK A   0       5.823   3.709  14.984  0.00  0.00    +0.000 A 
ENDBRANCH  20  21
ENDBRANCH  17  20
ENDBRANCH  14  17
ENDBRANCH   1  13
BRANCH   1  27
ATOM     27  CB  PHE A   1       2.224   7.818  17.747  0.00  0.00    +0.000 C 
BRANCH  27  28
ATOM     28  CG  PHE A   1       1.530   8.664  18.782  0.00  0.00    +0.000 A 
ATOM     29  CD1 PHE A   1       1.646   8.355  20.142  0.00  0.00    +0.000 A 
ATOM     30  CE1 PHE A   1       1.017   9.148  21.102  0.00  0.00    +0.000 A 
ATOM     31  CZ  PHE A   1       0.269  10.257  20.713  0.00  0.00    +0.000 A 
ATOM     32  CE2 PHE A   1       0.156  10.581  19.363  0.00  0.00    +0.000 A 
ATOM     33  CD2 PHE A   1       0.786   9.791  18.401  0.00  0.00    +0.000 A 
ENDBRANCH  27  28
ENDBRANCH   1  27
TORSDOF 10
ENDMDL
MODEL 8
REMARK VINA RESULT:      -7.8      2.681      7.273
REMARK  Name = 
REMARK  10 active torsions:
REMARK  status: ('A' for Active; 'I' for Inactive)
REMARK    1  A    between atoms: C_2  and  OXT_3
REMARK    2  A    between atoms: C_2  and  CA_4
REMARK    3  A    between atoms: C_9  and  CA_11
REMARK    4  A    between atoms: CA_11  and  CB_12
REMARK    5  A    between atoms: CA_11  and  N_19
REMARK    6  A    between atoms: CB_12  and  CG_13
REMARK    7  A    between atoms: C_20  and  C_22
REMARK    8  A    between atoms: C_22  and  S_23
REMARK    9  A    between atoms: C_22  and  C_24
REMARK   10  A    between atoms: C_24  and  C_25
REMARK                            x       y       z     vdW  Elec       q    Type
REMARK                         _______ _______ _______ _____ _____    ______ ____
ROOT
ATOM      1  CA  PHE A   1       3.032   6.639  18.310  0.00  0.00    +0.000 C 
ENDROOT
BRANCH   1   7
ATOM      2  CA  PHE A   1       2.368   3.247  20.052  0.00  0.00    +0.000 C 
ATOM      3  CB  PHE A   1       1.580   2.148  19.321  0.00  0.00    +0.000 C 
ATOM      4  CG  PHE A   1       0.733   2.885  18.305  0.00  0.00    +0.000 C 
ATOM      5  CD  PHE A   1       1.510   4.148  17.994  0.00  0.00    +0.000 C 
ATOM      6  N   PHE A   1       2.590   4.236  18.973  0.00  0.00    +0.000 N 
ATOM      7  C   PHE A   1       3.324   5.394  19.183  0.00  0.00    +0.000 C 
ATOM      8  O   PHE A   1       4.168   5.414  20.082  0.00  0.00    +0.000 OA
BRANCH   2  10
ATOM      9  O   PHE A   1       3.339   2.114  21.968  0.00  0.00    +0.000 OA
ATOM     10  C   PHE A   1       3.490   2.528  20.825  0.00  0.00    +0.000 C 
BRANCH  10  11
ATOM     11  OXT PHE A   1       4.663   2.386  20.177  0.00  0.00    +0.000 OA
ATOM     12  HXT PHE A   1       5.334   3.036  20.496  0.00  0.00    +0.000 HD
ENDBRANCH  10  11
ENDBRANCH   2  10
ENDBRANCH   1   7
BRANCH   1  13
ATOM     13  N   PHE A   1       2.164   7.519  19.083  0.00  0.00    +0.000 N 
ATOM     14  C   UNK A   0       1.617   8.643  18.514  0.00  0.00    +0.000 C 
ATOM     15  O   UNK A   0       1.865   8.958  17.351  0.00  0.00    +0.000 OA
ATOM     16  H   PHE A   1       2.051   7.337  20.079  0.00  0.00    +0.000 HD
BRANCH  14  17
ATOM     17  C   UNK A   0       0.634   9.423  19.387  0.00  0.00    +0.000 C 
BRANCH  17  18
ATOM     18  S   UNK A   0       1.444   9.826  20.983  0.00  0.00    +0.000 S 
ATOM     19  H   UNK A   0       1.056   8.719  21.631  0.00  0.00    +0.000 HD
ENDBRANCH  17  18
BRANCH  17  20
ATOM     20  C   UNK A   0       0.180  10.674  18.612  0.00  0.00    +0.000 C 
BRANCH  20  21
ATOM     21  C   UNK A   0      -1.262  10.697  18.177  0.00  0.00    +0.000 A 
ATOM     22  C   UNK A   0      -2.156  11.580  18.795  0.00  0.00    +0.000 A 
ATOM     23  C   UNK A   0      -3.494  11.624  18.402  0.00  0.00    +0.000 A 
ATOM     24  C   UNK A   0      -3.945  10.789  17.383  0.00  0.00    +0.000 A 
ATOM     25  C   UNK A   0      -3.059   9.916  16.752  0.00  0.00    +0.000 A 
ATOM     26  C   UNK A   0      -1.721   9.872  17.143  0.00  0.00    +0.000 A 
ENDBRANCH  20  21
ENDBRANCH  17  20
ENDBRANCH  14  17
ENDBRANCH   1  13
BRANCH   1  27
ATOM     27  CB  PHE A   1       4.240   7.344  17.686  0.00  0.00    +0.000 C 
BRANCH  27  28
ATOM     28  CG  PHE A   1       5.259   6.472  17.002  0.00  0.00    +0.000 A 
ATOM     29  CD1 PHE A   1       6.474   6.177  17.631  0.00  0.00    +0.000 A 
ATOM     30  CE1 PHE A   1       7.412   5.355  17.004  0.00  0.00    +0.000 A 
ATOM     31  CZ  PHE A   1       7.143   4.820  15.746  0.00  0.00    +0.000 A 
ATOM     32  CE2 PHE A   1       5.933   5.098  15.115  0.00  0.00    +0.000 A 
ATOM     33  CD2 PHE A   1       4.992   5.917  15.741  0.00  0.00    +0.000 A 
ENDBRANCH  27  28
ENDBRANCH   1  27
TORSDOF 10
ENDMDL
MODEL 9
REMARK VINA RESULT:      -7.8      4.630      7.825
REMARK  Name = 
REMARK  10 active torsions:
REMARK  status: ('A' for Active; 'I' for Inactive)
REMARK    1  A    between atoms: C_2  and  OXT_3
REMARK    2  A    between atoms: C_2  and  CA_4
REMARK    3  A    between atoms: C_9  and  CA_11
REMARK    4  A    between atoms: CA_11  and  CB_12
REMARK    5  A    between atoms: CA_11  and  N_19
REMARK    6  A    between atoms: CB_12  and  CG_13
REMARK    7  A    between atoms: C_20  and  C_22
REMARK    8  A    between atoms: C_22  and  S_23
REMARK    9  A    between atoms: C_22  and  C_24
REMARK   10  A    between atoms: C_24  and  C_25
REMARK                            x       y       z     vdW  Elec       q    Type
REMARK                         _______ _______ _______ _____ _____    ______ ____
ROOT
ATOM      1  CA  PHE A   1       0.231  10.878  19.383  0.00  0.00    +0.000 C 
ENDROOT
BRANCH   1   7
ATOM      2  CA  PHE A   1       2.845  13.593  20.266  0.00  0.00    +0.000 C 
ATOM      3  CB  PHE A   1       3.083  14.772  19.309  0.00  0.00    +0.000 C 
ATOM      4  CG  PHE A   1       2.650  14.264  17.949  0.00  0.00    +0.000 C 
ATOM      5  CD  PHE A   1       1.602  13.211  18.243  0.00  0.00    +0.000 C 
ATOM      6  N   PHE A   1       1.641  12.959  19.681  0.00  0.00    +0.000 N 
ATOM      7  C   PHE A   1       1.034  11.861  20.270  0.00  0.00    +0.000 C 
ATOM      8  O   PHE A   1       1.178  11.674  21.481  0.00  0.00    +0.000 OA
BRANCH   2  10
ATOM      9  O   PHE A   1       3.976  14.252  22.312  0.00  0.00    +0.000 OA
ATOM     10  C   PHE A   1       2.923  14.174  21.691  0.00  0.00    +0.000 C 
BRANCH  10  11
ATOM     11  OXT PHE A   1       1.760  14.587  22.230  0.00  0.00    +0.000 OA
ATOM     12  HXT PHE A   1       1.031  13.945  22.054  0.00  0.00    +0.000 HD
ENDBRANCH  10  11
ENDBRANCH   2  10
ENDBRANCH   1   7
BRANCH   1  13
ATOM     13  N   PHE A   1       0.844   9.563  19.524  0.00  0.00    +0.000 N 
ATOM     14  C   UNK A   0       1.699   9.081  18.564  0.00  0.00    +0.000 C 
ATOM     15  O   UNK A   0       1.950   9.726  17.547  0.00  0.00    +0.000 OA
ATOM     16  H   PHE A   1       0.549   8.970  20.298  0.00  0.00    +0.000 HD
BRANCH  14  17
ATOM     17  C   UNK A   0       2.368   7.742  18.876  0.00  0.00    +0.000 C 
BRANCH  17  18
ATOM     18  S   UNK A   0       1.833   7.182  20.539  0.00  0.00    +0.000 S 
ATOM     19  H   UNK A   0       1.128   6.122  20.120  0.00  0.00    +0.000 HD
ENDBRANCH  17  18
BRANCH  17  20
ATOM     20  C   UNK A   0       2.005   6.744  17.761  0.00  0.00    +0.000 C 
BRANCH  20  21
ATOM     21  C   UNK A   0       2.572   5.356  17.905  0.00  0.00    +0.000 A 
ATOM     22  C   UNK A   0       1.729   4.247  17.759  0.00  0.00    +0.000 A 
ATOM     23  C   UNK A   0       2.235   2.952  17.879  0.00  0.00    +0.000 A 
ATOM     24  C   UNK A   0       3.589   2.757  18.141  0.00  0.00    +0.000 A 
ATOM     25  C   UNK A   0       4.438   3.856  18.274  0.00  0.00    +0.000 A 
ATOM     26  C   UNK A   0       3.934   5.150  18.152  0.00  0.00    +0.000 A 
ENDBRANCH  20  21
ENDBRANCH  17  20
ENDBRANCH  14  17
ENDBRANCH   1  13
BRANCH   1  27
ATOM     27  CB  PHE A   1      -1.292  10.880  19.554  0.00  0.00    +0.000 C 
BRANCH  27  28
ATOM     28  CG  PHE A   1      -2.118  10.792  18.299  0.00  0.00    +0.000 A 
ATOM     29  CD1 PHE A   1      -3.283  11.555  18.163  0.00  0.00    +0.000 A 
ATOM     30  CE1 PHE A   1      -4.040  11.485  16.993  0.00  0.00    +0.000 A 
ATOM     31  CZ  PHE A   1      -3.639  10.656  15.948  0.00  0.00    +0.000 A 
ATOM     32  CE2 PHE A   1      -2.475   9.901  16.067  0.00  0.00    +0.000 A 
ATOM     33  CD2 PHE A   1      -1.715   9.970  17.235  0.00  0.00    +0.000 A 
ENDBRANCH  27  28
ENDBRANCH   1  27
TORSDOF 10
ENDMDL
