MODEL 1
REMARK VINA RESULT:      -8.4      0.000      0.000
REMARK  Name = 
REMARK  15 active torsions:
REMARK  status: ('A' for Active; 'I' for Inactive)
REMARK    1  A    between atoms: C_1  and  C_2
REMARK    2  A    between atoms: C_2  and  C_3
REMARK    3  A    between atoms: C_3  and  C_4
REMARK    4  A    between atoms: C_3  and  O_6
REMARK    5  A    between atoms: C_4  and  C_5
REMARK    6  A    between atoms: O_6  and  C_7
REMARK    7  A    between atoms: C_9  and  C_10
REMARK    8  A    between atoms: C_10  and  O_12
REMARK    9  A    between atoms: C_14  and  N_15
REMARK   10  A    between atoms: N_15  and  C_16
REMARK   11  A    between atoms: C_16  and  C_17
REMARK   12  A    between atoms: C_20  and  C_21
REMARK   13  A    between atoms: C_25  and  N_26
REMARK   14  A    between atoms: C_31  and  N_32
REMARK   15  A    between atoms: C_33  and  C_34
REMARK                            x       y       z     vdW  Elec       q    Type
REMARK                         _______ _______ _______ _____ _____    ______ ____
ROOT
ATOM      1  C   UNL     1       3.763   5.955  17.150  0.00  0.00    +0.000 C 
ATOM      2  C   UNL     1       2.818   4.872  17.556  0.00  0.00    +0.000 C 
ATOM      3  C   UNL     1       3.217   3.768  18.205  0.00  0.00    +0.000 C 
ATOM      4  C   UNL     1       4.669   3.486  18.525  0.00  0.00    +0.000 C 
ATOM      5  C   UNL     1       5.744   4.496  18.015  0.00  0.00    +0.000 C 
ATOM      6  C   UNL     1       5.197   5.413  16.866  0.00  0.00    +0.000 C 
ENDROOT
BRANCH   6   7
ATOM      7  N   UNL     1       5.295   4.652  15.598  0.00  0.00    +0.000 N 
ATOM      8  C   UNL     1       6.395   4.669  14.777  0.00  0.00    +0.000 C 
ATOM      9  C   UNL     1       6.300   3.703  13.626  0.00  0.00    +0.000 C 
ATOM     10  O   UNL     1       7.355   5.414  14.924  0.00  0.00    +0.000 OA
ATOM     11  H   UNL     1       4.715   3.826  15.526  0.00  0.00    +0.000 HD
ENDBRANCH   6   7
BRANCH   3  12
ATOM     12  C   UNL     1       2.251   2.701  18.570  0.00  0.00    +0.000 C 
ATOM     13  O   UNL     1       2.568   1.732  19.242  0.00  0.00    +0.000 OA
BRANCH  12  14
ATOM     14  O   UNL     1       0.990   2.898  18.132  0.00  0.00    +0.000 OA
ATOM     15  H   UNL     1       0.833   3.764  17.712  0.00  0.00    +0.000 HD
ENDBRANCH  12  14
ENDBRANCH   3  12
BRANCH   5  16
ATOM     16  N   UNL     1       6.459   5.298  19.026  0.00  0.00    +0.000 NA
ATOM     17  H   UNL     1       6.501   4.789  19.911  0.00  0.00    +0.000 HD
BRANCH  16  18
ATOM     18  C   UNL     1       7.811   5.767  18.657  0.00  0.00    +0.000 C 
BRANCH  18  19
ATOM     19  C   UNL     1       7.954   7.250  18.411  0.00  0.00    +0.000 A 
ATOM     20  N   UNL     1       7.350   7.854  17.376  0.00  0.00    +0.000 NA
ATOM     21  O   UNL     1       7.837   9.164  17.431  0.00  0.00    +0.000 OA
ATOM     22  C   UNL     1       8.686   9.224  18.501  0.00  0.00    +0.000 A 
ATOM     23  N   UNL     1       8.789   8.073  19.136  0.00  0.00    +0.000 NA
BRANCH  22  24
ATOM     24  C   UNL     1       9.336  10.508  18.783  0.00  0.00    +0.000 A 
ATOM     25  C   UNL     1      10.099  11.211  17.830  0.00  0.00    +0.000 A 
ATOM     26  C   UNL     1      10.678  12.452  18.145  0.00  0.00    +0.000 A 
ATOM     27  C   UNL     1      10.518  13.007  19.410  0.00  0.00    +0.000 A 
ATOM     28  C   UNL     1       9.765  12.311  20.365  0.00  0.00    +0.000 A 
ATOM     29  C   UNL     1       9.184  11.068  20.058  0.00  0.00    +0.000 A 
BRANCH  28  30
ATOM     30  N   UNL     1       9.572  12.885  21.705  0.00  0.00    +0.000 N 
ATOM     31  O   UNL     1       9.986  14.037  21.900  0.00  0.00    +0.000 OA
ATOM     32  O   UNL     1       9.005  12.188  22.557  0.00  0.00    +0.000 OA
ENDBRANCH  28  30
ENDBRANCH  22  24
ENDBRANCH  18  19
ENDBRANCH  16  18
ENDBRANCH   5  16
BRANCH   1  33
ATOM     33  O   UNL     1       3.648   6.901  18.216  0.00  0.00    +0.000 OA
BRANCH  33  34
ATOM     34  C   UNL     1       2.348   7.417  18.550  0.00  0.00    +0.000 C 
BRANCH  34  36
ATOM     35  C   UNL     1       1.587   6.196  20.723  0.00  0.00    +0.000 C 
ATOM     36  C   UNL     1       2.102   7.467  20.073  0.00  0.00    +0.000 C 
ENDBRANCH  34  36
BRANCH  34  37
ATOM     37  C   UNL     1       2.268   8.827  17.920  0.00  0.00    +0.000 C 
ATOM     38  C   UNL     1       1.008   9.609  18.292  0.00  0.00    +0.000 C 
ENDBRANCH  34  37
ENDBRANCH  33  34
ENDBRANCH   1  33
TORSDOF 12
ENDMDL
MODEL 2
REMARK VINA RESULT:      -8.1      1.526      1.755
REMARK  Name = 
REMARK  15 active torsions:
REMARK  status: ('A' for Active; 'I' for Inactive)
REMARK    1  A    between atoms: C_1  and  C_2
REMARK    2  A    between atoms: C_2  and  C_3
REMARK    3  A    between atoms: C_3  and  C_4
REMARK    4  A    between atoms: C_3  and  O_6
REMARK    5  A    between atoms: C_4  and  C_5
REMARK    6  A    between atoms: O_6  and  C_7
REMARK    7  A    between atoms: C_9  and  C_10
REMARK    8  A    between atoms: C_10  and  O_12
REMARK    9  A    between atoms: C_14  and  N_15
REMARK   10  A    between atoms: N_15  and  C_16
REMARK   11  A    between atoms: C_16  and  C_17
REMARK   12  A    between atoms: C_20  and  C_21
REMARK   13  A    between atoms: C_25  and  N_26
REMARK   14  A    between atoms: C_31  and  N_32
REMARK   15  A    between atoms: C_33  and  C_34
REMARK                            x       y       z     vdW  Elec       q    Type
REMARK                         _______ _______ _______ _____ _____    ______ ____
ROOT
ATOM      1  C   UNL     1       3.613   5.811  17.380  0.00  0.00    +0.000 C 
ATOM      2  C   UNL     1       2.879   4.590  17.830  0.00  0.00    +0.000 C 
ATOM      3  C   UNL     1       3.498   3.533  18.376  0.00  0.00    +0.000 C 
ATOM      4  C   UNL     1       5.002   3.450  18.523  0.00  0.00    +0.000 C 
ATOM      5  C   UNL     1       5.863   4.620  17.951  0.00  0.00    +0.000 C 
ATOM      6  C   UNL     1       5.066   5.490  16.917  0.00  0.00    +0.000 C 
ENDROOT
BRANCH   6   7
ATOM      7  N   UNL     1       5.124   4.795  15.608  0.00  0.00    +0.000 N 
ATOM      8  C   UNL     1       6.244   4.742  14.816  0.00  0.00    +0.000 C 
ATOM      9  C   UNL     1       6.084   3.858  13.608  0.00  0.00    +0.000 C 
ATOM     10  O   UNL     1       7.271   5.372  15.031  0.00  0.00    +0.000 OA
ATOM     11  H   UNL     1       4.463   4.041  15.473  0.00  0.00    +0.000 HD
ENDBRANCH   6   7
BRANCH   3  12
ATOM     12  C   UNL     1       2.736   2.326  18.788  0.00  0.00    +0.000 C 
ATOM     13  O   UNL     1       1.711   2.393  19.449  0.00  0.00    +0.000 OA
BRANCH  12  14
ATOM     14  O   UNL     1       3.241   1.155  18.350  0.00  0.00    +0.000 OA
ATOM     15  H   UNL     1       2.627   0.399  18.403  0.00  0.00    +0.000 HD
ENDBRANCH  12  14
ENDBRANCH   3  12
BRANCH   5  16
ATOM     16  N   UNL     1       6.570   5.480  18.919  0.00  0.00    +0.000 NA
ATOM     17  H   UNL     1       6.649   5.004  19.819  0.00  0.00    +0.000 HD
BRANCH  16  18
ATOM     18  C   UNL     1       7.897   5.982  18.503  0.00  0.00    +0.000 C 
BRANCH  18  19
ATOM     19  C   UNL     1       8.022   7.479  18.352  0.00  0.00    +0.000 A 
ATOM     20  N   UNL     1       7.445   8.136  17.333  0.00  0.00    +0.000 NA
ATOM     21  O   UNL     1       7.906   9.448  17.484  0.00  0.00    +0.000 OA
ATOM     22  C   UNL     1       8.714   9.456  18.587  0.00  0.00    +0.000 A 
ATOM     23  N   UNL     1       8.814   8.271  19.156  0.00  0.00    +0.000 NA
BRANCH  22  24
ATOM     24  C   UNL     1       9.329  10.731  18.970  0.00  0.00    +0.000 A 
ATOM     25  C   UNL     1      10.330  10.838  19.955  0.00  0.00    +0.000 A 
ATOM     26  C   UNL     1      10.905  12.082  20.265  0.00  0.00    +0.000 A 
ATOM     27  C   UNL     1      10.489  13.236  19.611  0.00  0.00    +0.000 A 
ATOM     28  C   UNL     1       9.490  13.139  18.634  0.00  0.00    +0.000 A 
ATOM     29  C   UNL     1       8.909  11.898  18.319  0.00  0.00    +0.000 A 
BRANCH  28  30
ATOM     30  N   UNL     1       9.044  14.345  17.921  0.00  0.00    +0.000 N 
ATOM     31  O   UNL     1       7.831  14.464  17.698  0.00  0.00    +0.000 OA
ATOM     32  O   UNL     1       9.904  15.173  17.590  0.00  0.00    +0.000 OA
ENDBRANCH  28  30
ENDBRANCH  22  24
ENDBRANCH  18  19
ENDBRANCH  16  18
ENDBRANCH   5  16
BRANCH   1  33
ATOM     33  O   UNL     1       3.491   6.693  18.499  0.00  0.00    +0.000 OA
BRANCH  33  34
ATOM     34  C   UNL     1       2.205   7.262  18.799  0.00  0.00    +0.000 C 
BRANCH  34  36
ATOM     35  C   UNL     1       1.443   8.389  21.022  0.00  0.00    +0.000 C 
ATOM     36  C   UNL     1       1.822   7.116  20.286  0.00  0.00    +0.000 C 
ENDBRANCH  34  36
BRANCH  34  37
ATOM     37  C   UNL     1       2.284   8.750  18.381  0.00  0.00    +0.000 C 
ATOM     38  C   UNL     1       0.999   9.293  17.755  0.00  0.00    +0.000 C 
ENDBRANCH  34  37
ENDBRANCH  33  34
ENDBRANCH   1  33
TORSDOF 12
ENDMDL
MODEL 3
REMARK VINA RESULT:      -7.9      1.520      1.973
REMARK  Name = 
REMARK  15 active torsions:
REMARK  status: ('A' for Active; 'I' for Inactive)
REMARK    1  A    between atoms: C_1  and  C_2
REMARK    2  A    between atoms: C_2  and  C_3
REMARK    3  A    between atoms: C_3  and  C_4
REMARK    4  A    between atoms: C_3  and  O_6
REMARK    5  A    between atoms: C_4  and  C_5
REMARK    6  A    between atoms: O_6  and  C_7
REMARK    7  A    between atoms: C_9  and  C_10
REMARK    8  A    between atoms: C_10  and  O_12
REMARK    9  A    between atoms: C_14  and  N_15
REMARK   10  A    between atoms: N_15  and  C_16
REMARK   11  A    between atoms: C_16  and  C_17
REMARK   12  A    between atoms: C_20  and  C_21
REMARK   13  A    between atoms: C_25  and  N_26
REMARK   14  A    between atoms: C_31  and  N_32
REMARK   15  A    between atoms: C_33  and  C_34
REMARK                            x       y       z     vdW  Elec       q    Type
REMARK                         _______ _______ _______ _____ _____    ______ ____
ROOT
ATOM      1  C   UNL     1       3.914   5.941  17.198  0.00  0.00    +0.000 C 
ATOM      2  C   UNL     1       3.557   4.722  17.984  0.00  0.00    +0.000 C 
ATOM      3  C   UNL     1       4.475   3.963  18.601  0.00  0.00    +0.000 C 
ATOM      4  C   UNL     1       5.961   4.232  18.501  0.00  0.00    +0.000 C 
ATOM      5  C   UNL     1       6.437   5.403  17.585  0.00  0.00    +0.000 C 
ATOM      6  C   UNL     1       5.332   5.838  16.560  0.00  0.00    +0.000 C 
ENDROOT
BRANCH   6   7
ATOM      7  N   UNL     1       5.392   4.903  15.411  0.00  0.00    +0.000 N 
ATOM      8  C   UNL     1       6.462   4.803  14.558  0.00  0.00    +0.000 C 
ATOM      9  C   UNL     1       6.333   3.681  13.562  0.00  0.00    +0.000 C 
ATOM     10  O   UNL     1       7.422   5.562  14.563  0.00  0.00    +0.000 OA
ATOM     11  H   UNL     1       4.814   4.075  15.479  0.00  0.00    +0.000 HD
ENDBRANCH   6   7
BRANCH   3  12
ATOM     12  C   UNL     1       4.083   2.743  19.353  0.00  0.00    +0.000 C 
ATOM     13  O   UNL     1       2.918   2.469  19.594  0.00  0.00    +0.000 OA
BRANCH  12  14
ATOM     14  O   UNL     1       5.107   1.944  19.719  0.00  0.00    +0.000 OA
ATOM     15  H   UNL     1       5.994   2.305  19.535  0.00  0.00    +0.000 HD
ENDBRANCH  12  14
ENDBRANCH   3  12
BRANCH   5  16
ATOM     16  N   UNL     1       7.032   6.582  18.242  0.00  0.00    +0.000 NA
ATOM     17  H   UNL     1       7.912   6.326  18.691  0.00  0.00    +0.000 HD
BRANCH  16  18
ATOM     18  C   UNL     1       7.235   7.775  17.392  0.00  0.00    +0.000 C 
BRANCH  18  19
ATOM     19  C   UNL     1       8.146   8.841  17.952  0.00  0.00    +0.000 A 
ATOM     20  N   UNL     1       8.820   8.661  19.099  0.00  0.00    +0.000 NA
ATOM     21  O   UNL     1       9.422   9.904  19.324  0.00  0.00    +0.000 OA
ATOM     22  C   UNL     1       9.056  10.712  18.284  0.00  0.00    +0.000 A 
ATOM     23  N   UNL     1       8.275  10.104  17.414  0.00  0.00    +0.000 NA
BRANCH  22  24
ATOM     24  C   UNL     1       9.565  12.087  18.279  0.00  0.00    +0.000 A 
ATOM     25  C   UNL     1      10.718  12.480  17.571  0.00  0.00    +0.000 A 
ATOM     26  C   UNL     1      11.147  13.818  17.579  0.00  0.00    +0.000 A 
ATOM     27  C   UNL     1      10.448  14.781  18.297  0.00  0.00    +0.000 A 
ATOM     28  C   UNL     1       9.304  14.398  19.008  0.00  0.00    +0.000 A 
ATOM     29  C   UNL     1       8.868  13.061  19.006  0.00  0.00    +0.000 A 
BRANCH  28  30
ATOM     30  N   UNL     1       8.542  15.403  19.764  0.00  0.00    +0.000 N 
ATOM     31  O   UNL     1       7.411  15.086  20.162  0.00  0.00    +0.000 OA
ATOM     32  O   UNL     1       9.074  16.503  19.964  0.00  0.00    +0.000 OA
ENDBRANCH  28  30
ENDBRANCH  22  24
ENDBRANCH  18  19
ENDBRANCH  16  18
ENDBRANCH   5  16
BRANCH   1  33
ATOM     33  O   UNL     1       3.724   7.000  18.140  0.00  0.00    +0.000 OA
BRANCH  33  34
ATOM     34  C   UNL     1       2.385   7.434  18.436  0.00  0.00    +0.000 C 
BRANCH  34  36
ATOM     35  C   UNL     1       1.688   6.253  20.652  0.00  0.00    +0.000 C 
ATOM     36  C   UNL     1       2.114   7.531  19.952  0.00  0.00    +0.000 C 
ENDBRANCH  34  36
BRANCH  34  37
ATOM     37  C   UNL     1       2.214   8.807  17.745  0.00  0.00    +0.000 C 
ATOM     38  C   UNL     1       0.964   9.574  18.177  0.00  0.00    +0.000 C 
ENDBRANCH  34  37
ENDBRANCH  33  34
ENDBRANCH   1  33
TORSDOF 12
ENDMDL
MODEL 4
REMARK VINA RESULT:      -7.9      3.914      7.142
REMARK  Name = 
REMARK  15 active torsions:
REMARK  status: ('A' for Active; 'I' for Inactive)
REMARK    1  A    between atoms: C_1  and  C_2
REMARK    2  A    between atoms: C_2  and  C_3
REMARK    3  A    between atoms: C_3  and  C_4
REMARK    4  A    between atoms: C_3  and  O_6
REMARK    5  A    between atoms: C_4  and  C_5
REMARK    6  A    between atoms: O_6  and  C_7
REMARK    7  A    between atoms: C_9  and  C_10
REMARK    8  A    between atoms: C_10  and  O_12
REMARK    9  A    between atoms: C_14  and  N_15
REMARK   10  A    between atoms: N_15  and  C_16
REMARK   11  A    between atoms: C_16  and  C_17
REMARK   12  A    between atoms: C_20  and  C_21
REMARK   13  A    between atoms: C_25  and  N_26
REMARK   14  A    between atoms: C_31  and  N_32
REMARK   15  A    between atoms: C_33  and  C_34
REMARK                            x       y       z     vdW  Elec       q    Type
REMARK                         _______ _______ _______ _____ _____    ______ ____
ROOT
ATOM      1  C   UNL     1       5.619   4.169  17.049  0.00  0.00    +0.000 C 
ATOM      2  C   UNL     1       6.698   4.618  17.979  0.00  0.00    +0.000 C 
ATOM      3  C   UNL     1       6.989   5.912  18.179  0.00  0.00    +0.000 C 
ATOM      4  C   UNL     1       6.300   7.032  17.430  0.00  0.00    +0.000 C 
ATOM      5  C   UNL     1       5.255   6.651  16.335  0.00  0.00    +0.000 C 
ATOM      6  C   UNL     1       5.406   5.161  15.866  0.00  0.00    +0.000 C 
ENDROOT
BRANCH   6   7
ATOM      7  N   UNL     1       6.493   5.115  14.859  0.00  0.00    +0.000 N 
ATOM      8  C   UNL     1       6.393   4.470  13.652  0.00  0.00    +0.000 C 
ATOM      9  C   UNL     1       7.581   4.691  12.753  0.00  0.00    +0.000 C 
ATOM     10  O   UNL     1       5.456   3.752  13.329  0.00  0.00    +0.000 OA
ATOM     11  H   UNL     1       7.165   5.871  14.892  0.00  0.00    +0.000 HD
ENDBRANCH   6   7
BRANCH   3  12
ATOM     12  C   UNL     1       8.087   6.319  19.093  0.00  0.00    +0.000 C 
ATOM     13  O   UNL     1       8.603   7.425  19.046  0.00  0.00    +0.000 OA
BRANCH  12  14
ATOM     14  O   UNL     1       8.449   5.389  20.000  0.00  0.00    +0.000 OA
ATOM     15  H   UNL     1       9.068   4.712  19.668  0.00  0.00    +0.000 HD
ENDBRANCH  12  14
ENDBRANCH   3  12
BRANCH   5  16
ATOM     16  N   UNL     1       3.841   6.973  16.602  0.00  0.00    +0.000 NA
ATOM     17  H   UNL     1       3.233   6.375  16.041  0.00  0.00    +0.000 HD
BRANCH  16  18
ATOM     18  C   UNL     1       3.413   6.929  18.017  0.00  0.00    +0.000 C 
BRANCH  18  19
ATOM     19  C   UNL     1       2.420   7.984  18.442  0.00  0.00    +0.000 A 
ATOM     20  N   UNL     1       2.059   8.985  17.623  0.00  0.00    +0.000 NA
ATOM     21  O   UNL     1       1.250   9.792  18.429  0.00  0.00    +0.000 OA
ATOM     22  C   UNL     1       1.196   9.195  19.657  0.00  0.00    +0.000 A 
ATOM     23  N   UNL     1       1.896   8.080  19.714  0.00  0.00    +0.000 NA
BRANCH  22  24
ATOM     24  C   UNL     1       0.396   9.850  20.697  0.00  0.00    +0.000 A 
ATOM     25  C   UNL     1       0.259   9.336  22.002  0.00  0.00    +0.000 A 
ATOM     26  C   UNL     1      -0.498  10.018  22.969  0.00  0.00    +0.000 A 
ATOM     27  C   UNL     1      -1.138  11.211  22.654  0.00  0.00    +0.000 A 
ATOM     28  C   UNL     1      -1.011  11.727  21.357  0.00  0.00    +0.000 A 
ATOM     29  C   UNL     1      -0.256  11.049  20.383  0.00  0.00    +0.000 A 
BRANCH  28  30
ATOM     30  N   UNL     1      -1.669  12.994  21.006  0.00  0.00    +0.000 N 
ATOM     31  O   UNL     1      -2.620  13.361  21.711  0.00  0.00    +0.000 OA
ATOM     32  O   UNL     1      -1.233  13.622  20.031  0.00  0.00    +0.000 OA
ENDBRANCH  28  30
ENDBRANCH  22  24
ENDBRANCH  18  19
ENDBRANCH  16  18
ENDBRANCH   5  16
BRANCH   1  33
ATOM     33  O   UNL     1       4.499   3.980  17.920  0.00  0.00    +0.000 OA
BRANCH  33  34
ATOM     34  C   UNL     1       3.621   2.865  17.690  0.00  0.00    +0.000 C 
BRANCH  34  36
ATOM     35  C   UNL     1       4.519   2.182  20.039  0.00  0.00    +0.000 C 
ATOM     36  C   UNL     1       3.612   1.864  18.864  0.00  0.00    +0.000 C 
ENDBRANCH  34  36
BRANCH  34  37
ATOM     37  C   UNL     1       2.216   3.465  17.449  0.00  0.00    +0.000 C 
ATOM     38  C   UNL     1       1.224   3.211  18.585  0.00  0.00    +0.000 C 
ENDBRANCH  34  37
ENDBRANCH  33  34
ENDBRANCH   1  33
TORSDOF 12
ENDMDL
MODEL 5
REMARK VINA RESULT:      -7.8      0.693      1.278
REMARK  Name = 
REMARK  15 active torsions:
REMARK  status: ('A' for Active; 'I' for Inactive)
REMARK    1  A    between atoms: C_1  and  C_2
REMARK    2  A    between atoms: C_2  and  C_3
REMARK    3  A    between atoms: C_3  and  C_4
REMARK    4  A    between atoms: C_3  and  O_6
REMARK    5  A    between atoms: C_4  and  C_5
REMARK    6  A    between atoms: O_6  and  C_7
REMARK    7  A    between atoms: C_9  and  C_10
REMARK    8  A    between atoms: C_10  and  O_12
REMARK    9  A    between atoms: C_14  and  N_15
REMARK   10  A    between atoms: N_15  and  C_16
REMARK   11  A    between atoms: C_16  and  C_17
REMARK   12  A    between atoms: C_20  and  C_21
REMARK   13  A    between atoms: C_25  and  N_26
REMARK   14  A    between atoms: C_31  and  N_32
REMARK   15  A    between atoms: C_33  and  C_34
REMARK                            x       y       z     vdW  Elec       q    Type
REMARK                         _______ _______ _______ _____ _____    ______ ____
ROOT
ATOM      1  C   UNL     1       3.394   5.908  17.978  0.00  0.00    +0.000 C 
ATOM      2  C   UNL     1       2.619   4.719  18.443  0.00  0.00    +0.000 C 
ATOM      3  C   UNL     1       3.209   3.600  18.889  0.00  0.00    +0.000 C 
ATOM      4  C   UNL     1       4.710   3.412  18.898  0.00  0.00    +0.000 C 
ATOM      5  C   UNL     1       5.597   4.549  18.300  0.00  0.00    +0.000 C 
ATOM      6  C   UNL     1       4.776   5.515  17.375  0.00  0.00    +0.000 C 
ENDROOT
BRANCH   6   7
ATOM      7  N   UNL     1       4.673   4.879  16.040  0.00  0.00    +0.000 N 
ATOM      8  C   UNL     1       5.598   5.041  15.039  0.00  0.00    +0.000 C 
ATOM      9  C   UNL     1       5.336   4.178  13.833  0.00  0.00    +0.000 C 
ATOM     10  O   UNL     1       6.532   5.831  15.085  0.00  0.00    +0.000 OA
ATOM     11  H   UNL     1       4.129   4.027  15.992  0.00  0.00    +0.000 HD
ENDBRANCH   6   7
BRANCH   3  12
ATOM     12  C   UNL     1       2.404   2.428  19.319  0.00  0.00    +0.000 C 
ATOM     13  O   UNL     1       2.198   2.170  20.495  0.00  0.00    +0.000 OA
BRANCH  12  14
ATOM     14  O   UNL     1       1.888   1.689  18.314  0.00  0.00    +0.000 OA
ATOM     15  H   UNL     1       2.290   0.807  18.207  0.00  0.00    +0.000 HD
ENDBRANCH  12  14
ENDBRANCH   3  12
BRANCH   5  16
ATOM     16  N   UNL     1       6.443   5.315  19.234  0.00  0.00    +0.000 NA
ATOM     17  H   UNL     1       6.549   4.804  20.111  0.00  0.00    +0.000 HD
BRANCH  16  18
ATOM     18  C   UNL     1       7.771   5.725  18.732  0.00  0.00    +0.000 C 
BRANCH  18  19
ATOM     19  C   UNL     1       7.938   7.192  18.415  0.00  0.00    +0.000 A 
ATOM     20  N   UNL     1       7.425   7.735  17.300  0.00  0.00    +0.000 NA
ATOM     21  O   UNL     1       7.908   9.048  17.323  0.00  0.00    +0.000 OA
ATOM     22  C   UNL     1       8.664   9.170  18.455  0.00  0.00    +0.000 A 
ATOM     23  N   UNL     1       8.710   8.057  19.161  0.00  0.00    +0.000 NA
BRANCH  22  24
ATOM     24  C   UNL     1       9.290  10.469  18.719  0.00  0.00    +0.000 A 
ATOM     25  C   UNL     1       9.972  11.209  17.733  0.00  0.00    +0.000 A 
ATOM     26  C   UNL     1      10.532  12.463  18.033  0.00  0.00    +0.000 A 
ATOM     27  C   UNL     1      10.431  12.995  19.313  0.00  0.00    +0.000 A 
ATOM     28  C   UNL     1       9.758  12.263  20.300  0.00  0.00    +0.000 A 
ATOM     29  C   UNL     1       9.197  11.007  20.009  0.00  0.00    +0.000 A 
BRANCH  28  30
ATOM     30  N   UNL     1       9.629  12.813  21.658  0.00  0.00    +0.000 N 
ATOM     31  O   UNL     1      10.100  13.939  21.868  0.00  0.00    +0.000 OA
ATOM     32  O   UNL     1       9.053  12.122  22.510  0.00  0.00    +0.000 OA
ENDBRANCH  28  30
ENDBRANCH  22  24
ENDBRANCH  18  19
ENDBRANCH  16  18
ENDBRANCH   5  16
BRANCH   1  33
ATOM     33  O   UNL     1       3.430   6.744  19.139  0.00  0.00    +0.000 OA
BRANCH  33  34
ATOM     34  C   UNL     1       2.527   7.861  19.219  0.00  0.00    +0.000 C 
BRANCH  34  36
ATOM     35  C   UNL     1       1.084   9.501  17.798  0.00  0.00    +0.000 C 
ATOM     36  C   UNL     1       1.928   8.240  17.848  0.00  0.00    +0.000 C 
ENDBRANCH  34  36
BRANCH  34  37
ATOM     37  C   UNL     1       1.424   7.453  20.223  0.00  0.00    +0.000 C 
ATOM     38  C   UNL     1       1.218   8.448  21.365  0.00  0.00    +0.000 C 
ENDBRANCH  34  37
ENDBRANCH  33  34
ENDBRANCH   1  33
TORSDOF 12
ENDMDL
MODEL 6
REMARK VINA RESULT:      -7.7      1.613      2.203
REMARK  Name = 
REMARK  15 active torsions:
REMARK  status: ('A' for Active; 'I' for Inactive)
REMARK    1  A    between atoms: C_1  and  C_2
REMARK    2  A    between atoms: C_2  and  C_3
REMARK    3  A    between atoms: C_3  and  C_4
REMARK    4  A    between atoms: C_3  and  O_6
REMARK    5  A    between atoms: C_4  and  C_5
REMARK    6  A    between atoms: O_6  and  C_7
REMARK    7  A    between atoms: C_9  and  C_10
REMARK    8  A    between atoms: C_10  and  O_12
REMARK    9  A    between atoms: C_14  and  N_15
REMARK   10  A    between atoms: N_15  and  C_16
REMARK   11  A    between atoms: C_16  and  C_17
REMARK   12  A    between atoms: C_20  and  C_21
REMARK   13  A    between atoms: C_25  and  N_26
REMARK   14  A    between atoms: C_31  and  N_32
REMARK   15  A    between atoms: C_33  and  C_34
REMARK                            x       y       z     vdW  Elec       q    Type
REMARK                         _______ _______ _______ _____ _____    ______ ____
ROOT
ATOM      1  C   UNL     1       3.444   5.867  17.844  0.00  0.00    +0.000 C 
ATOM      2  C   UNL     1       2.718   4.637  18.282  0.00  0.00    +0.000 C 
ATOM      3  C   UNL     1       3.353   3.529  18.691  0.00  0.00    +0.000 C 
ATOM      4  C   UNL     1       4.860   3.397  18.681  0.00  0.00    +0.000 C 
ATOM      5  C   UNL     1       5.699   4.582  18.108  0.00  0.00    +0.000 C 
ATOM      6  C   UNL     1       4.834   5.542  17.218  0.00  0.00    +0.000 C 
ENDROOT
BRANCH   6   7
ATOM      7  N   UNL     1       4.741   4.940  15.866  0.00  0.00    +0.000 N 
ATOM      8  C   UNL     1       5.772   4.927  14.960  0.00  0.00    +0.000 C 
ATOM      9  C   UNL     1       5.469   4.132  13.718  0.00  0.00    +0.000 C 
ATOM     10  O   UNL     1       6.829   5.527  15.108  0.00  0.00    +0.000 OA
ATOM     11  H   UNL     1       4.054   4.206  15.751  0.00  0.00    +0.000 HD
ENDBRANCH   6   7
BRANCH   3  12
ATOM     12  C   UNL     1       2.596   2.316  19.094  0.00  0.00    +0.000 C 
ATOM     13  O   UNL     1       2.719   1.245  18.519  0.00  0.00    +0.000 OA
BRANCH  12  14
ATOM     14  O   UNL     1       1.789   2.476  20.164  0.00  0.00    +0.000 OA
ATOM     15  H   UNL     1       2.213   2.891  20.938  0.00  0.00    +0.000 HD
ENDBRANCH  12  14
ENDBRANCH   3  12
BRANCH   5  16
ATOM     16  N   UNL     1       6.525   5.353  19.056  0.00  0.00    +0.000 NA
ATOM     17  H   UNL     1       6.652   4.825  19.920  0.00  0.00    +0.000 HD
BRANCH  16  18
ATOM     18  C   UNL     1       7.837   5.816  18.557  0.00  0.00    +0.000 C 
BRANCH  18  19
ATOM     19  C   UNL     1       8.001   7.309  18.406  0.00  0.00    +0.000 A 
ATOM     20  N   UNL     1       7.479   7.973  17.362  0.00  0.00    +0.000 NA
ATOM     21  O   UNL     1       7.961   9.276  17.527  0.00  0.00    +0.000 OA
ATOM     22  C   UNL     1       8.724   9.272  18.661  0.00  0.00    +0.000 A 
ATOM     23  N   UNL     1       8.777   8.088  19.238  0.00  0.00    +0.000 NA
BRANCH  22  24
ATOM     24  C   UNL     1       9.351  10.535  19.064  0.00  0.00    +0.000 A 
ATOM     25  C   UNL     1       9.662  10.849  20.402  0.00  0.00    +0.000 A 
ATOM     26  C   UNL     1      10.287  12.064  20.729  0.00  0.00    +0.000 A 
ATOM     27  C   UNL     1      10.603  12.987  19.739  0.00  0.00    +0.000 A 
ATOM     28  C   UNL     1      10.292  12.685  18.407  0.00  0.00    +0.000 A 
ATOM     29  C   UNL     1       9.665  11.472  18.071  0.00  0.00    +0.000 A 
BRANCH  28  30
ATOM     30  N   UNL     1      10.628  13.641  17.342  0.00  0.00    +0.000 N 
ATOM     31  O   UNL     1      11.405  13.261  16.454  0.00  0.00    +0.000 OA
ATOM     32  O   UNL     1      10.114  14.767  17.391  0.00  0.00    +0.000 OA
ENDBRANCH  28  30
ENDBRANCH  22  24
ENDBRANCH  18  19
ENDBRANCH  16  18
ENDBRANCH   5  16
BRANCH   1  33
ATOM     33  O   UNL     1       3.461   6.671  19.027  0.00  0.00    +0.000 OA
BRANCH  33  34
ATOM     34  C   UNL     1       2.734   7.912  19.034  0.00  0.00    +0.000 C 
BRANCH  34  36
ATOM     35  C   UNL     1       0.987   9.332  17.722  0.00  0.00    +0.000 C 
ATOM     36  C   UNL     1       1.895   8.116  17.755  0.00  0.00    +0.000 C 
ENDBRANCH  34  36
BRANCH  34  37
ATOM     37  C   UNL     1       1.839   7.880  20.296  0.00  0.00    +0.000 C 
ATOM     38  C   UNL     1       1.430   6.475  20.738  0.00  0.00    +0.000 C 
ENDBRANCH  34  37
ENDBRANCH  33  34
ENDBRANCH   1  33
TORSDOF 12
ENDMDL
MODEL 7
REMARK VINA RESULT:      -7.7      5.433      9.805
REMARK  Name = 
REMARK  15 active torsions:
REMARK  status: ('A' for Active; 'I' for Inactive)
REMARK    1  A    between atoms: C_1  and  C_2
REMARK    2  A    between atoms: C_2  and  C_3
REMARK    3  A    between atoms: C_3  and  C_4
REMARK    4  A    between atoms: C_3  and  O_6
REMARK    5  A    between atoms: C_4  and  C_5
REMARK    6  A    between atoms: O_6  and  C_7
REMARK    7  A    between atoms: C_9  and  C_10
REMARK    8  A    between atoms: C_10  and  O_12
REMARK    9  A    between atoms: C_14  and  N_15
REMARK   10  A    between atoms: N_15  and  C_16
REMARK   11  A    between atoms: C_16  and  C_17
REMARK   12  A    between atoms: C_20  and  C_21
REMARK   13  A    between atoms: C_25  and  N_26
REMARK   14  A    between atoms: C_31  and  N_32
REMARK   15  A    between atoms: C_33  and  C_34
REMARK                            x       y       z     vdW  Elec       q    Type
REMARK                         _______ _______ _______ _____ _____    ______ ____
ROOT
ATOM      1  C   UNL     1      -1.645  12.785  20.384  0.00  0.00    +0.000 C 
ATOM      2  C   UNL     1      -2.804  12.284  19.585  0.00  0.00    +0.000 C 
ATOM      3  C   UNL     1      -2.676  11.831  18.329  0.00  0.00    +0.000 C 
ATOM      4  C   UNL     1      -1.361  11.848  17.582  0.00  0.00    +0.000 C 
ATOM      5  C   UNL     1      -0.122  12.483  18.288  0.00  0.00    +0.000 C 
ATOM      6  C   UNL     1      -0.533  13.408  19.487  0.00  0.00    +0.000 C 
ENDROOT
BRANCH   6   7
ATOM      7  N   UNL     1      -0.905  14.730  18.927  0.00  0.00    +0.000 N 
ATOM      8  C   UNL     1      -0.099  15.840  18.982  0.00  0.00    +0.000 C 
ATOM      9  C   UNL     1      -0.646  17.017  18.218  0.00  0.00    +0.000 C 
ATOM     10  O   UNL     1       0.947  15.902  19.614  0.00  0.00    +0.000 OA
ATOM     11  H   UNL     1      -1.580  14.722  18.173  0.00  0.00    +0.000 HD
ENDBRANCH   6   7
BRANCH   3  12
ATOM     12  C   UNL     1      -3.857  11.365  17.558  0.00  0.00    +0.000 C 
ATOM     13  O   UNL     1      -4.105  10.181  17.390  0.00  0.00    +0.000 OA
BRANCH  12  14
ATOM     14  O   UNL     1      -4.654  12.346  17.086  0.00  0.00    +0.000 OA
ATOM     15  H   UNL     1      -5.567  12.332  17.429  0.00  0.00    +0.000 HD
ENDBRANCH  12  14
ENDBRANCH   3  12
BRANCH   5  16
ATOM     16  N   UNL     1       0.976  11.579  18.681  0.00  0.00    +0.000 NA
ATOM     17  H   UNL     1       1.544  12.014  19.408  0.00  0.00    +0.000 HD
BRANCH  16  18
ATOM     18  C   UNL     1       0.586  10.217  19.101  0.00  0.00    +0.000 C 
BRANCH  18  19
ATOM     19  C   UNL     1       1.551   9.111  18.747  0.00  0.00    +0.000 A 
ATOM     20  N   UNL     1       2.203   9.093  17.573  0.00  0.00    +0.000 NA
ATOM     21  O   UNL     1       2.873   7.866  17.589  0.00  0.00    +0.000 OA
ATOM     22  C   UNL     1       2.564   7.263  18.776  0.00  0.00    +0.000 A 
ATOM     23  N   UNL     1       1.757   7.991  19.523  0.00  0.00    +0.000 NA
BRANCH  22  24
ATOM     24  C   UNL     1       3.151   5.947  19.044  0.00  0.00    +0.000 A 
ATOM     25  C   UNL     1       4.374   5.521  18.488  0.00  0.00    +0.000 A 
ATOM     26  C   UNL     1       4.905   4.258  18.800  0.00  0.00    +0.000 A 
ATOM     27  C   UNL     1       4.228   3.397  19.656  0.00  0.00    +0.000 A 
ATOM     28  C   UNL     1       3.009   3.811  20.209  0.00  0.00    +0.000 A 
ATOM     29  C   UNL     1       2.470   5.072  19.901  0.00  0.00    +0.000 A 
BRANCH  28  30
ATOM     30  N   UNL     1       2.283   2.921  21.127  0.00  0.00    +0.000 N 
ATOM     31  O   UNL     1       2.945   2.310  21.977  0.00  0.00    +0.000 OA
ATOM     32  O   UNL     1       1.053   2.839  21.001  0.00  0.00    +0.000 OA
ENDBRANCH  28  30
ENDBRANCH  22  24
ENDBRANCH  18  19
ENDBRANCH  16  18
ENDBRANCH   5  16
BRANCH   1  33
ATOM     33  O   UNL     1      -1.264  11.640  21.152  0.00  0.00    +0.000 OA
BRANCH  33  34
ATOM     34  C   UNL     1      -0.927  11.815  22.539  0.00  0.00    +0.000 C 
BRANCH  34  36
ATOM     35  C   UNL     1      -3.254  12.337  23.590  0.00  0.00    +0.000 C 
ATOM     36  C   UNL     1      -1.855  12.820  23.254  0.00  0.00    +0.000 C 
ENDBRANCH  34  36
BRANCH  34  37
ATOM     37  C   UNL     1      -1.013  10.412  23.185  0.00  0.00    +0.000 C 
ATOM     38  C   UNL     1       0.140   9.480  22.812  0.00  0.00    +0.000 C 
ENDBRANCH  34  37
ENDBRANCH  33  34
ENDBRANCH   1  33
TORSDOF 12
ENDMDL
MODEL 8
REMARK VINA RESULT:      -7.6      5.225      9.471
REMARK  Name = 
REMARK  15 active torsions:
REMARK  status: ('A' for Active; 'I' for Inactive)
REMARK    1  A    between atoms: C_1  and  C_2
REMARK    2  A    between atoms: C_2  and  C_3
REMARK    3  A    between atoms: C_3  and  C_4
REMARK    4  A    between atoms: C_3  and  O_6
REMARK    5  A    between atoms: C_4  and  C_5
REMARK    6  A    between atoms: O_6  and  C_7
REMARK    7  A    between atoms: C_9  and  C_10
REMARK    8  A    between atoms: C_10  and  O_12
REMARK    9  A    between atoms: C_14  and  N_15
REMARK   10  A    between atoms: N_15  and  C_16
REMARK   11  A    between atoms: C_16  and  C_17
REMARK   12  A    between atoms: C_20  and  C_21
REMARK   13  A    between atoms: C_25  and  N_26
REMARK   14  A    between atoms: C_31  and  N_32
REMARK   15  A    between atoms: C_33  and  C_34
REMARK                            x       y       z     vdW  Elec       q    Type
REMARK                         _______ _______ _______ _____ _____    ______ ____
ROOT
ATOM      1  C   UNL     1      -2.012  12.755  20.402  0.00  0.00    +0.000 C 
ATOM      2  C   UNL     1      -2.967  12.221  19.385  0.00  0.00    +0.000 C 
ATOM      3  C   UNL     1      -2.565  11.714  18.210  0.00  0.00    +0.000 C 
ATOM      4  C   UNL     1      -1.115  11.698  17.778  0.00  0.00    +0.000 C 
ATOM      5  C   UNL     1      -0.060  12.363  18.717  0.00  0.00    +0.000 C 
ATOM      6  C   UNL     1      -0.721  13.339  19.752  0.00  0.00    +0.000 C 
ENDROOT
BRANCH   6   7
ATOM      7  N   UNL     1      -0.945  14.636  19.068  0.00  0.00    +0.000 N 
ATOM      8  C   UNL     1      -0.062  15.686  19.108  0.00  0.00    +0.000 C 
ATOM      9  C   UNL     1      -0.455  16.835  18.218  0.00  0.00    +0.000 C 
ATOM     10  O   UNL     1       0.934  15.724  19.819  0.00  0.00    +0.000 OA
ATOM     11  H   UNL     1      -1.558  14.616  18.263  0.00  0.00    +0.000 HD
ENDBRANCH   6   7
BRANCH   3  12
ATOM     12  C   UNL     1      -3.546  11.215  17.213  0.00  0.00    +0.000 C 
ATOM     13  O   UNL     1      -3.584  10.047  16.858  0.00  0.00    +0.000 OA
BRANCH  12  14
ATOM     14  O   UNL     1      -4.415  12.140  16.755  0.00  0.00    +0.000 OA
ATOM     15  H   UNL     1      -5.269  12.168  17.225  0.00  0.00    +0.000 HD
ENDBRANCH  12  14
ENDBRANCH   3  12
BRANCH   5  16
ATOM     16  N   UNL     1       0.912  11.477  19.384  0.00  0.00    +0.000 NA
ATOM     17  H   UNL     1       1.026  11.753  20.360  0.00  0.00    +0.000 HD
BRANCH  16  18
ATOM     18  C   UNL     1       0.640  10.026  19.305  0.00  0.00    +0.000 C 
BRANCH  18  19
ATOM     19  C   UNL     1       1.666   9.198  18.567  0.00  0.00    +0.000 A 
ATOM     20  N   UNL     1       2.176   9.593  17.390  0.00  0.00    +0.000 NA
ATOM     21  O   UNL     1       2.964   8.507  16.993  0.00  0.00    +0.000 OA
ATOM     22  C   UNL     1       2.856   7.564  17.976  0.00  0.00    +0.000 A 
ATOM     23  N   UNL     1       2.072   7.943  18.965  0.00  0.00    +0.000 NA
BRANCH  22  24
ATOM     24  C   UNL     1       3.601   6.312  17.802  0.00  0.00    +0.000 A 
ATOM     25  C   UNL     1       3.264   5.116  18.465  0.00  0.00    +0.000 A 
ATOM     26  C   UNL     1       3.995   3.937  18.241  0.00  0.00    +0.000 A 
ATOM     27  C   UNL     1       5.075   3.931  17.366  0.00  0.00    +0.000 A 
ATOM     28  C   UNL     1       5.420   5.117  16.706  0.00  0.00    +0.000 A 
ATOM     29  C   UNL     1       4.694   6.301  16.926  0.00  0.00    +0.000 A 
BRANCH  28  30
ATOM     30  N   UNL     1       6.552   5.130  15.767  0.00  0.00    +0.000 N 
ATOM     31  O   UNL     1       7.679   4.893  16.224  0.00  0.00    +0.000 OA
ATOM     32  O   UNL     1       6.312   5.370  14.575  0.00  0.00    +0.000 OA
ENDBRANCH  28  30
ENDBRANCH  22  24
ENDBRANCH  18  19
ENDBRANCH  16  18
ENDBRANCH   5  16
BRANCH   1  33
ATOM     33  O   UNL     1      -1.824  11.645  21.284  0.00  0.00    +0.000 OA
BRANCH  33  34
ATOM     34  C   UNL     1      -1.243  11.877  22.578  0.00  0.00    +0.000 C 
BRANCH  34  36
ATOM     35  C   UNL     1      -3.476  12.551  23.740  0.00  0.00    +0.000 C 
ATOM     36  C   UNL     1      -2.037  12.905  23.411  0.00  0.00    +0.000 C 
ENDBRANCH  34  36
BRANCH  34  37
ATOM     37  C   UNL     1      -1.192  10.500  23.282  0.00  0.00    +0.000 C 
ATOM     38  C   UNL     1       0.067   9.688  22.979  0.00  0.00    +0.000 C 
ENDBRANCH  34  37
ENDBRANCH  33  34
ENDBRANCH   1  33
TORSDOF 12
ENDMDL
MODEL 9
REMARK VINA RESULT:      -7.6      5.093      9.331
REMARK  Name = 
REMARK  15 active torsions:
REMARK  status: ('A' for Active; 'I' for Inactive)
REMARK    1  A    between atoms: C_1  and  C_2
REMARK    2  A    between atoms: C_2  and  C_3
REMARK    3  A    between atoms: C_3  and  C_4
REMARK    4  A    between atoms: C_3  and  O_6
REMARK    5  A    between atoms: C_4  and  C_5
REMARK    6  A    between atoms: O_6  and  C_7
REMARK    7  A    between atoms: C_9  and  C_10
REMARK    8  A    between atoms: C_10  and  O_12
REMARK    9  A    between atoms: C_14  and  N_15
REMARK   10  A    between atoms: N_15  and  C_16
REMARK   11  A    between atoms: C_16  and  C_17
REMARK   12  A    between atoms: C_20  and  C_21
REMARK   13  A    between atoms: C_25  and  N_26
REMARK   14  A    between atoms: C_31  and  N_32
REMARK   15  A    between atoms: C_33  and  C_34
REMARK                            x       y       z     vdW  Elec       q    Type
REMARK                         _______ _______ _______ _____ _____    ______ ____
ROOT
ATOM      1  C   UNL     1      -1.480  13.238  19.140  0.00  0.00    +0.000 C 
ATOM      2  C   UNL     1      -1.295  13.097  20.615  0.00  0.00    +0.000 C 
ATOM      3  C   UNL     1      -0.959  11.935  21.195  0.00  0.00    +0.000 C 
ATOM      4  C   UNL     1      -0.803  10.646  20.418  0.00  0.00    +0.000 C 
ATOM      5  C   UNL     1      -1.114  10.667  18.888  0.00  0.00    +0.000 C 
ATOM      6  C   UNL     1      -1.971  11.915  18.476  0.00  0.00    +0.000 C 
ENDROOT
BRANCH   6   7
ATOM      7  N   UNL     1      -3.390  11.603  18.770  0.00  0.00    +0.000 N 
ATOM      8  C   UNL     1      -4.353  11.434  17.808  0.00  0.00    +0.000 C 
ATOM      9  C   UNL     1      -5.681  10.985  18.359  0.00  0.00    +0.000 C 
ATOM     10  O   UNL     1      -4.185  11.656  16.616  0.00  0.00    +0.000 OA
ATOM     11  H   UNL     1      -3.571  11.139  19.651  0.00  0.00    +0.000 HD
ENDBRANCH   6   7
BRANCH   3  12
ATOM     12  C   UNL     1      -0.809  11.828  22.669  0.00  0.00    +0.000 C 
ATOM     13  O   UNL     1      -1.186  12.705  23.431  0.00  0.00    +0.000 OA
BRANCH  12  14
ATOM     14  O   UNL     1      -0.258  10.677  23.106  0.00  0.00    +0.000 OA
ATOM     15  H   UNL     1      -0.582  10.371  23.973  0.00  0.00    +0.000 HD
ENDBRANCH  12  14
ENDBRANCH   3  12
BRANCH   5  16
ATOM     16  N   UNL     1       0.018  10.483  17.961  0.00  0.00    +0.000 NA
ATOM     17  H   UNL     1       0.048  11.249  17.287  0.00  0.00    +0.000 HD
BRANCH  16  18
ATOM     18  C   UNL     1       1.350  10.309  18.577  0.00  0.00    +0.000 C 
BRANCH  18  19
ATOM     19  C   UNL     1       1.858   8.890  18.673  0.00  0.00    +0.000 A 
ATOM     20  N   UNL     1       1.764   8.183  19.810  0.00  0.00    +0.000 NA
ATOM     21  O   UNL     1       2.454   7.002  19.520  0.00  0.00    +0.000 OA
ATOM     22  C   UNL     1       2.893   7.109  18.230  0.00  0.00    +0.000 A 
ATOM     23  N   UNL     1       2.549   8.250  17.667  0.00  0.00    +0.000 NA
BRANCH  22  24
ATOM     24  C   UNL     1       3.652   5.985  17.674  0.00  0.00    +0.000 A 
ATOM     25  C   UNL     1       3.155   4.667  17.628  0.00  0.00    +0.000 A 
ATOM     26  C   UNL     1       3.914   3.631  17.059  0.00  0.00    +0.000 A 
ATOM     27  C   UNL     1       5.179   3.883  16.539  0.00  0.00    +0.000 A 
ATOM     28  C   UNL     1       5.683   5.189  16.586  0.00  0.00    +0.000 A 
ATOM     29  C   UNL     1       4.930   6.232  17.155  0.00  0.00    +0.000 A 
BRANCH  28  30
ATOM     30  N   UNL     1       7.012   5.481  16.031  0.00  0.00    +0.000 N 
ATOM     31  O   UNL     1       7.598   6.491  16.445  0.00  0.00    +0.000 OA
ATOM     32  O   UNL     1       7.471   4.699  15.186  0.00  0.00    +0.000 OA
ENDBRANCH  28  30
ENDBRANCH  22  24
ENDBRANCH  18  19
ENDBRANCH  16  18
ENDBRANCH   5  16
BRANCH   1  33
ATOM     33  O   UNL     1      -0.210  13.728  18.700  0.00  0.00    +0.000 OA
BRANCH  33  34
ATOM     34  C   UNL     1       0.659  14.359  19.655  0.00  0.00    +0.000 C 
BRANCH  34  36
ATOM     35  C   UNL     1       2.915  13.863  20.863  0.00  0.00    +0.000 C 
ATOM     36  C   UNL     1       2.109  13.835  19.577  0.00  0.00    +0.000 C 
ENDBRANCH  34  36
BRANCH  34  37
ATOM     37  C   UNL     1       0.592  15.877  19.364  0.00  0.00    +0.000 C 
ATOM     38  C   UNL     1       1.632  16.367  18.356  0.00  0.00    +0.000 C 
ENDBRANCH  34  37
ENDBRANCH  33  34
ENDBRANCH   1  33
TORSDOF 12
ENDMDL
