MODEL 1
REMARK VINA RESULT:      -7.2      0.000      0.000
REMARK  Name = 
REMARK  3 active torsions:
REMARK  status: ('A' for Active; 'I' for Inactive)
REMARK    1  A    between atoms: C_1  and  C_2
REMARK    2  A    between atoms: C_2  and  C_3
REMARK    3  A    between atoms: N_10  and  C_11
REMARK                            x       y       z     vdW  Elec       q    Type
REMARK                         _______ _______ _______ _____ _____    ______ ____
ROOT
ATOM      1  C   UNL     1       2.995   4.668  19.618  0.00  0.00    +0.000 C 
ATOM      2  N   UNL     1       2.157   4.355  20.773  0.00  0.00    +0.000 NA
ATOM      3  C   UNL     1       2.319   3.215  21.336  0.00  0.00    +0.000 C 
ATOM      4  N   UNL     1       1.521   2.899  22.383  0.00  0.00    +0.000 N 
ATOM      5  N   UNL     1       3.260   2.300  21.001  0.00  0.00    +0.000 NA
ATOM      6  C   UNL     1       4.062   2.563  20.018  0.00  0.00    +0.000 C 
ATOM      7  N   UNL     1       5.030   1.638  19.776  0.00  0.00    +0.000 N 
ATOM      8  N   UNL     1       4.040   3.705  19.261  0.00  0.00    +0.000 N 
ATOM      9  H   UNL     1       1.114   3.713  22.819  0.00  0.00    +0.000 HD
ATOM     10  H   UNL     1       1.950   2.240  23.017  0.00  0.00    +0.000 HD
ATOM     11  H   UNL     1       5.074   0.955  20.521  0.00  0.00    +0.000 HD
ATOM     12  H   UNL     1       5.939   2.037  19.574  0.00  0.00    +0.000 HD
ENDROOT
BRANCH   8  13
ATOM     13  C   UNL     1       4.903   4.034  18.186  0.00  0.00    +0.000 A 
ATOM     14  C   UNL     1       6.085   4.770  18.388  0.00  0.00    +0.000 A 
ATOM     15  C   UNL     1       6.925   5.128  17.327  0.00  0.00    +0.000 A 
ATOM     16  C   UNL     1       6.617   4.723  16.035  0.00  0.00    +0.000 A 
ATOM     17 CL   UNL     1       7.645   5.156  14.726  0.00  0.00    +0.000 Cl
ATOM     18  C   UNL     1       5.476   3.967  15.799  0.00  0.00    +0.000 A 
ATOM     19  C   UNL     1       4.626   3.637  16.863  0.00  0.00    +0.000 A 
ENDBRANCH   8  13
BRANCH   1  21
ATOM     20  C   UNL     1       1.190   3.737  18.029  0.00  0.00    +0.000 C 
ATOM     21  C   UNL     1       2.033   4.941  18.436  0.00  0.00    +0.000 C 
ENDBRANCH   1  21
TORSDOF 2
ENDMDL
MODEL 2
REMARK VINA RESULT:      -7.2      0.820      1.087
REMARK  Name = 
REMARK  3 active torsions:
REMARK  status: ('A' for Active; 'I' for Inactive)
REMARK    1  A    between atoms: C_1  and  C_2
REMARK    2  A    between atoms: C_2  and  C_3
REMARK    3  A    between atoms: N_10  and  C_11
REMARK                            x       y       z     vdW  Elec       q    Type
REMARK                         _______ _______ _______ _____ _____    ______ ____
ROOT
ATOM      1  C   UNL     1       3.394   4.912  19.596  0.00  0.00    +0.000 C 
ATOM      2  N   UNL     1       2.601   4.601  20.783  0.00  0.00    +0.000 NA
ATOM      3  C   UNL     1       2.440   3.366  21.085  0.00  0.00    +0.000 C 
ATOM      4  N   UNL     1       1.674   3.064  22.160  0.00  0.00    +0.000 N 
ATOM      5  N   UNL     1       3.012   2.319  20.444  0.00  0.00    +0.000 NA
ATOM      6  C   UNL     1       3.769   2.555  19.419  0.00  0.00    +0.000 C 
ATOM      7  N   UNL     1       4.370   1.470  18.862  0.00  0.00    +0.000 N 
ATOM      8  N   UNL     1       4.046   3.796  18.908  0.00  0.00    +0.000 N 
ATOM      9  H   UNL     1       1.584   3.840  22.801  0.00  0.00    +0.000 HD
ATOM     10  H   UNL     1       1.924   2.182  22.584  0.00  0.00    +0.000 HD
ATOM     11  H   UNL     1       4.259   0.652  19.446  0.00  0.00    +0.000 HD
ATOM     12  H   UNL     1       5.338   1.622  18.605  0.00  0.00    +0.000 HD
ENDROOT
BRANCH   8  13
ATOM     13  C   UNL     1       4.875   4.097  17.799  0.00  0.00    +0.000 A 
ATOM     14  C   UNL     1       6.194   4.558  17.967  0.00  0.00    +0.000 A 
ATOM     15  C   UNL     1       7.008   4.889  16.876  0.00  0.00    +0.000 A 
ATOM     16  C   UNL     1       6.528   4.731  15.583  0.00  0.00    +0.000 A 
ATOM     17 CL   UNL     1       7.521   5.133  14.239  0.00  0.00    +0.000 Cl
ATOM     18  C   UNL     1       5.242   4.247  15.375  0.00  0.00    +0.000 A 
ATOM     19  C   UNL     1       4.425   3.944  16.472  0.00  0.00    +0.000 A 
ENDBRANCH   8  13
BRANCH   1  21
ATOM     20  C   UNL     1       3.023   7.083  18.255  0.00  0.00    +0.000 C 
ATOM     21  C   UNL     1       2.472   5.716  18.648  0.00  0.00    +0.000 C 
ENDBRANCH   1  21
TORSDOF 2
ENDMDL
MODEL 3
REMARK VINA RESULT:      -7.2      3.147      4.521
REMARK  Name = 
REMARK  3 active torsions:
REMARK  status: ('A' for Active; 'I' for Inactive)
REMARK    1  A    between atoms: C_1  and  C_2
REMARK    2  A    between atoms: C_2  and  C_3
REMARK    3  A    between atoms: N_10  and  C_11
REMARK                            x       y       z     vdW  Elec       q    Type
REMARK                         _______ _______ _______ _____ _____    ______ ____
ROOT
ATOM      1  C   UNL     1       2.561   4.070  19.729  0.00  0.00    +0.000 C 
ATOM      2  N   UNL     1       3.196   2.777  19.975  0.00  0.00    +0.000 NA
ATOM      3  C   UNL     1       4.453   2.677  19.744  0.00  0.00    +0.000 C 
ATOM      4  N   UNL     1       5.044   1.474  19.932  0.00  0.00    +0.000 N 
ATOM      5  N   UNL     1       5.266   3.692  19.366  0.00  0.00    +0.000 NA
ATOM      6  C   UNL     1       4.752   4.869  19.191  0.00  0.00    +0.000 C 
ATOM      7  N   UNL     1       5.629   5.860  18.881  0.00  0.00    +0.000 N 
ATOM      8  N   UNL     1       3.428   5.187  19.349  0.00  0.00    +0.000 N 
ATOM      9  H   UNL     1       4.512   0.872  20.545  0.00  0.00    +0.000 HD
ATOM     10  H   UNL     1       6.027   1.550  20.151  0.00  0.00    +0.000 HD
ATOM     11  H   UNL     1       6.585   5.550  18.998  0.00  0.00    +0.000 HD
ATOM     12  H   UNL     1       5.453   6.733  19.365  0.00  0.00    +0.000 HD
ENDROOT
BRANCH   8  13
ATOM     13  C   UNL     1       2.830   6.460  19.179  0.00  0.00    +0.000 A 
ATOM     14  C   UNL     1       2.146   7.101  20.228  0.00  0.00    +0.000 A 
ATOM     15  C   UNL     1       1.523   8.344  20.056  0.00  0.00    +0.000 A 
ATOM     16  C   UNL     1       1.604   8.993  18.832  0.00  0.00    +0.000 A 
ATOM     17 CL   UNL     1       0.845  10.520  18.614  0.00  0.00    +0.000 Cl
ATOM     18  C   UNL     1       2.299   8.409  17.781  0.00  0.00    +0.000 A 
ATOM     19  C   UNL     1       2.895   7.152  17.953  0.00  0.00    +0.000 A 
ENDBRANCH   8  13
BRANCH   1  21
ATOM     20  C   UNL     1       0.784   2.453  18.792  0.00  0.00    +0.000 C 
ATOM     21  C   UNL     1       1.448   3.821  18.682  0.00  0.00    +0.000 C 
ENDBRANCH   1  21
TORSDOF 2
ENDMDL
MODEL 4
REMARK VINA RESULT:      -7.2      0.760      1.545
REMARK  Name = 
REMARK  3 active torsions:
REMARK  status: ('A' for Active; 'I' for Inactive)
REMARK    1  A    between atoms: C_1  and  C_2
REMARK    2  A    between atoms: C_2  and  C_3
REMARK    3  A    between atoms: N_10  and  C_11
REMARK                            x       y       z     vdW  Elec       q    Type
REMARK                         _______ _______ _______ _____ _____    ______ ____
ROOT
ATOM      1  C   UNL     1       3.324   4.878  19.679  0.00  0.00    +0.000 C 
ATOM      2  N   UNL     1       2.536   4.543  20.863  0.00  0.00    +0.000 NA
ATOM      3  C   UNL     1       2.413   3.304  21.165  0.00  0.00    +0.000 C 
ATOM      4  N   UNL     1       1.653   2.979  22.238  0.00  0.00    +0.000 N 
ATOM      5  N   UNL     1       3.019   2.274  20.526  0.00  0.00    +0.000 NA
ATOM      6  C   UNL     1       3.772   2.533  19.504  0.00  0.00    +0.000 C 
ATOM      7  N   UNL     1       4.408   1.467  18.949  0.00  0.00    +0.000 N 
ATOM      8  N   UNL     1       4.013   3.782  18.993  0.00  0.00    +0.000 N 
ATOM      9  H   UNL     1       1.537   3.751  22.878  0.00  0.00    +0.000 HD
ATOM     10  H   UNL     1       1.929   2.105  22.663  0.00  0.00    +0.000 HD
ATOM     11  H   UNL     1       4.320   0.646  19.534  0.00  0.00    +0.000 HD
ATOM     12  H   UNL     1       5.372   1.649  18.695  0.00  0.00    +0.000 HD
ENDROOT
BRANCH   8  13
ATOM     13  C   UNL     1       4.836   4.108  17.887  0.00  0.00    +0.000 A 
ATOM     14  C   UNL     1       4.383   3.967  16.562  0.00  0.00    +0.000 A 
ATOM     15  C   UNL     1       5.202   4.255  15.464  0.00  0.00    +0.000 A 
ATOM     16  C   UNL     1       6.491   4.729  15.670  0.00  0.00    +0.000 A 
ATOM     17 CL   UNL     1       7.503   5.088  14.327  0.00  0.00    +0.000 Cl
ATOM     18  C   UNL     1       6.964   4.914  16.963  0.00  0.00    +0.000 A 
ATOM     19  C   UNL     1       6.147   4.597  18.056  0.00  0.00    +0.000 A 
ENDBRANCH   8  13
BRANCH   1  21
ATOM     20  C   UNL     1       2.857   7.063  18.391  0.00  0.00    +0.000 C 
ATOM     21  C   UNL     1       2.381   5.653  18.727  0.00  0.00    +0.000 C 
ENDBRANCH   1  21
TORSDOF 2
ENDMDL
MODEL 5
REMARK VINA RESULT:      -7.2      3.135      4.583
REMARK  Name = 
REMARK  3 active torsions:
REMARK  status: ('A' for Active; 'I' for Inactive)
REMARK    1  A    between atoms: C_1  and  C_2
REMARK    2  A    between atoms: C_2  and  C_3
REMARK    3  A    between atoms: N_10  and  C_11
REMARK                            x       y       z     vdW  Elec       q    Type
REMARK                         _______ _______ _______ _____ _____    ______ ____
ROOT
ATOM      1  C   UNL     1       2.545   4.028  19.726  0.00  0.00    +0.000 C 
ATOM      2  N   UNL     1       3.190   2.739  19.966  0.00  0.00    +0.000 NA
ATOM      3  C   UNL     1       4.447   2.650  19.736  0.00  0.00    +0.000 C 
ATOM      4  N   UNL     1       5.048   1.450  19.917  0.00  0.00    +0.000 N 
ATOM      5  N   UNL     1       5.253   3.674  19.363  0.00  0.00    +0.000 NA
ATOM      6  C   UNL     1       4.730   4.847  19.194  0.00  0.00    +0.000 C 
ATOM      7  N   UNL     1       5.599   5.847  18.890  0.00  0.00    +0.000 N 
ATOM      8  N   UNL     1       3.403   5.154  19.353  0.00  0.00    +0.000 N 
ATOM      9  H   UNL     1       4.521   0.842  20.526  0.00  0.00    +0.000 HD
ATOM     10  H   UNL     1       6.030   1.534  20.137  0.00  0.00    +0.000 HD
ATOM     11  H   UNL     1       6.557   5.544  19.006  0.00  0.00    +0.000 HD
ATOM     12  H   UNL     1       5.415   6.715  19.378  0.00  0.00    +0.000 HD
ENDROOT
BRANCH   8  13
ATOM     13  C   UNL     1       2.795   6.423  19.188  0.00  0.00    +0.000 A 
ATOM     14  C   UNL     1       2.818   7.098  17.954  0.00  0.00    +0.000 A 
ATOM     15  C   UNL     1       2.248   8.367  17.792  0.00  0.00    +0.000 A 
ATOM     16  C   UNL     1       1.606   8.976  18.862  0.00  0.00    +0.000 A 
ATOM     17 CL   UNL     1       0.901  10.533  18.672  0.00  0.00    +0.000 Cl
ATOM     18  C   UNL     1       1.533   8.328  20.088  0.00  0.00    +0.000 A 
ATOM     19  C   UNL     1       2.130   7.070  20.249  0.00  0.00    +0.000 A 
ENDBRANCH   8  13
BRANCH   1  21
ATOM     20  C   UNL     1       0.770   2.408  18.789  0.00  0.00    +0.000 C 
ATOM     21  C   UNL     1       1.435   3.776  18.676  0.00  0.00    +0.000 C 
ENDBRANCH   1  21
TORSDOF 2
ENDMDL
MODEL 6
REMARK VINA RESULT:      -7.1      0.036      1.165
REMARK  Name = 
REMARK  3 active torsions:
REMARK  status: ('A' for Active; 'I' for Inactive)
REMARK    1  A    between atoms: C_1  and  C_2
REMARK    2  A    between atoms: C_2  and  C_3
REMARK    3  A    between atoms: N_10  and  C_11
REMARK                            x       y       z     vdW  Elec       q    Type
REMARK                         _______ _______ _______ _____ _____    ______ ____
ROOT
ATOM      1  C   UNL     1       2.963   4.660  19.625  0.00  0.00    +0.000 C 
ATOM      2  N   UNL     1       2.126   4.332  20.777  0.00  0.00    +0.000 NA
ATOM      3  C   UNL     1       2.302   3.191  21.335  0.00  0.00    +0.000 C 
ATOM      4  N   UNL     1       1.506   2.861  22.379  0.00  0.00    +0.000 N 
ATOM      5  N   UNL     1       3.255   2.290  20.999  0.00  0.00    +0.000 NA
ATOM      6  C   UNL     1       4.055   2.567  20.018  0.00  0.00    +0.000 C 
ATOM      7  N   UNL     1       5.035   1.656  19.775  0.00  0.00    +0.000 N 
ATOM      8  N   UNL     1       4.020   3.712  19.266  0.00  0.00    +0.000 N 
ATOM      9  H   UNL     1       1.087   3.668  22.818  0.00  0.00    +0.000 HD
ATOM     10  H   UNL     1       1.941   2.205  23.011  0.00  0.00    +0.000 HD
ATOM     11  H   UNL     1       5.087   0.970  20.517  0.00  0.00    +0.000 HD
ATOM     12  H   UNL     1       5.939   2.067  19.576  0.00  0.00    +0.000 HD
ENDROOT
BRANCH   8  13
ATOM     13  C   UNL     1       4.881   4.057  18.195  0.00  0.00    +0.000 A 
ATOM     14  C   UNL     1       4.611   3.659  16.873  0.00  0.00    +0.000 A 
ATOM     15  C   UNL     1       5.475   3.967  15.814  0.00  0.00    +0.000 A 
ATOM     16  C   UNL     1       6.618   4.718  16.053  0.00  0.00    +0.000 A 
ATOM     17 CL   UNL     1       7.682   5.103  14.759  0.00  0.00    +0.000 Cl
ATOM     18  C   UNL     1       6.903   5.158  17.339  0.00  0.00    +0.000 A 
ATOM     19  C   UNL     1       6.048   4.821  18.397  0.00  0.00    +0.000 A 
ENDBRANCH   8  13
BRANCH   1  21
ATOM     20  C   UNL     1       1.184   3.709  18.018  0.00  0.00    +0.000 C 
ATOM     21  C   UNL     1       2.000   4.926  18.443  0.00  0.00    +0.000 C 
ENDBRANCH   1  21
TORSDOF 2
ENDMDL
MODEL 7
REMARK VINA RESULT:      -6.5      2.176      2.883
REMARK  Name = 
REMARK  3 active torsions:
REMARK  status: ('A' for Active; 'I' for Inactive)
REMARK    1  A    between atoms: C_1  and  C_2
REMARK    2  A    between atoms: C_2  and  C_3
REMARK    3  A    between atoms: N_10  and  C_11
REMARK                            x       y       z     vdW  Elec       q    Type
REMARK                         _______ _______ _______ _____ _____    ______ ____
ROOT
ATOM      1  C   UNL     1       3.808   4.363  19.546  0.00  0.00    +0.000 C 
ATOM      2  N   UNL     1       2.884   3.245  19.723  0.00  0.00    +0.000 NA
ATOM      3  C   UNL     1       2.791   2.393  18.771  0.00  0.00    +0.000 C 
ATOM      4  N   UNL     1       1.909   1.374  18.908  0.00  0.00    +0.000 N 
ATOM      5  N   UNL     1       3.537   2.392  17.641  0.00  0.00    +0.000 NA
ATOM      6  C   UNL     1       4.409   3.335  17.470  0.00  0.00    +0.000 C 
ATOM      7  N   UNL     1       5.176   3.241  16.351  0.00  0.00    +0.000 N 
ATOM      8  N   UNL     1       4.646   4.363  18.345  0.00  0.00    +0.000 N 
ATOM      9  H   UNL     1       1.661   1.204  19.872  0.00  0.00    +0.000 HD
ATOM     10  H   UNL     1       2.173   0.555  18.380  0.00  0.00    +0.000 HD
ATOM     11  H   UNL     1       5.054   2.342  15.901  0.00  0.00    +0.000 HD
ATOM     12  H   UNL     1       6.153   3.459  16.502  0.00  0.00    +0.000 HD
ENDROOT
BRANCH   8  13
ATOM     13  C   UNL     1       5.595   5.405  18.201  0.00  0.00    +0.000 A 
ATOM     14  C   UNL     1       6.823   5.386  18.887  0.00  0.00    +0.000 A 
ATOM     15  C   UNL     1       7.751   6.429  18.776  0.00  0.00    +0.000 A 
ATOM     16  C   UNL     1       7.483   7.505  17.941  0.00  0.00    +0.000 A 
ATOM     17 CL   UNL     1       8.618   8.788  17.796  0.00  0.00    +0.000 Cl
ATOM     18  C   UNL     1       6.296   7.545  17.220  0.00  0.00    +0.000 A 
ATOM     19  C   UNL     1       5.361   6.510  17.359  0.00  0.00    +0.000 A 
ENDBRANCH   8  13
BRANCH   1  21
ATOM     20  C   UNL     1       1.754   5.529  20.582  0.00  0.00    +0.000 C 
ATOM     21  C   UNL     1       2.963   5.655  19.661  0.00  0.00    +0.000 C 
ENDBRANCH   1  21
TORSDOF 2
ENDMDL
MODEL 8
REMARK VINA RESULT:      -6.5      3.597      5.847
REMARK  Name = 
REMARK  3 active torsions:
REMARK  status: ('A' for Active; 'I' for Inactive)
REMARK    1  A    between atoms: C_1  and  C_2
REMARK    2  A    between atoms: C_2  and  C_3
REMARK    3  A    between atoms: N_10  and  C_11
REMARK                            x       y       z     vdW  Elec       q    Type
REMARK                         _______ _______ _______ _____ _____    ______ ____
ROOT
ATOM      1  C   UNL     1       5.646   5.833  16.816  0.00  0.00    +0.000 C 
ATOM      2  N   UNL     1       6.580   6.172  15.744  0.00  0.00    +0.000 NA
ATOM      3  C   UNL     1       6.991   5.220  14.990  0.00  0.00    +0.000 C 
ATOM      4  N   UNL     1       7.886   5.516  14.018  0.00  0.00    +0.000 N 
ATOM      5  N   UNL     1       6.571   3.934  15.047  0.00  0.00    +0.000 NA
ATOM      6  C   UNL     1       5.699   3.604  15.947  0.00  0.00    +0.000 C 
ATOM      7  N   UNL     1       5.264   2.316  15.910  0.00  0.00    +0.000 N 
ATOM      8  N   UNL     1       5.156   4.454  16.875  0.00  0.00    +0.000 N 
ATOM      9  H   UNL     1       7.886   6.496  13.776  0.00  0.00    +0.000 HD
ATOM     10  H   UNL     1       7.840   4.878  13.236  0.00  0.00    +0.000 HD
ATOM     11  H   UNL     1       5.573   1.852  15.065  0.00  0.00    +0.000 HD
ATOM     12  H   UNL     1       4.267   2.214  16.053  0.00  0.00    +0.000 HD
ENDROOT
BRANCH   8  13
ATOM     13  C   UNL     1       4.195   4.136  17.867  0.00  0.00    +0.000 A 
ATOM     14  C   UNL     1       4.533   3.385  19.007  0.00  0.00    +0.000 A 
ATOM     15  C   UNL     1       3.582   3.038  19.975  0.00  0.00    +0.000 A 
ATOM     16  C   UNL     1       2.270   3.470  19.838  0.00  0.00    +0.000 A 
ATOM     17 CL   UNL     1       1.096   3.051  21.023  0.00  0.00    +0.000 Cl
ATOM     18  C   UNL     1       1.904   4.242  18.743  0.00  0.00    +0.000 A 
ATOM     19  C   UNL     1       2.856   4.561  17.765  0.00  0.00    +0.000 A 
ENDBRANCH   8  13
BRANCH   1  21
ATOM     20  C   UNL     1       7.623   5.529  18.443  0.00  0.00    +0.000 C 
ATOM     21  C   UNL     1       6.321   6.263  18.141  0.00  0.00    +0.000 C 
ENDBRANCH   1  21
TORSDOF 2
ENDMDL
MODEL 9
REMARK VINA RESULT:      -6.5      2.177      3.017
REMARK  Name = 
REMARK  3 active torsions:
REMARK  status: ('A' for Active; 'I' for Inactive)
REMARK    1  A    between atoms: C_1  and  C_2
REMARK    2  A    between atoms: C_2  and  C_3
REMARK    3  A    between atoms: N_10  and  C_11
REMARK                            x       y       z     vdW  Elec       q    Type
REMARK                         _______ _______ _______ _____ _____    ______ ____
ROOT
ATOM      1  C   UNL     1       3.798   4.357  19.535  0.00  0.00    +0.000 C 
ATOM      2  N   UNL     1       2.884   3.229  19.701  0.00  0.00    +0.000 NA
ATOM      3  C   UNL     1       2.808   2.379  18.745  0.00  0.00    +0.000 C 
ATOM      4  N   UNL     1       1.936   1.351  18.871  0.00  0.00    +0.000 N 
ATOM      5  N   UNL     1       3.564   2.390  17.621  0.00  0.00    +0.000 NA
ATOM      6  C   UNL     1       4.427   3.342  17.461  0.00  0.00    +0.000 C 
ATOM      7  N   UNL     1       5.204   3.260  16.349  0.00  0.00    +0.000 N 
ATOM      8  N   UNL     1       4.646   4.370  18.342  0.00  0.00    +0.000 N 
ATOM      9  H   UNL     1       1.682   1.174  19.833  0.00  0.00    +0.000 HD
ATOM     10  H   UNL     1       2.213   0.536  18.343  0.00  0.00    +0.000 HD
ATOM     11  H   UNL     1       5.096   2.361  15.895  0.00  0.00    +0.000 HD
ATOM     12  H   UNL     1       6.178   3.487  16.509  0.00  0.00    +0.000 HD
ENDROOT
BRANCH   8  13
ATOM     13  C   UNL     1       5.585   5.422  18.209  0.00  0.00    +0.000 A 
ATOM     14  C   UNL     1       5.336   6.535  17.384  0.00  0.00    +0.000 A 
ATOM     15  C   UNL     1       6.273   7.562  17.222  0.00  0.00    +0.000 A 
ATOM     16  C   UNL     1       7.475   7.516  17.916  0.00  0.00    +0.000 A 
ATOM     17 CL   UNL     1       8.630   8.775  17.725  0.00  0.00    +0.000 Cl
ATOM     18  C   UNL     1       7.745   6.451  18.766  0.00  0.00    +0.000 A 
ATOM     19  C   UNL     1       6.813   5.413  18.901  0.00  0.00    +0.000 A 
ENDBRANCH   8  13
BRANCH   1  21
ATOM     20  C   UNL     1       1.747   5.511  20.590  0.00  0.00    +0.000 C 
ATOM     21  C   UNL     1       2.939   5.640  19.647  0.00  0.00    +0.000 C 
ENDBRANCH   1  21
TORSDOF 2
ENDMDL
