MODEL 1
REMARK VINA RESULT:      -8.0      0.000      0.000
REMARK  Name = 
REMARK  7 active torsions:
REMARK  status: ('A' for Active; 'I' for Inactive)
REMARK    1  A    between atoms: C_1  and  C_2
REMARK    2  A    between atoms: C_4  and  C_5
REMARK    3  A    between atoms: C_5  and  N_6
REMARK    4  A    between atoms: C_9  and  N_10
REMARK    5  A    between atoms: N_10  and  S_11
REMARK    6  A    between atoms: S_11  and  N_14
REMARK    7  A    between atoms: C_25  and  C_26
REMARK                            x       y       z     vdW  Elec       q    Type
REMARK                         _______ _______ _______ _____ _____    ______ ____
ROOT
ATOM      1  N   UNL     1       2.834   5.901  20.310  0.00  0.00    +0.000 N 
ATOM      2  H   UNL     1       3.523   5.924  21.057  0.00  0.00    +0.000 HD
ENDROOT
BRANCH   1   6
ATOM      3  N   UNL     1       0.968   8.891  20.099  0.00  0.00    +0.000 N 
ATOM      4  N   UNL     1       0.607   8.416  21.309  0.00  0.00    +0.000 NA
ATOM      5  N   UNL     1       1.290   7.301  21.520  0.00  0.00    +0.000 NA
ATOM      6  C   UNL     1       2.041   7.042  20.407  0.00  0.00    +0.000 A 
ATOM      7  C   UNL     1       1.895   8.070  19.503  0.00  0.00    +0.000 A 
ATOM      8  C   UNL     1       2.501   8.329  18.180  0.00  0.00    +0.000 C 
BRANCH   3   9
ATOM      9  C   UNL     1       0.263  10.018  19.522  0.00  0.00    +0.000 C 
BRANCH   9  13
ATOM     10  C   UNL     1       3.028  14.090  19.309  0.00  0.00    +0.000 C 
ATOM     11  C   UNL     1       2.117  12.999  19.695  0.00  0.00    +0.000 A 
ATOM     12  N   UNL     1       1.561  12.075  18.948  0.00  0.00    +0.000 NA
ATOM     13  C   UNL     1       0.908  11.302  19.876  0.00  0.00    +0.000 A 
ATOM     14  N   UNL     1       1.048  11.716  21.144  0.00  0.00    +0.000 NA
ATOM     15  O   UNL     1       1.846  12.858  21.024  0.00  0.00    +0.000 OA
ENDBRANCH   9  13
ENDBRANCH   3   9
ENDBRANCH   1   6
BRANCH   1  16
ATOM     16  S   UNL     1       2.008   4.445  20.535  0.00  0.00    +0.000 S 
ATOM     17  O   UNL     1       2.366   3.957  21.847  0.00  0.00    +0.000 OA
ATOM     18  O   UNL     1       0.636   4.590  20.123  0.00  0.00    +0.000 OA
BRANCH  16  19
ATOM     19  N   UNL     1       2.793   3.480  19.386  0.00  0.00    +0.000 NA
ATOM     20  C   UNL     1       2.469   3.666  17.956  0.00  0.00    +0.000 C 
ATOM     21  C   UNL     1       3.221   4.845  17.350  0.00  0.00    +0.000 C 
ATOM     22  C   UNL     1       4.755   4.794  17.584  0.00  0.00    +0.000 C 
ATOM     23  C   UNL     1       5.428   3.710  16.704  0.00  0.00    +0.000 C 
ATOM     24  C   UNL     1       5.321   4.000  15.208  0.00  0.00    +0.000 C 
ATOM     25  C   UNL     1       5.847   5.387  14.856  0.00  0.00    +0.000 C 
ATOM     26  C   UNL     1       5.263   6.492  15.733  0.00  0.00    +0.000 C 
ATOM     27  C   UNL     1       5.380   6.165  17.221  0.00  0.00    +0.000 C 
ATOM     28  C   UNL     1       5.038   4.496  19.078  0.00  0.00    +0.000 C 
ATOM     29  C   UNL     1       4.252   3.294  19.600  0.00  0.00    +0.000 C 
ENDBRANCH  16  19
ENDBRANCH   1  16
TORSDOF 5
ENDMDL
MODEL 2
REMARK VINA RESULT:      -7.9      2.066      2.750
REMARK  Name = 
REMARK  7 active torsions:
REMARK  status: ('A' for Active; 'I' for Inactive)
REMARK    1  A    between atoms: C_1  and  C_2
REMARK    2  A    between atoms: C_4  and  C_5
REMARK    3  A    between atoms: C_5  and  N_6
REMARK    4  A    between atoms: C_9  and  N_10
REMARK    5  A    between atoms: N_10  and  S_11
REMARK    6  A    between atoms: S_11  and  N_14
REMARK    7  A    between atoms: C_25  and  C_26
REMARK                            x       y       z     vdW  Elec       q    Type
REMARK                         _______ _______ _______ _____ _____    ______ ____
ROOT
ATOM      1  N   UNL     1       3.078   6.139  20.174  0.00  0.00    +0.000 N 
ATOM      2  H   UNL     1       3.162   6.316  21.172  0.00  0.00    +0.000 HD
ENDROOT
BRANCH   1   6
ATOM      3  N   UNL     1       1.350   9.037  19.133  0.00  0.00    +0.000 N 
ATOM      4  N   UNL     1       1.892   8.598  17.978  0.00  0.00    +0.000 NA
ATOM      5  N   UNL     1       2.537   7.472  18.241  0.00  0.00    +0.000 NA
ATOM      6  C   UNL     1       2.450   7.233  19.585  0.00  0.00    +0.000 A 
ATOM      7  C   UNL     1       1.653   8.189  20.172  0.00  0.00    +0.000 A 
ATOM      8  C   UNL     1       1.189   8.386  21.562  0.00  0.00    +0.000 C 
BRANCH   3   9
ATOM      9  C   UNL     1       0.720  10.340  19.190  0.00  0.00    +0.000 C 
BRANCH   9  13
ATOM     10  C   UNL     1      -3.036   9.861  16.038  0.00  0.00    +0.000 C 
ATOM     11  C   UNL     1      -2.173  10.087  17.210  0.00  0.00    +0.000 A 
ATOM     12  N   UNL     1      -0.919   9.752  17.397  0.00  0.00    +0.000 NA
ATOM     13  C   UNL     1      -0.646  10.308  18.623  0.00  0.00    +0.000 A 
ATOM     14  N   UNL     1      -1.677  10.963  19.178  0.00  0.00    +0.000 NA
ATOM     15  O   UNL     1      -2.702  10.805  18.241  0.00  0.00    +0.000 OA
ENDBRANCH   9  13
ENDBRANCH   3   9
ENDBRANCH   1   6
BRANCH   1  16
ATOM     16  S   UNL     1       2.217   4.689  20.069  0.00  0.00    +0.000 S 
ATOM     17  O   UNL     1       2.027   4.213  21.419  0.00  0.00    +0.000 OA
ATOM     18  O   UNL     1       1.118   4.837  19.150  0.00  0.00    +0.000 OA
BRANCH  16  19
ATOM     19  N   UNL     1       3.381   3.708  19.327  0.00  0.00    +0.000 NA
ATOM     20  C   UNL     1       3.213   3.352  17.903  0.00  0.00    +0.000 C 
ATOM     21  C   UNL     1       3.687   4.465  16.976  0.00  0.00    +0.000 C 
ATOM     22  C   UNL     1       5.132   4.951  17.273  0.00  0.00    +0.000 C 
ATOM     23  C   UNL     1       6.186   3.909  16.820  0.00  0.00    +0.000 C 
ATOM     24  C   UNL     1       6.204   3.691  15.309  0.00  0.00    +0.000 C 
ATOM     25  C   UNL     1       6.373   5.001  14.546  0.00  0.00    +0.000 C 
ATOM     26  C   UNL     1       5.398   6.087  14.993  0.00  0.00    +0.000 C 
ATOM     27  C   UNL     1       5.401   6.272  16.509  0.00  0.00    +0.000 C 
ATOM     28  C   UNL     1       5.283   5.212  18.793  0.00  0.00    +0.000 C 
ATOM     29  C   UNL     1       4.794   4.043  19.647  0.00  0.00    +0.000 C 
ENDBRANCH  16  19
ENDBRANCH   1  16
TORSDOF 5
ENDMDL
MODEL 3
REMARK VINA RESULT:      -7.7      1.316      1.546
REMARK  Name = 
REMARK  7 active torsions:
REMARK  status: ('A' for Active; 'I' for Inactive)
REMARK    1  A    between atoms: C_1  and  C_2
REMARK    2  A    between atoms: C_4  and  C_5
REMARK    3  A    between atoms: C_5  and  N_6
REMARK    4  A    between atoms: C_9  and  N_10
REMARK    5  A    between atoms: N_10  and  S_11
REMARK    6  A    between atoms: S_11  and  N_14
REMARK    7  A    between atoms: C_25  and  C_26
REMARK                            x       y       z     vdW  Elec       q    Type
REMARK                         _______ _______ _______ _____ _____    ______ ____
ROOT
ATOM      1  N   UNL     1       2.868   6.506  20.265  0.00  0.00    +0.000 N 
ATOM      2  H   UNL     1       2.984   6.341  21.262  0.00  0.00    +0.000 HD
ENDROOT
BRANCH   1   6
ATOM      3  N   UNL     1       0.844   9.258  19.373  0.00  0.00    +0.000 N 
ATOM      4  N   UNL     1       0.430   8.997  20.631  0.00  0.00    +0.000 NA
ATOM      5  N   UNL     1       1.163   7.994  21.092  0.00  0.00    +0.000 NA
ATOM      6  C   UNL     1       2.003   7.583  20.095  0.00  0.00    +0.000 A 
ATOM      7  C   UNL     1       1.857   8.408  19.002  0.00  0.00    +0.000 A 
ATOM      8  C   UNL     1       2.535   8.453  17.689  0.00  0.00    +0.000 C 
BRANCH   3   9
ATOM      9  C   UNL     1       0.113  10.200  18.550  0.00  0.00    +0.000 C 
BRANCH   9  13
ATOM     10  C   UNL     1       0.096  15.085  19.189  0.00  0.00    +0.000 C 
ATOM     11  C   UNL     1       0.452  13.664  19.041  0.00  0.00    +0.000 A 
ATOM     12  N   UNL     1      -0.318  12.603  19.084  0.00  0.00    +0.000 NA
ATOM     13  C   UNL     1       0.561  11.590  18.788  0.00  0.00    +0.000 A 
ATOM     14  N   UNL     1       1.821  11.993  18.566  0.00  0.00    +0.000 NA
ATOM     15  O   UNL     1       1.753  13.378  18.748  0.00  0.00    +0.000 OA
ENDBRANCH   9  13
ENDBRANCH   3   9
ENDBRANCH   1   6
BRANCH   1  16
ATOM     16  S   UNL     1       2.298   5.038  19.654  0.00  0.00    +0.000 S 
ATOM     17  O   UNL     1       1.687   4.331  20.755  0.00  0.00    +0.000 OA
ATOM     18  O   UNL     1       1.604   5.261  18.411  0.00  0.00    +0.000 OA
BRANCH  16  19
ATOM     19  N   UNL     1       3.767   4.277  19.295  0.00  0.00    +0.000 NA
ATOM     20  C   UNL     1       3.854   3.422  18.093  0.00  0.00    +0.000 C 
ATOM     21  C   UNL     1       4.070   4.241  16.825  0.00  0.00    +0.000 C 
ATOM     22  C   UNL     1       5.270   5.222  16.913  0.00  0.00    +0.000 C 
ATOM     23  C   UNL     1       6.624   4.471  16.847  0.00  0.00    +0.000 C 
ATOM     24  C   UNL     1       6.856   3.768  15.511  0.00  0.00    +0.000 C 
ATOM     25  C   UNL     1       6.707   4.722  14.331  0.00  0.00    +0.000 C 
ATOM     26  C   UNL     1       5.416   5.535  14.374  0.00  0.00    +0.000 C 
ATOM     27  C   UNL     1       5.212   6.217  15.726  0.00  0.00    +0.000 C 
ATOM     28  C   UNL     1       5.185   6.020  18.239  0.00  0.00    +0.000 C 
ATOM     29  C   UNL     1       4.979   5.122  19.458  0.00  0.00    +0.000 C 
ENDBRANCH  16  19
ENDBRANCH   1  16
TORSDOF 5
ENDMDL
MODEL 4
REMARK VINA RESULT:      -7.6      1.154      1.583
REMARK  Name = 
REMARK  7 active torsions:
REMARK  status: ('A' for Active; 'I' for Inactive)
REMARK    1  A    between atoms: C_1  and  C_2
REMARK    2  A    between atoms: C_4  and  C_5
REMARK    3  A    between atoms: C_5  and  N_6
REMARK    4  A    between atoms: C_9  and  N_10
REMARK    5  A    between atoms: N_10  and  S_11
REMARK    6  A    between atoms: S_11  and  N_14
REMARK    7  A    between atoms: C_25  and  C_26
REMARK                            x       y       z     vdW  Elec       q    Type
REMARK                         _______ _______ _______ _____ _____    ______ ____
ROOT
ATOM      1  N   UNL     1       3.060   6.619  20.114  0.00  0.00    +0.000 N 
ATOM      2  H   UNL     1       3.091   6.705  21.126  0.00  0.00    +0.000 HD
ENDROOT
BRANCH   1   6
ATOM      3  N   UNL     1       0.933   9.312  19.282  0.00  0.00    +0.000 N 
ATOM      4  N   UNL     1       1.591   9.101  18.123  0.00  0.00    +0.000 NA
ATOM      5  N   UNL     1       2.399   8.066  18.305  0.00  0.00    +0.000 NA
ATOM      6  C   UNL     1       2.291   7.662  19.606  0.00  0.00    +0.000 A 
ATOM      7  C   UNL     1       1.322   8.407  20.240  0.00  0.00    +0.000 A 
ATOM      8  C   UNL     1       0.769   8.366  21.611  0.00  0.00    +0.000 C 
BRANCH   3   9
ATOM      9  C   UNL     1       0.097  10.485  19.438  0.00  0.00    +0.000 C 
BRANCH   9  13
ATOM     10  C   UNL     1       3.228  14.287  19.535  0.00  0.00    +0.000 C 
ATOM     11  C   UNL     1       2.237  13.243  19.845  0.00  0.00    +0.000 A 
ATOM     12  N   UNL     1       1.557  12.472  19.031  0.00  0.00    +0.000 NA
ATOM     13  C   UNL     1       0.880  11.652  19.900  0.00  0.00    +0.000 A 
ATOM     14  N   UNL     1       1.124  11.894  21.197  0.00  0.00    +0.000 NA
ATOM     15  O   UNL     1       2.021  12.966  21.163  0.00  0.00    +0.000 OA
ENDBRANCH   9  13
ENDBRANCH   3   9
ENDBRANCH   1   6
BRANCH   1  16
ATOM     16  S   UNL     1       2.430   5.076  19.836  0.00  0.00    +0.000 S 
ATOM     17  O   UNL     1       1.999   4.561  21.114  0.00  0.00    +0.000 OA
ATOM     18  O   UNL     1       1.557   5.102  18.690  0.00  0.00    +0.000 OA
BRANCH  16  19
ATOM     19  N   UNL     1       3.842   4.256  19.390  0.00  0.00    +0.000 NA
ATOM     20  C   UNL     1       3.835   3.436  18.161  0.00  0.00    +0.000 C 
ATOM     21  C   UNL     1       4.037   4.283  16.909  0.00  0.00    +0.000 C 
ATOM     22  C   UNL     1       5.287   5.202  16.973  0.00  0.00    +0.000 C 
ATOM     23  C   UNL     1       6.598   4.388  16.825  0.00  0.00    +0.000 C 
ATOM     24  C   UNL     1       6.737   3.717  15.460  0.00  0.00    +0.000 C 
ATOM     25  C   UNL     1       6.586   4.713  14.316  0.00  0.00    +0.000 C 
ATOM     26  C   UNL     1       5.340   5.587  14.440  0.00  0.00    +0.000 C 
ATOM     27  C   UNL     1       5.229   6.235  15.819  0.00  0.00    +0.000 C 
ATOM     28  C   UNL     1       5.299   5.961  18.324  0.00  0.00    +0.000 C 
ATOM     29  C   UNL     1       5.100   5.036  19.524  0.00  0.00    +0.000 C 
ENDBRANCH  16  19
ENDBRANCH   1  16
TORSDOF 5
ENDMDL
MODEL 5
REMARK VINA RESULT:      -7.6      1.462      1.754
REMARK  Name = 
REMARK  7 active torsions:
REMARK  status: ('A' for Active; 'I' for Inactive)
REMARK    1  A    between atoms: C_1  and  C_2
REMARK    2  A    between atoms: C_4  and  C_5
REMARK    3  A    between atoms: C_5  and  N_6
REMARK    4  A    between atoms: C_9  and  N_10
REMARK    5  A    between atoms: N_10  and  S_11
REMARK    6  A    between atoms: S_11  and  N_14
REMARK    7  A    between atoms: C_25  and  C_26
REMARK                            x       y       z     vdW  Elec       q    Type
REMARK                         _______ _______ _______ _____ _____    ______ ____
ROOT
ATOM      1  N   UNL     1       2.688   6.420  20.093  0.00  0.00    +0.000 N 
ATOM      2  H   UNL     1       3.497   6.407  20.708  0.00  0.00    +0.000 HD
ENDROOT
BRANCH   1   6
ATOM      3  N   UNL     1       0.798   9.392  20.339  0.00  0.00    +0.000 N 
ATOM      4  N   UNL     1       0.774   8.934  21.608  0.00  0.00    +0.000 NA
ATOM      5  N   UNL     1       1.501   7.828  21.647  0.00  0.00    +0.000 NA
ATOM      6  C   UNL     1       1.936   7.556  20.379  0.00  0.00    +0.000 A 
ATOM      7  C   UNL     1       1.545   8.569  19.532  0.00  0.00    +0.000 A 
ATOM      8  C   UNL     1       1.778   8.810  18.092  0.00  0.00    +0.000 C 
BRANCH   3   9
ATOM      9  C   UNL     1      -0.047  10.504  19.952  0.00  0.00    +0.000 C 
BRANCH   9  13
ATOM     10  C   UNL     1      -1.384  13.975  23.182  0.00  0.00    +0.000 C 
ATOM     11  C   UNL     1      -0.657  13.052  22.295  0.00  0.00    +0.000 A 
ATOM     12  N   UNL     1      -1.079  11.963  21.699  0.00  0.00    +0.000 NA
ATOM     13  C   UNL     1       0.009  11.600  20.944  0.00  0.00    +0.000 A 
ATOM     14  N   UNL     1       1.064  12.422  21.057  0.00  0.00    +0.000 NA
ATOM     15  O   UNL     1       0.625  13.386  21.969  0.00  0.00    +0.000 OA
ENDBRANCH   9  13
ENDBRANCH   3   9
ENDBRANCH   1   6
BRANCH   1  16
ATOM     16  S   UNL     1       1.900   4.956  20.391  0.00  0.00    +0.000 S 
ATOM     17  O   UNL     1       2.599   4.317  21.482  0.00  0.00    +0.000 OA
ATOM     18  O   UNL     1       0.475   5.162  20.414  0.00  0.00    +0.000 OA
BRANCH  16  19
ATOM     19  N   UNL     1       2.279   4.121  18.968  0.00  0.00    +0.000 NA
ATOM     20  C   UNL     1       2.450   4.887  17.715  0.00  0.00    +0.000 C 
ATOM     21  C   UNL     1       3.837   5.512  17.613  0.00  0.00    +0.000 C 
ATOM     22  C   UNL     1       4.995   4.499  17.824  0.00  0.00    +0.000 C 
ATOM     23  C   UNL     1       5.156   3.558  16.602  0.00  0.00    +0.000 C 
ATOM     24  C   UNL     1       5.573   4.294  15.330  0.00  0.00    +0.000 C 
ATOM     25  C   UNL     1       6.831   5.130  15.541  0.00  0.00    +0.000 C 
ATOM     26  C   UNL     1       6.753   6.034  16.768  0.00  0.00    +0.000 C 
ATOM     27  C   UNL     1       6.326   5.268  18.018  0.00  0.00    +0.000 C 
ATOM     28  C   UNL     1       4.714   3.654  19.093  0.00  0.00    +0.000 C 
ATOM     29  C   UNL     1       3.308   3.058  19.108  0.00  0.00    +0.000 C 
ENDBRANCH  16  19
ENDBRANCH   1  16
TORSDOF 5
ENDMDL
MODEL 6
REMARK VINA RESULT:      -7.6      1.147      1.476
REMARK  Name = 
REMARK  7 active torsions:
REMARK  status: ('A' for Active; 'I' for Inactive)
REMARK    1  A    between atoms: C_1  and  C_2
REMARK    2  A    between atoms: C_4  and  C_5
REMARK    3  A    between atoms: C_5  and  N_6
REMARK    4  A    between atoms: C_9  and  N_10
REMARK    5  A    between atoms: N_10  and  S_11
REMARK    6  A    between atoms: S_11  and  N_14
REMARK    7  A    between atoms: C_25  and  C_26
REMARK                            x       y       z     vdW  Elec       q    Type
REMARK                         _______ _______ _______ _____ _____    ______ ____
ROOT
ATOM      1  N   UNL     1       3.034   5.999  20.132  0.00  0.00    +0.000 N 
ATOM      2  H   UNL     1       3.639   6.042  20.948  0.00  0.00    +0.000 HD
ENDROOT
BRANCH   1   6
ATOM      3  N   UNL     1       1.112   8.922  19.656  0.00  0.00    +0.000 N 
ATOM      4  N   UNL     1       0.762   8.553  20.906  0.00  0.00    +0.000 NA
ATOM      5  N   UNL     1       1.466   7.474  21.215  0.00  0.00    +0.000 NA
ATOM      6  C   UNL     1       2.220   7.129  20.128  0.00  0.00    +0.000 A 
ATOM      7  C   UNL     1       2.053   8.068  19.135  0.00  0.00    +0.000 A 
ATOM      8  C   UNL     1       2.652   8.216  17.791  0.00  0.00    +0.000 C 
BRANCH   3   9
ATOM      9  C   UNL     1       0.385   9.979  18.981  0.00  0.00    +0.000 C 
BRANCH   9  13
ATOM     10  C   UNL     1      -2.062  13.449  21.479  0.00  0.00    +0.000 C 
ATOM     11  C   UNL     1      -1.051  12.543  20.909  0.00  0.00    +0.000 A 
ATOM     12  N   UNL     1      -1.215  11.424  20.246  0.00  0.00    +0.000 NA
ATOM     13  C   UNL     1       0.073  11.096  19.899  0.00  0.00    +0.000 A 
ATOM     14  N   UNL     1       1.002  11.968  20.321  0.00  0.00    +0.000 NA
ATOM     15  O   UNL     1       0.254  12.929  21.007  0.00  0.00    +0.000 OA
ENDBRANCH   9  13
ENDBRANCH   3   9
ENDBRANCH   1   6
BRANCH   1  16
ATOM     16  S   UNL     1       2.209   4.533  20.288  0.00  0.00    +0.000 S 
ATOM     17  O   UNL     1       2.337   4.122  21.666  0.00  0.00    +0.000 OA
ATOM     18  O   UNL     1       0.928   4.620  19.634  0.00  0.00    +0.000 OA
BRANCH  16  19
ATOM     19  N   UNL     1       3.202   3.534  19.349  0.00  0.00    +0.000 NA
ATOM     20  C   UNL     1       2.938   3.423  17.899  0.00  0.00    +0.000 C 
ATOM     21  C   UNL     1       3.529   4.593  17.121  0.00  0.00    +0.000 C 
ATOM     22  C   UNL     1       5.035   4.836  17.408  0.00  0.00    +0.000 C 
ATOM     23  C   UNL     1       5.922   3.747  16.751  0.00  0.00    +0.000 C 
ATOM     24  C   UNL     1       5.859   3.761  15.225  0.00  0.00    +0.000 C 
ATOM     25  C   UNL     1       6.179   5.138  14.654  0.00  0.00    +0.000 C 
ATOM     26  C   UNL     1       5.378   6.262  15.307  0.00  0.00    +0.000 C 
ATOM     27  C   UNL     1       5.457   6.211  16.831  0.00  0.00    +0.000 C 
ATOM     28  C   UNL     1       5.273   4.841  18.939  0.00  0.00    +0.000 C 
ATOM     29  C   UNL     1       4.657   3.630  19.638  0.00  0.00    +0.000 C 
ENDBRANCH  16  19
ENDBRANCH   1  16
TORSDOF 5
ENDMDL
MODEL 7
REMARK VINA RESULT:      -7.6      5.099      9.059
REMARK  Name = 
REMARK  7 active torsions:
REMARK  status: ('A' for Active; 'I' for Inactive)
REMARK    1  A    between atoms: C_1  and  C_2
REMARK    2  A    between atoms: C_4  and  C_5
REMARK    3  A    between atoms: C_5  and  N_6
REMARK    4  A    between atoms: C_9  and  N_10
REMARK    5  A    between atoms: N_10  and  S_11
REMARK    6  A    between atoms: S_11  and  N_14
REMARK    7  A    between atoms: C_25  and  C_26
REMARK                            x       y       z     vdW  Elec       q    Type
REMARK                         _______ _______ _______ _____ _____    ______ ____
ROOT
ATOM      1  N   UNL     1       7.451   4.666  17.088  0.00  0.00    +0.000 N 
ATOM      2  H   UNL     1       8.386   4.994  17.318  0.00  0.00    +0.000 HD
ENDROOT
BRANCH   1   6
ATOM      3  N   UNL     1       6.678   4.533  13.645  0.00  0.00    +0.000 N 
ATOM      4  N   UNL     1       7.594   5.522  13.693  0.00  0.00    +0.000 NA
ATOM      5  N   UNL     1       7.997   5.634  14.950  0.00  0.00    +0.000 NA
ATOM      6  C   UNL     1       7.284   4.748  15.708  0.00  0.00    +0.000 A 
ATOM      7  C   UNL     1       6.471   3.994  14.892  0.00  0.00    +0.000 A 
ATOM      8  C   UNL     1       5.539   2.878  15.167  0.00  0.00    +0.000 C 
BRANCH   3   9
ATOM      9  C   UNL     1       5.934   4.290  12.426  0.00  0.00    +0.000 C 
BRANCH   9  13
ATOM     10  C   UNL     1       5.931  -0.448  11.077  0.00  0.00    +0.000 C 
ATOM     11  C   UNL     1       6.232   0.978  11.289  0.00  0.00    +0.000 A 
ATOM     12  N   UNL     1       5.458   1.934  11.742  0.00  0.00    +0.000 NA
ATOM     13  C   UNL     1       6.317   3.003  11.803  0.00  0.00    +0.000 A 
ATOM     14  N   UNL     1       7.572   2.733  11.412  0.00  0.00    +0.000 NA
ATOM     15  O   UNL     1       7.514   1.382  11.056  0.00  0.00    +0.000 OA
ENDBRANCH   9  13
ENDBRANCH   3   9
ENDBRANCH   1   6
BRANCH   1  16
ATOM     16  S   UNL     1       6.418   5.656  17.986  0.00  0.00    +0.000 S 
ATOM     17  O   UNL     1       6.613   5.317  19.376  0.00  0.00    +0.000 OA
ATOM     18  O   UNL     1       6.506   7.014  17.512  0.00  0.00    +0.000 OA
BRANCH  16  19
ATOM     19  N   UNL     1       4.919   5.036  17.501  0.00  0.00    +0.000 NA
ATOM     20  C   UNL     1       4.553   3.661  17.899  0.00  0.00    +0.000 C 
ATOM     21  C   UNL     1       4.017   3.604  19.325  0.00  0.00    +0.000 C 
ATOM     22  C   UNL     1       2.859   4.602  19.597  0.00  0.00    +0.000 C 
ATOM     23  C   UNL     1       1.543   4.146  18.917  0.00  0.00    +0.000 C 
ATOM     24  C   UNL     1       1.001   2.834  19.479  0.00  0.00    +0.000 C 
ATOM     25  C   UNL     1       0.838   2.887  20.994  0.00  0.00    +0.000 C 
ATOM     26  C   UNL     1       2.085   3.388  21.716  0.00  0.00    +0.000 C 
ATOM     27  C   UNL     1       2.604   4.696  21.123  0.00  0.00    +0.000 C 
ATOM     28  C   UNL     1       3.255   6.005  19.069  0.00  0.00    +0.000 C 
ATOM     29  C   UNL     1       3.771   5.971  17.631  0.00  0.00    +0.000 C 
ENDBRANCH  16  19
ENDBRANCH   1  16
TORSDOF 5
ENDMDL
MODEL 8
REMARK VINA RESULT:      -7.5      5.266      9.202
REMARK  Name = 
REMARK  7 active torsions:
REMARK  status: ('A' for Active; 'I' for Inactive)
REMARK    1  A    between atoms: C_1  and  C_2
REMARK    2  A    between atoms: C_4  and  C_5
REMARK    3  A    between atoms: C_5  and  N_6
REMARK    4  A    between atoms: C_9  and  N_10
REMARK    5  A    between atoms: N_10  and  S_11
REMARK    6  A    between atoms: S_11  and  N_14
REMARK    7  A    between atoms: C_25  and  C_26
REMARK                            x       y       z     vdW  Elec       q    Type
REMARK                         _______ _______ _______ _____ _____    ______ ____
ROOT
ATOM      1  N   UNL     1       7.151   5.301  16.513  0.00  0.00    +0.000 N 
ATOM      2  H   UNL     1       8.088   5.630  16.732  0.00  0.00    +0.000 HD
ENDROOT
BRANCH   1   6
ATOM      3  N   UNL     1       6.572   4.403  13.147  0.00  0.00    +0.000 N 
ATOM      4  N   UNL     1       7.654   5.202  13.046  0.00  0.00    +0.000 NA
ATOM      5  N   UNL     1       7.995   5.570  14.272  0.00  0.00    +0.000 NA
ATOM      6  C   UNL     1       7.084   5.045  15.146  0.00  0.00    +0.000 A 
ATOM      7  C   UNL     1       6.193   4.251  14.459  0.00  0.00    +0.000 A 
ATOM      8  C   UNL     1       5.053   3.418  14.901  0.00  0.00    +0.000 C 
BRANCH   3   9
ATOM      9  C   UNL     1       5.869   3.977  11.954  0.00  0.00    +0.000 C 
BRANCH   9  13
ATOM     10  C   UNL     1       5.901  -0.895  11.220  0.00  0.00    +0.000 C 
ATOM     11  C   UNL     1       6.208   0.544  11.276  0.00  0.00    +0.000 A 
ATOM     12  N   UNL     1       5.413   1.556  11.533  0.00  0.00    +0.000 NA
ATOM     13  C   UNL     1       6.283   2.619  11.536  0.00  0.00    +0.000 A 
ATOM     14  N   UNL     1       7.562   2.293  11.296  0.00  0.00    +0.000 NA
ATOM     15  O   UNL     1       7.512   0.908  11.109  0.00  0.00    +0.000 OA
ENDBRANCH   9  13
ENDBRANCH   3   9
ENDBRANCH   1   6
BRANCH   1  16
ATOM     16  S   UNL     1       6.128   6.531  17.053  0.00  0.00    +0.000 S 
ATOM     17  O   UNL     1       6.952   7.695  17.280  0.00  0.00    +0.000 OA
ATOM     18  O   UNL     1       4.946   6.582  16.232  0.00  0.00    +0.000 OA
BRANCH  16  19
ATOM     19  N   UNL     1       5.682   5.904  18.561  0.00  0.00    +0.000 NA
ATOM     20  C   UNL     1       4.376   6.289  19.137  0.00  0.00    +0.000 C 
ATOM     21  C   UNL     1       3.232   5.467  18.555  0.00  0.00    +0.000 C 
ATOM     22  C   UNL     1       3.460   3.934  18.638  0.00  0.00    +0.000 C 
ATOM     23  C   UNL     1       3.304   3.413  20.090  0.00  0.00    +0.000 C 
ATOM     24  C   UNL     1       1.889   3.577  20.637  0.00  0.00    +0.000 C 
ATOM     25  C   UNL     1       0.846   2.946  19.721  0.00  0.00    +0.000 C 
ATOM     26  C   UNL     1       0.988   3.376  18.263  0.00  0.00    +0.000 C 
ATOM     27  C   UNL     1       2.417   3.207  17.752  0.00  0.00    +0.000 C 
ATOM     28  C   UNL     1       4.880   3.596  18.117  0.00  0.00    +0.000 C 
ATOM     29  C   UNL     1       5.966   4.459  18.759  0.00  0.00    +0.000 C 
ENDBRANCH  16  19
ENDBRANCH   1  16
TORSDOF 5
ENDMDL
MODEL 9
REMARK VINA RESULT:      -7.4      2.145      2.786
REMARK  Name = 
REMARK  7 active torsions:
REMARK  status: ('A' for Active; 'I' for Inactive)
REMARK    1  A    between atoms: C_1  and  C_2
REMARK    2  A    between atoms: C_4  and  C_5
REMARK    3  A    between atoms: C_5  and  N_6
REMARK    4  A    between atoms: C_9  and  N_10
REMARK    5  A    between atoms: N_10  and  S_11
REMARK    6  A    between atoms: S_11  and  N_14
REMARK    7  A    between atoms: C_25  and  C_26
REMARK                            x       y       z     vdW  Elec       q    Type
REMARK                         _______ _______ _______ _____ _____    ______ ____
ROOT
ATOM      1  N   UNL     1       2.520   6.416  20.390  0.00  0.00    +0.000 N 
ATOM      2  H   UNL     1       2.407   6.093  21.347  0.00  0.00    +0.000 HD
ENDROOT
BRANCH   1   6
ATOM      3  N   UNL     1       1.024   9.515  19.599  0.00  0.00    +0.000 N 
ATOM      4  N   UNL     1       0.433   9.205  20.772  0.00  0.00    +0.000 NA
ATOM      5  N   UNL     1       0.958   8.064  21.194  0.00  0.00    +0.000 NA
ATOM      6  C   UNL     1       1.842   7.624  20.249  0.00  0.00    +0.000 A 
ATOM      7  C   UNL     1       1.944   8.559  19.243  0.00  0.00    +0.000 A 
ATOM      8  C   UNL     1       2.771   8.621  18.019  0.00  0.00    +0.000 C 
BRANCH   3   9
ATOM      9  C   UNL     1       0.535  10.630  18.813  0.00  0.00    +0.000 C 
BRANCH   9  13
ATOM     10  C   UNL     1      -3.341   9.573  15.962  0.00  0.00    +0.000 C 
ATOM     11  C   UNL     1      -2.433   9.942  17.061  0.00  0.00    +0.000 A 
ATOM     12  N   UNL     1      -1.135   9.782  17.158  0.00  0.00    +0.000 NA
ATOM     13  C   UNL     1      -0.852  10.402  18.351  0.00  0.00    +0.000 A 
ATOM     14  N   UNL     1      -1.918  10.930  18.971  0.00  0.00    +0.000 NA
ATOM     15  O   UNL     1      -2.978  10.613  18.117  0.00  0.00    +0.000 OA
ENDBRANCH   9  13
ENDBRANCH   3   9
ENDBRANCH   1   6
BRANCH   1  16
ATOM     16  S   UNL     1       1.921   5.155  19.439  0.00  0.00    +0.000 S 
ATOM     17  O   UNL     1       1.069   4.356  20.289  0.00  0.00    +0.000 OA
ATOM     18  O   UNL     1       1.470   5.667  18.171  0.00  0.00    +0.000 OA
BRANCH  16  19
ATOM     19  N   UNL     1       3.349   4.286  19.167  0.00  0.00    +0.000 NA
ATOM     20  C   UNL     1       3.469   3.477  17.936  0.00  0.00    +0.000 C 
ATOM     21  C   UNL     1       3.859   4.326  16.731  0.00  0.00    +0.000 C 
ATOM     22  C   UNL     1       5.123   5.197  16.965  0.00  0.00    +0.000 C 
ATOM     23  C   UNL     1       6.412   4.336  16.975  0.00  0.00    +0.000 C 
ATOM     24  C   UNL     1       6.700   3.672  15.630  0.00  0.00    +0.000 C 
ATOM     25  C   UNL     1       6.732   4.682  14.489  0.00  0.00    +0.000 C 
ATOM     26  C   UNL     1       5.512   5.600  14.465  0.00  0.00    +0.000 C 
ATOM     27  C   UNL     1       5.250   6.241  15.827  0.00  0.00    +0.000 C 
ATOM     28  C   UNL     1       4.990   5.944  18.316  0.00  0.00    +0.000 C 
ATOM     29  C   UNL     1       4.607   5.018  19.469  0.00  0.00    +0.000 C 
ENDBRANCH  16  19
ENDBRANCH   1  16
TORSDOF 5
ENDMDL
