MODEL 1
REMARK VINA RESULT:      -8.5      0.000      0.000
REMARK  Name = 
REMARK  7 active torsions:
REMARK  status: ('A' for Active; 'I' for Inactive)
REMARK    1  A    between atoms: C_1  and  C_2
REMARK    2  A    between atoms: C_5  and  C_6
REMARK    3  A    between atoms: N_11  and  C_12
REMARK    4  A    between atoms: C_12  and  C_13
REMARK    5  A    between atoms: C_13  and  C_14
REMARK    6  A    between atoms: C_14  and  C_15
REMARK    7  A    between atoms: C_20  and  C_21
REMARK                            x       y       z     vdW  Elec       q    Type
REMARK                         _______ _______ _______ _____ _____    ______ ____
ROOT
ATOM      1  C   UNL     1       1.771   8.469  19.568  0.00  0.00    +0.000 C 
ATOM      2  C   UNL     1       2.043   7.175  19.780  0.00  0.00    +0.000 C 
ATOM      3  S   UNL     1       1.452   6.185  21.051  0.00  0.00    +0.000 S 
ATOM      4  C   UNL     1       2.284   4.756  20.462  0.00  0.00    +0.000 C 
ATOM      5  S   UNL     1       2.137   3.279  21.223  0.00  0.00    +0.000 S 
ATOM      6  N   UNL     1       3.024   5.073  19.340  0.00  0.00    +0.000 N 
ATOM      7  C   UNL     1       2.936   6.383  18.890  0.00  0.00    +0.000 C 
ATOM      8  O   UNL     1       3.483   6.847  17.901  0.00  0.00    +0.000 OA
ENDROOT
BRANCH   1  13
ATOM      9  C   UNL     1      -1.598  11.705  22.967  0.00  0.00    +0.000 C 
ATOM     10  C   UNL     1      -0.715  10.878  22.079  0.00  0.00    +0.000 A 
ATOM     11  C   UNL     1      -0.752  11.028  20.688  0.00  0.00    +0.000 A 
ATOM     12  C   UNL     1       0.057  10.236  19.869  0.00  0.00    +0.000 A 
ATOM     13  C   UNL     1       0.914   9.285  20.432  0.00  0.00    +0.000 A 
ATOM     14  C   UNL     1       0.962   9.139  21.822  0.00  0.00    +0.000 A 
ATOM     15  C   UNL     1       0.152   9.932  22.639  0.00  0.00    +0.000 A 
ENDBRANCH   1  13
BRANCH   6  16
ATOM     16  C   UNL     1       3.841   4.122  18.585  0.00  0.00    +0.000 C 
BRANCH  16  17
ATOM     17  C   UNL     1       5.267   3.985  19.114  0.00  0.00    +0.000 C 
BRANCH  17  18
ATOM     18  C   UNL     1       6.106   5.270  19.144  0.00  0.00    +0.000 C 
BRANCH  18  19
ATOM     19  C   UNL     1       6.643   5.559  17.747  0.00  0.00    +0.000 C 
ATOM     20  O   UNL     1       7.271   6.589  17.521  0.00  0.00    +0.000 OA
ATOM     21  N   UNL     1       6.328   4.583  16.820  0.00  0.00    +0.000 N 
ATOM     22  C   UNL     1       6.751   4.655  15.501  0.00  0.00    +0.000 A 
ATOM     23  C   UNL     1       6.247   3.862  14.439  0.00  0.00    +0.000 A 
ATOM     24  C   UNL     1       6.898   4.326  13.321  0.00  0.00    +0.000 A 
ATOM     25  C   UNL     1       6.834   4.043  11.878  0.00  0.00    +0.000 C 
ATOM     26  O   UNL     1       7.783   5.284  13.690  0.00  0.00    +0.000 OA
ATOM     27  N   UNL     1       7.694   5.487  15.046  0.00  0.00    +0.000 NA
ATOM     28  H   UNL     1       5.673   3.851  17.056  0.00  0.00    +0.000 HD
ENDBRANCH  18  19
ENDBRANCH  17  18
ENDBRANCH  16  17
ENDBRANCH   6  16
TORSDOF 5
ENDMDL
MODEL 2
REMARK VINA RESULT:      -8.3      2.176      3.487
REMARK  Name = 
REMARK  7 active torsions:
REMARK  status: ('A' for Active; 'I' for Inactive)
REMARK    1  A    between atoms: C_1  and  C_2
REMARK    2  A    between atoms: C_5  and  C_6
REMARK    3  A    between atoms: N_11  and  C_12
REMARK    4  A    between atoms: C_12  and  C_13
REMARK    5  A    between atoms: C_13  and  C_14
REMARK    6  A    between atoms: C_14  and  C_15
REMARK    7  A    between atoms: C_20  and  C_21
REMARK                            x       y       z     vdW  Elec       q    Type
REMARK                         _______ _______ _______ _____ _____    ______ ____
ROOT
ATOM      1  C   UNL     1       2.025   8.320  19.323  0.00  0.00    +0.000 C 
ATOM      2  C   UNL     1       2.334   7.017  19.369  0.00  0.00    +0.000 C 
ATOM      3  S   UNL     1       1.802   5.864  20.523  0.00  0.00    +0.000 S 
ATOM      4  C   UNL     1       2.652   4.541  19.744  0.00  0.00    +0.000 C 
ATOM      5  S   UNL     1       2.563   2.979  20.322  0.00  0.00    +0.000 S 
ATOM      6  N   UNL     1       3.355   5.012  18.653  0.00  0.00    +0.000 N 
ATOM      7  C   UNL     1       3.222   6.365  18.368  0.00  0.00    +0.000 C 
ATOM      8  O   UNL     1       3.731   6.960  17.430  0.00  0.00    +0.000 OA
ENDROOT
BRANCH   1  13
ATOM      9  C   UNL     1      -1.348  10.980  23.186  0.00  0.00    +0.000 C 
ATOM     10  C   UNL     1      -0.478  10.274  22.188  0.00  0.00    +0.000 A 
ATOM     11  C   UNL     1       0.546   9.417  22.606  0.00  0.00    +0.000 A 
ATOM     12  C   UNL     1       1.366   8.784  21.668  0.00  0.00    +0.000 A 
ATOM     13  C   UNL     1       1.171   9.000  20.301  0.00  0.00    +0.000 A 
ATOM     14  C   UNL     1       0.142   9.847  19.878  0.00  0.00    +0.000 A 
ATOM     15  C   UNL     1      -0.677  10.480  20.817  0.00  0.00    +0.000 A 
ENDBRANCH   1  13
BRANCH   6  16
ATOM     16  C   UNL     1       4.175   4.184  17.767  0.00  0.00    +0.000 C 
BRANCH  16  17
ATOM     17  C   UNL     1       5.643   4.115  18.180  0.00  0.00    +0.000 C 
BRANCH  17  18
ATOM     18  C   UNL     1       6.673   4.340  17.065  0.00  0.00    +0.000 C 
BRANCH  18  19
ATOM     19  C   UNL     1       6.933   5.834  16.908  0.00  0.00    +0.000 C 
ATOM     20  O   UNL     1       6.594   6.422  15.886  0.00  0.00    +0.000 OA
ATOM     21  N   UNL     1       7.583   6.399  17.990  0.00  0.00    +0.000 N 
ATOM     22  C   UNL     1       7.883   7.752  18.046  0.00  0.00    +0.000 A 
ATOM     23  C   UNL     1       8.779   8.351  18.967  0.00  0.00    +0.000 A 
ATOM     24  C   UNL     1       8.817   9.676  18.602  0.00  0.00    +0.000 A 
ATOM     25  C   UNL     1       9.569  10.863  19.042  0.00  0.00    +0.000 C 
ATOM     26  O   UNL     1       7.953   9.877  17.577  0.00  0.00    +0.000 OA
ATOM     27  N   UNL     1       7.370   8.682  17.233  0.00  0.00    +0.000 NA
ATOM     28  H   UNL     1       7.965   5.810  18.717  0.00  0.00    +0.000 HD
ENDBRANCH  18  19
ENDBRANCH  17  18
ENDBRANCH  16  17
ENDBRANCH   6  16
TORSDOF 5
ENDMDL
MODEL 3
REMARK VINA RESULT:      -8.3      4.824     10.976
REMARK  Name = 
REMARK  7 active torsions:
REMARK  status: ('A' for Active; 'I' for Inactive)
REMARK    1  A    between atoms: C_1  and  C_2
REMARK    2  A    between atoms: C_5  and  C_6
REMARK    3  A    between atoms: N_11  and  C_12
REMARK    4  A    between atoms: C_12  and  C_13
REMARK    5  A    between atoms: C_13  and  C_14
REMARK    6  A    between atoms: C_14  and  C_15
REMARK    7  A    between atoms: C_20  and  C_21
REMARK                            x       y       z     vdW  Elec       q    Type
REMARK                         _______ _______ _______ _____ _____    ______ ____
ROOT
ATOM      1  C   UNL     1       2.566   7.011  17.900  0.00  0.00    +0.000 C 
ATOM      2  C   UNL     1       2.044   7.781  18.865  0.00  0.00    +0.000 C 
ATOM      3  S   UNL     1       1.680   7.319  20.477  0.00  0.00    +0.000 S 
ATOM      4  C   UNL     1       1.127   8.925  20.919  0.00  0.00    +0.000 C 
ATOM      5  S   UNL     1       0.615   9.282  22.466  0.00  0.00    +0.000 S 
ATOM      6  N   UNL     1       1.191   9.763  19.823  0.00  0.00    +0.000 N 
ATOM      7  C   UNL     1       1.699   9.213  18.654  0.00  0.00    +0.000 C 
ATOM      8  O   UNL     1       1.867   9.797  17.593  0.00  0.00    +0.000 OA
ENDROOT
BRANCH   1  13
ATOM      9  C   UNL     1       3.900   1.426  18.536  0.00  0.00    +0.000 C 
ATOM     10  C   UNL     1       3.566   2.878  18.359  0.00  0.00    +0.000 A 
ATOM     11  C   UNL     1       4.504   3.873  18.651  0.00  0.00    +0.000 A 
ATOM     12  C   UNL     1       4.174   5.223  18.506  0.00  0.00    +0.000 A 
ATOM     13  C   UNL     1       2.900   5.594  18.066  0.00  0.00    +0.000 A 
ATOM     14  C   UNL     1       1.962   4.603  17.762  0.00  0.00    +0.000 A 
ATOM     15  C   UNL     1       2.293   3.253  17.908  0.00  0.00    +0.000 A 
ENDBRANCH   1  13
BRANCH   6  16
ATOM     16  C   UNL     1       0.811  11.176  19.830  0.00  0.00    +0.000 C 
BRANCH  16  17
ATOM     17  C   UNL     1      -0.675  11.411  19.568  0.00  0.00    +0.000 C 
BRANCH  17  18
ATOM     18  C   UNL     1      -1.251  12.742  20.071  0.00  0.00    +0.000 C 
BRANCH  18  19
ATOM     19  C   UNL     1      -2.743  12.583  20.334  0.00  0.00    +0.000 C 
ATOM     20  O   UNL     1      -3.508  12.280  19.424  0.00  0.00    +0.000 OA
ATOM     21  N   UNL     1      -3.103  12.834  21.645  0.00  0.00    +0.000 N 
ATOM     22  C   UNL     1      -4.414  12.714  22.085  0.00  0.00    +0.000 A 
ATOM     23  C   UNL     1      -4.909  13.215  23.316  0.00  0.00    +0.000 A 
ATOM     24  C   UNL     1      -6.254  12.934  23.288  0.00  0.00    +0.000 A 
ATOM     25  C   UNL     1      -7.402  13.218  24.165  0.00  0.00    +0.000 C 
ATOM     26  O   UNL     1      -6.540  12.251  22.153  0.00  0.00    +0.000 OA
ATOM     27  N   UNL     1      -5.395  12.111  21.407  0.00  0.00    +0.000 NA
ATOM     28  H   UNL     1      -2.434  13.231  22.289  0.00  0.00    +0.000 HD
ENDBRANCH  18  19
ENDBRANCH  17  18
ENDBRANCH  16  17
ENDBRANCH   6  16
TORSDOF 5
ENDMDL
MODEL 4
REMARK VINA RESULT:      -8.2      3.072      4.299
REMARK  Name = 
REMARK  7 active torsions:
REMARK  status: ('A' for Active; 'I' for Inactive)
REMARK    1  A    between atoms: C_1  and  C_2
REMARK    2  A    between atoms: C_5  and  C_6
REMARK    3  A    between atoms: N_11  and  C_12
REMARK    4  A    between atoms: C_12  and  C_13
REMARK    5  A    between atoms: C_13  and  C_14
REMARK    6  A    between atoms: C_14  and  C_15
REMARK    7  A    between atoms: C_20  and  C_21
REMARK                            x       y       z     vdW  Elec       q    Type
REMARK                         _______ _______ _______ _____ _____    ______ ____
ROOT
ATOM      1  C   UNL     1       2.159   8.867  17.818  0.00  0.00    +0.000 C 
ATOM      2  C   UNL     1       2.532   7.733  18.426  0.00  0.00    +0.000 C 
ATOM      3  S   UNL     1       1.756   6.962  19.748  0.00  0.00    +0.000 S 
ATOM      4  C   UNL     1       2.896   5.627  19.769  0.00  0.00    +0.000 C 
ATOM      5  S   UNL     1       2.746   4.362  20.846  0.00  0.00    +0.000 S 
ATOM      6  N   UNL     1       3.863   5.820  18.802  0.00  0.00    +0.000 N 
ATOM      7  C   UNL     1       3.726   6.951  18.008  0.00  0.00    +0.000 C 
ATOM      8  O   UNL     1       4.454   7.276  17.081  0.00  0.00    +0.000 OA
ENDROOT
BRANCH   1  13
ATOM      9  C   UNL     1      -2.407  12.055  19.356  0.00  0.00    +0.000 C 
ATOM     10  C   UNL     1      -1.223  11.233  18.941  0.00  0.00    +0.000 A 
ATOM     11  C   UNL     1      -1.344  10.239  17.965  0.00  0.00    +0.000 A 
ATOM     12  C   UNL     1      -0.239   9.463  17.603  0.00  0.00    +0.000 A 
ATOM     13  C   UNL     1       1.001   9.674  18.214  0.00  0.00    +0.000 A 
ATOM     14  C   UNL     1       1.130  10.674  19.182  0.00  0.00    +0.000 A 
ATOM     15  C   UNL     1       0.024  11.448  19.543  0.00  0.00    +0.000 A 
ENDBRANCH   1  13
BRANCH   6  16
ATOM     16  C   UNL     1       4.971   4.901  18.535  0.00  0.00    +0.000 C 
BRANCH  16  17
ATOM     17  C   UNL     1       6.297   5.351  19.141  0.00  0.00    +0.000 C 
BRANCH  17  18
ATOM     18  C   UNL     1       7.494   5.418  18.182  0.00  0.00    +0.000 C 
BRANCH  18  19
ATOM     19  C   UNL     1       7.735   6.865  17.770  0.00  0.00    +0.000 C 
ATOM     20  O   UNL     1       7.474   7.243  16.632  0.00  0.00    +0.000 OA
ATOM     21  N   UNL     1       8.277   7.643  18.777  0.00  0.00    +0.000 N 
ATOM     22  C   UNL     1       8.542   8.994  18.603  0.00  0.00    +0.000 A 
ATOM     23  C   UNL     1       9.342   9.785  19.466  0.00  0.00    +0.000 A 
ATOM     24  C   UNL     1       9.384  11.020  18.865  0.00  0.00    +0.000 A 
ATOM     25  C   UNL     1      10.069  12.295  19.135  0.00  0.00    +0.000 C 
ATOM     26  O   UNL     1       8.608  10.997  17.754  0.00  0.00    +0.000 OA
ATOM     27  N   UNL     1       8.082   9.739  17.592  0.00  0.00    +0.000 NA
ATOM     28  H   UNL     1       8.607   7.213  19.629  0.00  0.00    +0.000 HD
ENDBRANCH  18  19
ENDBRANCH  17  18
ENDBRANCH  16  17
ENDBRANCH   6  16
TORSDOF 5
ENDMDL
MODEL 5
REMARK VINA RESULT:      -8.2      0.865      1.038
REMARK  Name = 
REMARK  7 active torsions:
REMARK  status: ('A' for Active; 'I' for Inactive)
REMARK    1  A    between atoms: C_1  and  C_2
REMARK    2  A    between atoms: C_5  and  C_6
REMARK    3  A    between atoms: N_11  and  C_12
REMARK    4  A    between atoms: C_12  and  C_13
REMARK    5  A    between atoms: C_13  and  C_14
REMARK    6  A    between atoms: C_14  and  C_15
REMARK    7  A    between atoms: C_20  and  C_21
REMARK                            x       y       z     vdW  Elec       q    Type
REMARK                         _______ _______ _______ _____ _____    ______ ____
ROOT
ATOM      1  C   UNL     1       1.910   8.210  18.407  0.00  0.00    +0.000 C 
ATOM      2  C   UNL     1       2.174   7.025  18.972  0.00  0.00    +0.000 C 
ATOM      3  S   UNL     1       1.545   6.416  20.448  0.00  0.00    +0.000 S 
ATOM      4  C   UNL     1       2.392   4.886  20.295  0.00  0.00    +0.000 C 
ATOM      5  S   UNL     1       2.222   3.672  21.426  0.00  0.00    +0.000 S 
ATOM      6  N   UNL     1       3.166   4.890  19.152  0.00  0.00    +0.000 N 
ATOM      7  C   UNL     1       3.092   6.027  18.359  0.00  0.00    +0.000 C 
ATOM      8  O   UNL     1       3.669   6.207  17.296  0.00  0.00    +0.000 OA
ENDROOT
BRANCH   1  13
ATOM      9  C   UNL     1      -1.557  12.226  20.694  0.00  0.00    +0.000 C 
ATOM     10  C   UNL     1      -0.649  11.195  20.090  0.00  0.00    +0.000 A 
ATOM     11  C   UNL     1      -0.698  10.907  18.723  0.00  0.00    +0.000 A 
ATOM     12  C   UNL     1       0.136   9.927  18.175  0.00  0.00    +0.000 A 
ATOM     13  C   UNL     1       1.028   9.225  18.991  0.00  0.00    +0.000 A 
ATOM     14  C   UNL     1       1.088   9.517  20.356  0.00  0.00    +0.000 A 
ATOM     15  C   UNL     1       0.254  10.497  20.902  0.00  0.00    +0.000 A 
ENDBRANCH   1  13
BRANCH   6  16
ATOM     16  C   UNL     1       4.004   3.775  18.708  0.00  0.00    +0.000 C 
BRANCH  16  17
ATOM     17  C   UNL     1       5.400   3.776  19.325  0.00  0.00    +0.000 C 
BRANCH  17  18
ATOM     18  C   UNL     1       6.146   5.118  19.314  0.00  0.00    +0.000 C 
BRANCH  18  19
ATOM     19  C   UNL     1       6.567   5.453  17.888  0.00  0.00    +0.000 C 
ATOM     20  O   UNL     1       7.045   6.552  17.621  0.00  0.00    +0.000 OA
ATOM     21  N   UNL     1       6.331   4.432  16.987  0.00  0.00    +0.000 N 
ATOM     22  C   UNL     1       6.672   4.538  15.646  0.00  0.00    +0.000 A 
ATOM     23  C   UNL     1       6.218   3.672  14.619  0.00  0.00    +0.000 A 
ATOM     24  C   UNL     1       6.745   4.199  13.464  0.00  0.00    +0.000 A 
ATOM     25  C   UNL     1       6.641   3.890  12.028  0.00  0.00    +0.000 C 
ATOM     26  O   UNL     1       7.517   5.268  13.778  0.00  0.00    +0.000 OA
ATOM     27  N   UNL     1       7.475   5.476  15.135  0.00  0.00    +0.000 NA
ATOM     28  H   UNL     1       5.790   3.625  17.263  0.00  0.00    +0.000 HD
ENDBRANCH  18  19
ENDBRANCH  17  18
ENDBRANCH  16  17
ENDBRANCH   6  16
TORSDOF 5
ENDMDL
MODEL 6
REMARK VINA RESULT:      -8.2      4.794      9.199
REMARK  Name = 
REMARK  7 active torsions:
REMARK  status: ('A' for Active; 'I' for Inactive)
REMARK    1  A    between atoms: C_1  and  C_2
REMARK    2  A    between atoms: C_5  and  C_6
REMARK    3  A    between atoms: N_11  and  C_12
REMARK    4  A    between atoms: C_12  and  C_13
REMARK    5  A    between atoms: C_13  and  C_14
REMARK    6  A    between atoms: C_14  and  C_15
REMARK    7  A    between atoms: C_20  and  C_21
REMARK                            x       y       z     vdW  Elec       q    Type
REMARK                         _______ _______ _______ _____ _____    ______ ____
ROOT
ATOM      1  C   UNL     1       1.838   8.936  18.262  0.00  0.00    +0.000 C 
ATOM      2  C   UNL     1       1.321   9.292  19.445  0.00  0.00    +0.000 C 
ATOM      3  S   UNL     1       1.300   8.367  20.890  0.00  0.00    +0.000 S 
ATOM      4  C   UNL     1       0.508   9.634  21.810  0.00  0.00    +0.000 C 
ATOM      5  S   UNL     1       0.170   9.458  23.434  0.00  0.00    +0.000 S 
ATOM      6  N   UNL     1       0.239  10.712  20.991  0.00  0.00    +0.000 N 
ATOM      7  C   UNL     1       0.668  10.610  19.674  0.00  0.00    +0.000 C 
ATOM      8  O   UNL     1       0.556  11.466  18.808  0.00  0.00    +0.000 OA
ENDROOT
BRANCH   1  13
ATOM      9  C   UNL     1       4.333   3.838  17.184  0.00  0.00    +0.000 C 
ATOM     10  C   UNL     1       3.686   5.165  17.448  0.00  0.00    +0.000 A 
ATOM     11  C   UNL     1       4.355   6.361  17.164  0.00  0.00    +0.000 A 
ATOM     12  C   UNL     1       3.751   7.592  17.436  0.00  0.00    +0.000 A 
ATOM     13  C   UNL     1       2.471   7.641  17.995  0.00  0.00    +0.000 A 
ATOM     14  C   UNL     1       1.794   6.449  18.270  0.00  0.00    +0.000 A 
ATOM     15  C   UNL     1       2.398   5.219  17.997  0.00  0.00    +0.000 A 
ENDBRANCH   1  13
BRANCH   6  16
ATOM     16  C   UNL     1      -0.412  11.949  21.425  0.00  0.00    +0.000 C 
BRANCH  16  17
ATOM     17  C   UNL     1      -1.937  11.871  21.422  0.00  0.00    +0.000 C 
BRANCH  17  18
ATOM     18  C   UNL     1      -2.671  12.968  20.638  0.00  0.00    +0.000 C 
BRANCH  18  19
ATOM     19  C   UNL     1      -3.403  12.345  19.456  0.00  0.00    +0.000 C 
ATOM     20  O   UNL     1      -4.605  12.105  19.523  0.00  0.00    +0.000 OA
ATOM     21  N   UNL     1      -2.584  12.081  18.374  0.00  0.00    +0.000 N 
ATOM     22  C   UNL     1      -3.073  11.539  17.194  0.00  0.00    +0.000 A 
ATOM     23  C   UNL     1      -2.276  10.984  16.161  0.00  0.00    +0.000 A 
ATOM     24  C   UNL     1      -3.182  10.512  15.241  0.00  0.00    +0.000 A 
ATOM     25  C   UNL     1      -3.097   9.761  13.977  0.00  0.00    +0.000 C 
ATOM     26  O   UNL     1      -4.434  10.821  15.655  0.00  0.00    +0.000 OA
ATOM     27  N   UNL     1      -4.367  11.463  16.868  0.00  0.00    +0.000 NA
ATOM     28  H   UNL     1      -1.582  12.164  18.464  0.00  0.00    +0.000 HD
ENDBRANCH  18  19
ENDBRANCH  17  18
ENDBRANCH  16  17
ENDBRANCH   6  16
TORSDOF 5
ENDMDL
MODEL 7
REMARK VINA RESULT:      -8.0      3.211      4.572
REMARK  Name = 
REMARK  7 active torsions:
REMARK  status: ('A' for Active; 'I' for Inactive)
REMARK    1  A    between atoms: C_1  and  C_2
REMARK    2  A    between atoms: C_5  and  C_6
REMARK    3  A    between atoms: N_11  and  C_12
REMARK    4  A    between atoms: C_12  and  C_13
REMARK    5  A    between atoms: C_13  and  C_14
REMARK    6  A    between atoms: C_14  and  C_15
REMARK    7  A    between atoms: C_20  and  C_21
REMARK                            x       y       z     vdW  Elec       q    Type
REMARK                         _______ _______ _______ _____ _____    ______ ____
ROOT
ATOM      1  C   UNL     1       2.884   8.212  17.607  0.00  0.00    +0.000 C 
ATOM      2  C   UNL     1       3.473   7.040  17.884  0.00  0.00    +0.000 C 
ATOM      3  S   UNL     1       3.227   6.058  19.269  0.00  0.00    +0.000 S 
ATOM      4  C   UNL     1       4.333   4.816  18.710  0.00  0.00    +0.000 C 
ATOM      5  S   UNL     1       4.599   3.419  19.583  0.00  0.00    +0.000 S 
ATOM      6  N   UNL     1       4.896   5.195  17.507  0.00  0.00    +0.000 N 
ATOM      7  C   UNL     1       4.464   6.403  16.976  0.00  0.00    +0.000 C 
ATOM      8  O   UNL     1       4.814   6.891  15.911  0.00  0.00    +0.000 OA
ENDROOT
BRANCH   1  13
ATOM      9  C   UNL     1      -0.933  10.821  21.071  0.00  0.00    +0.000 C 
ATOM     10  C   UNL     1       0.050  10.129  20.172  0.00  0.00    +0.000 A 
ATOM     11  C   UNL     1       0.764   9.011  20.613  0.00  0.00    +0.000 A 
ATOM     12  C   UNL     1       1.695   8.389  19.775  0.00  0.00    +0.000 A 
ATOM     13  C   UNL     1       1.919   8.879  18.485  0.00  0.00    +0.000 A 
ATOM     14  C   UNL     1       1.200   9.989  18.036  0.00  0.00    +0.000 A 
ATOM     15  C   UNL     1       0.270  10.610  18.875  0.00  0.00    +0.000 A 
ENDBRANCH   1  13
BRANCH   6  16
ATOM     16  C   UNL     1       5.862   4.397  16.750  0.00  0.00    +0.000 C 
BRANCH  16  17
ATOM     17  C   UNL     1       7.316   4.767  17.033  0.00  0.00    +0.000 C 
BRANCH  17  18
ATOM     18  C   UNL     1       7.566   5.631  18.277  0.00  0.00    +0.000 C 
BRANCH  18  19
ATOM     19  C   UNL     1       7.892   7.056  17.850  0.00  0.00    +0.000 C 
ATOM     20  O   UNL     1       7.764   7.402  16.679  0.00  0.00    +0.000 OA
ATOM     21  N   UNL     1       8.345   7.854  18.884  0.00  0.00    +0.000 N 
ATOM     22  C   UNL     1       8.667   9.191  18.698  0.00  0.00    +0.000 A 
ATOM     23  C   UNL     1       9.392   9.990  19.617  0.00  0.00    +0.000 A 
ATOM     24  C   UNL     1       9.533  11.203  18.986  0.00  0.00    +0.000 A 
ATOM     25  C   UNL     1      10.223  12.468  19.288  0.00  0.00    +0.000 C 
ATOM     26  O   UNL     1       8.880  11.162  17.799  0.00  0.00    +0.000 OA
ATOM     27  N   UNL     1       8.338   9.912  17.621  0.00  0.00    +0.000 NA
ATOM     28  H   UNL     1       8.570   7.445  19.780  0.00  0.00    +0.000 HD
ENDBRANCH  18  19
ENDBRANCH  17  18
ENDBRANCH  16  17
ENDBRANCH   6  16
TORSDOF 5
ENDMDL
MODEL 8
REMARK VINA RESULT:      -7.9      2.256      3.499
REMARK  Name = 
REMARK  7 active torsions:
REMARK  status: ('A' for Active; 'I' for Inactive)
REMARK    1  A    between atoms: C_1  and  C_2
REMARK    2  A    between atoms: C_5  and  C_6
REMARK    3  A    between atoms: N_11  and  C_12
REMARK    4  A    between atoms: C_12  and  C_13
REMARK    5  A    between atoms: C_13  and  C_14
REMARK    6  A    between atoms: C_14  and  C_15
REMARK    7  A    between atoms: C_20  and  C_21
REMARK                            x       y       z     vdW  Elec       q    Type
REMARK                         _______ _______ _______ _____ _____    ______ ____
ROOT
ATOM      1  C   UNL     1       2.077   8.086  19.287  0.00  0.00    +0.000 C 
ATOM      2  C   UNL     1       2.222   6.755  19.247  0.00  0.00    +0.000 C 
ATOM      3  S   UNL     1       1.477   5.599  20.273  0.00  0.00    +0.000 S 
ATOM      4  C   UNL     1       2.211   4.239  19.443  0.00  0.00    +0.000 C 
ATOM      5  S   UNL     1       1.894   2.663  19.889  0.00  0.00    +0.000 S 
ATOM      6  N   UNL     1       3.038   4.694  18.435  0.00  0.00    +0.000 N 
ATOM      7  C   UNL     1       3.090   6.069  18.251  0.00  0.00    +0.000 C 
ATOM      8  O   UNL     1       3.730   6.661  17.395  0.00  0.00    +0.000 OA
ENDROOT
BRANCH   1  13
ATOM      9  C   UNL     1      -1.198  10.868  23.148  0.00  0.00    +0.000 C 
ATOM     10  C   UNL     1      -0.353  10.131  22.152  0.00  0.00    +0.000 A 
ATOM     11  C   UNL     1       0.698   9.307  22.569  0.00  0.00    +0.000 A 
ATOM     12  C   UNL     1       1.494   8.644  21.631  0.00  0.00    +0.000 A 
ATOM     13  C   UNL     1       1.248   8.797  20.264  0.00  0.00    +0.000 A 
ATOM     14  C   UNL     1       0.193   9.611  19.841  0.00  0.00    +0.000 A 
ATOM     15  C   UNL     1      -0.603  10.274  20.780  0.00  0.00    +0.000 A 
ENDBRANCH   1  13
BRANCH   6  16
ATOM     16  C   UNL     1       3.809   3.834  17.536  0.00  0.00    +0.000 C 
BRANCH  16  17
ATOM     17  C   UNL     1       5.285   3.725  17.911  0.00  0.00    +0.000 C 
BRANCH  17  18
ATOM     18  C   UNL     1       6.271   4.490  17.017  0.00  0.00    +0.000 C 
BRANCH  18  19
ATOM     19  C   UNL     1       7.021   5.520  17.853  0.00  0.00    +0.000 C 
ATOM     20  O   UNL     1       7.407   5.244  18.984  0.00  0.00    +0.000 OA
ATOM     21  N   UNL     1       7.177   6.739  17.218  0.00  0.00    +0.000 N 
ATOM     22  C   UNL     1       7.858   7.795  17.807  0.00  0.00    +0.000 A 
ATOM     23  C   UNL     1       7.822   9.139  17.357  0.00  0.00    +0.000 A 
ATOM     24  C   UNL     1       8.573   9.831  18.277  0.00  0.00    +0.000 A 
ATOM     25  C   UNL     1       8.910  11.247  18.502  0.00  0.00    +0.000 C 
ATOM     26  O   UNL     1       9.083   8.958  19.179  0.00  0.00    +0.000 OA
ATOM     27  N   UNL     1       8.642   7.691  18.885  0.00  0.00    +0.000 NA
ATOM     28  H   UNL     1       6.690   6.927  16.354  0.00  0.00    +0.000 HD
ENDBRANCH  18  19
ENDBRANCH  17  18
ENDBRANCH  16  17
ENDBRANCH   6  16
TORSDOF 5
ENDMDL
MODEL 9
REMARK VINA RESULT:      -7.9      2.329      3.424
REMARK  Name = 
REMARK  7 active torsions:
REMARK  status: ('A' for Active; 'I' for Inactive)
REMARK    1  A    between atoms: C_1  and  C_2
REMARK    2  A    between atoms: C_5  and  C_6
REMARK    3  A    between atoms: N_11  and  C_12
REMARK    4  A    between atoms: C_12  and  C_13
REMARK    5  A    between atoms: C_13  and  C_14
REMARK    6  A    between atoms: C_14  and  C_15
REMARK    7  A    between atoms: C_20  and  C_21
REMARK                            x       y       z     vdW  Elec       q    Type
REMARK                         _______ _______ _______ _____ _____    ______ ____
ROOT
ATOM      1  C   UNL     1       1.954   8.507  19.384  0.00  0.00    +0.000 C 
ATOM      2  C   UNL     1       2.233   7.197  19.406  0.00  0.00    +0.000 C 
ATOM      3  S   UNL     1       1.623   6.024  20.499  0.00  0.00    +0.000 S 
ATOM      4  C   UNL     1       2.481   4.705  19.723  0.00  0.00    +0.000 C 
ATOM      5  S   UNL     1       2.332   3.129  20.250  0.00  0.00    +0.000 S 
ATOM      6  N   UNL     1       3.244   5.191  18.679  0.00  0.00    +0.000 N 
ATOM      7  C   UNL     1       3.154   6.553  18.429  0.00  0.00    +0.000 C 
ATOM      8  O   UNL     1       3.720   7.164  17.534  0.00  0.00    +0.000 OA
ENDROOT
BRANCH   1  13
ATOM      9  C   UNL     1      -1.526  11.174  23.146  0.00  0.00    +0.000 C 
ATOM     10  C   UNL     1      -0.617  10.496  22.164  0.00  0.00    +0.000 A 
ATOM     11  C   UNL     1      -0.760  10.705  20.788  0.00  0.00    +0.000 A 
ATOM     12  C   UNL     1       0.078  10.049  19.881  0.00  0.00    +0.000 A 
ATOM     13  C   UNL     1       1.070   9.178  20.341  0.00  0.00    +0.000 A 
ATOM     14  C   UNL     1       1.224   8.975  21.715  0.00  0.00    +0.000 A 
ATOM     15  C   UNL     1       0.385   9.630  22.621  0.00  0.00    +0.000 A 
ENDBRANCH   1  13
BRANCH   6  16
ATOM     16  C   UNL     1       4.088   4.370  17.809  0.00  0.00    +0.000 C 
BRANCH  16  17
ATOM     17  C   UNL     1       5.460   4.059  18.403  0.00  0.00    +0.000 C 
BRANCH  17  18
ATOM     18  C   UNL     1       6.674   4.521  17.585  0.00  0.00    +0.000 C 
BRANCH  18  19
ATOM     19  C   UNL     1       7.354   5.685  18.297  0.00  0.00    +0.000 C 
ATOM     20  O   UNL     1       7.747   5.565  19.454  0.00  0.00    +0.000 OA
ATOM     21  N   UNL     1       7.443   6.829  17.526  0.00  0.00    +0.000 N 
ATOM     22  C   UNL     1       8.054   7.985  17.990  0.00  0.00    +0.000 A 
ATOM     23  C   UNL     1       7.941   9.264  17.389  0.00  0.00    +0.000 A 
ATOM     24  C   UNL     1       8.642  10.102  18.223  0.00  0.00    +0.000 A 
ATOM     25  C   UNL     1       8.892  11.551  18.283  0.00  0.00    +0.000 C 
ATOM     26  O   UNL     1       9.196   9.370  19.220  0.00  0.00    +0.000 OA
ATOM     27  N   UNL     1       8.834   8.054  19.074  0.00  0.00    +0.000 NA
ATOM     28  H   UNL     1       6.952   6.887  16.646  0.00  0.00    +0.000 HD
ENDBRANCH  18  19
ENDBRANCH  17  18
ENDBRANCH  16  17
ENDBRANCH   6  16
TORSDOF 5
ENDMDL
