MODEL 1
REMARK VINA RESULT:      -8.2      0.000      0.000
REMARK  Name = 
REMARK  4 active torsions:
REMARK  status: ('A' for Active; 'I' for Inactive)
REMARK    1  A    between atoms: C_1  and  N_2
REMARK    2  A    between atoms: C_3  and  C_5
REMARK    3  A    between atoms: N_8  and  C_9
REMARK    4  A    between atoms: C_14  and  C_15
REMARK                            x       y       z     vdW  Elec       q    Type
REMARK                         _______ _______ _______ _____ _____    ______ ____
ROOT
ATOM      1  C   UNL     1       4.242   4.184  18.195  0.00  0.00    +0.000 A 
ATOM      2  C   UNL     1       3.759   3.236  17.289  0.00  0.00    +0.000 A 
ATOM      3  C   UNL     1       2.564   2.539  17.511  0.00  0.00    +0.000 A 
ATOM      4  C   UNL     1       1.821   2.752  18.672  0.00  0.00    +0.000 A 
ATOM      5 CL   UNL     1       0.347   1.868  18.820  0.00  0.00    +0.000 Cl
ATOM      6  C   UNL     1       2.287   3.641  19.636  0.00  0.00    +0.000 A 
ATOM      7  C   UNL     1       3.507   4.320  19.386  0.00  0.00    +0.000 A 
ENDROOT
BRANCH   1  11
ATOM      8  C   UNL     1       7.571   5.718  18.535  0.00  0.00    +0.000 C 
ATOM      9  C   UNL     1       7.693   4.658  17.455  0.00  0.00    +0.000 C 
ATOM     10  C   UNL     1       6.296   4.565  16.856  0.00  0.00    +0.000 C 
ATOM     11  N   UNL     1       5.387   4.937  17.954  0.00  0.00    +0.000 N 
ATOM     12  C   UNL     1       6.157   5.523  19.071  0.00  0.00    +0.000 C 
BRANCH   8  15
ATOM     13  C   UNL     1       8.770   9.339  18.503  0.00  0.00    +0.000 C 
ATOM     14  N   UNL     1       8.480   7.984  18.899  0.00  0.00    +0.000 N 
ATOM     15  C   UNL     1       7.898   7.107  18.019  0.00  0.00    +0.000 C 
ATOM     16  O   UNL     1       7.574   7.441  16.879  0.00  0.00    +0.000 OA
ATOM     17  H   UNL     1       8.655   7.700  19.859  0.00  0.00    +0.000 HD
ENDBRANCH   8  15
ENDBRANCH   1  11
BRANCH   6  18
ATOM     18  C   UNL     1       1.589   3.946  20.934  0.00  0.00    +0.000 C 
ATOM     19  F   UNL     1       1.302   2.891  21.738  0.00  0.00    +0.000 F 
ATOM     20  F   UNL     1       2.313   4.808  21.706  0.00  0.00    +0.000 F 
ATOM     21  F   UNL     1       0.392   4.573  20.725  0.00  0.00    +0.000 F 
ENDBRANCH   6  18
TORSDOF 3
ENDMDL
MODEL 2
REMARK VINA RESULT:      -7.6      1.248      1.494
REMARK  Name = 
REMARK  4 active torsions:
REMARK  status: ('A' for Active; 'I' for Inactive)
REMARK    1  A    between atoms: C_1  and  N_2
REMARK    2  A    between atoms: C_3  and  C_5
REMARK    3  A    between atoms: N_8  and  C_9
REMARK    4  A    between atoms: C_14  and  C_15
REMARK                            x       y       z     vdW  Elec       q    Type
REMARK                         _______ _______ _______ _____ _____    ______ ____
ROOT
ATOM      1  C   UNL     1       3.986   4.635  18.297  0.00  0.00    +0.000 A 
ATOM      2  C   UNL     1       3.348   3.959  17.254  0.00  0.00    +0.000 A 
ATOM      3  C   UNL     1       2.285   3.075  17.484  0.00  0.00    +0.000 A 
ATOM      4  C   UNL     1       1.842   2.816  18.782  0.00  0.00    +0.000 A 
ATOM      5 CL   UNL     1       0.502   1.742  18.942  0.00  0.00    +0.000 Cl
ATOM      6  C   UNL     1       2.482   3.417  19.861  0.00  0.00    +0.000 A 
ATOM      7  C   UNL     1       3.563   4.296  19.595  0.00  0.00    +0.000 A 
ENDROOT
BRANCH   1  11
ATOM      8  C   UNL     1       7.094   6.249  17.162  0.00  0.00    +0.000 C 
ATOM      9  C   UNL     1       5.973   6.833  16.322  0.00  0.00    +0.000 C 
ATOM     10  C   UNL     1       4.741   6.735  17.211  0.00  0.00    +0.000 C 
ATOM     11  N   UNL     1       4.992   5.571  18.079  0.00  0.00    +0.000 N 
ATOM     12  C   UNL     1       6.405   5.151  17.967  0.00  0.00    +0.000 C 
BRANCH   8  15
ATOM     13  C   UNL     1       8.532   9.638  18.160  0.00  0.00    +0.000 C 
ATOM     14  N   UNL     1       7.818   8.588  17.479  0.00  0.00    +0.000 N 
ATOM     15  C   UNL     1       7.820   7.307  17.972  0.00  0.00    +0.000 C 
ATOM     16  O   UNL     1       8.447   6.996  18.985  0.00  0.00    +0.000 OA
ATOM     17  H   UNL     1       7.362   8.791  16.594  0.00  0.00    +0.000 HD
ENDBRANCH   8  15
ENDBRANCH   1  11
BRANCH   6  18
ATOM     18  C   UNL     1       2.112   3.210  21.306  0.00  0.00    +0.000 C 
ATOM     19  F   UNL     1       0.819   2.889  21.566  0.00  0.00    +0.000 F 
ATOM     20  F   UNL     1       2.856   2.222  21.882  0.00  0.00    +0.000 F 
ATOM     21  F   UNL     1       2.361   4.327  22.053  0.00  0.00    +0.000 F 
ENDBRANCH   6  18
TORSDOF 3
ENDMDL
MODEL 3
REMARK VINA RESULT:      -7.4      2.748      3.866
REMARK  Name = 
REMARK  4 active torsions:
REMARK  status: ('A' for Active; 'I' for Inactive)
REMARK    1  A    between atoms: C_1  and  N_2
REMARK    2  A    between atoms: C_3  and  C_5
REMARK    3  A    between atoms: N_8  and  C_9
REMARK    4  A    between atoms: C_14  and  C_15
REMARK                            x       y       z     vdW  Elec       q    Type
REMARK                         _______ _______ _______ _____ _____    ______ ____
ROOT
ATOM      1  C   UNL     1       3.922   5.696  17.732  0.00  0.00    +0.000 A 
ATOM      2  C   UNL     1       3.514   7.028  17.839  0.00  0.00    +0.000 A 
ATOM      3  C   UNL     1       2.652   7.459  18.857  0.00  0.00    +0.000 A 
ATOM      4  C   UNL     1       2.143   6.556  19.790  0.00  0.00    +0.000 A 
ATOM      5 CL   UNL     1       1.123   7.206  21.019  0.00  0.00    +0.000 Cl
ATOM      6  C   UNL     1       2.470   5.207  19.692  0.00  0.00    +0.000 A 
ATOM      7  C   UNL     1       3.335   4.801  18.643  0.00  0.00    +0.000 A 
ENDROOT
BRANCH   1  11
ATOM      8  C   UNL     1       6.915   5.428  15.605  0.00  0.00    +0.000 C 
ATOM      9  C   UNL     1       6.993   4.289  16.604  0.00  0.00    +0.000 C 
ATOM     10  C   UNL     1       5.541   3.986  16.949  0.00  0.00    +0.000 C 
ATOM     11  N   UNL     1       4.835   5.267  16.773  0.00  0.00    +0.000 N 
ATOM     12  C   UNL     1       5.707   6.233  16.071  0.00  0.00    +0.000 C 
BRANCH   8  15
ATOM     13  C   UNL     1       5.893   3.390  12.547  0.00  0.00    +0.000 C 
ATOM     14  N   UNL     1       5.961   3.950  13.873  0.00  0.00    +0.000 N 
ATOM     15  C   UNL     1       6.869   4.935  14.171  0.00  0.00    +0.000 C 
ATOM     16  O   UNL     1       7.675   5.355  13.341  0.00  0.00    +0.000 OA
ATOM     17  H   UNL     1       5.369   3.567  14.604  0.00  0.00    +0.000 HD
ENDBRANCH   8  15
ENDBRANCH   1  11
BRANCH   6  18
ATOM     18  C   UNL     1       1.977   4.132  20.624  0.00  0.00    +0.000 C 
ATOM     19  F   UNL     1       2.320   4.252  21.932  0.00  0.00    +0.000 F 
ATOM     20  F   UNL     1       0.617   4.036  20.610  0.00  0.00    +0.000 F 
ATOM     21  F   UNL     1       2.427   2.897  20.248  0.00  0.00    +0.000 F 
ENDBRANCH   6  18
TORSDOF 3
ENDMDL
MODEL 4
REMARK VINA RESULT:      -7.3      5.239      7.270
REMARK  Name = 
REMARK  4 active torsions:
REMARK  status: ('A' for Active; 'I' for Inactive)
REMARK    1  A    between atoms: C_1  and  N_2
REMARK    2  A    between atoms: C_3  and  C_5
REMARK    3  A    between atoms: N_8  and  C_9
REMARK    4  A    between atoms: C_14  and  C_15
REMARK                            x       y       z     vdW  Elec       q    Type
REMARK                         _______ _______ _______ _____ _____    ______ ____
ROOT
ATOM      1  C   UNL     1       5.307   4.234  16.300  0.00  0.00    +0.000 A 
ATOM      2  C   UNL     1       6.435   5.018  16.556  0.00  0.00    +0.000 A 
ATOM      3  C   UNL     1       7.333   5.379  15.543  0.00  0.00    +0.000 A 
ATOM      4  C   UNL     1       7.143   4.938  14.233  0.00  0.00    +0.000 A 
ATOM      5 CL   UNL     1       8.289   5.477  13.061  0.00  0.00    +0.000 Cl
ATOM      6  C   UNL     1       6.068   4.106  13.935  0.00  0.00    +0.000 A 
ATOM      7  C   UNL     1       5.186   3.749  14.986  0.00  0.00    +0.000 A 
ENDROOT
BRANCH   1  11
ATOM      8  C   UNL     1       2.173   4.046  18.223  0.00  0.00    +0.000 C 
ATOM      9  C   UNL     1       2.366   2.686  17.578  0.00  0.00    +0.000 C 
ATOM     10  C   UNL     1       3.875   2.548  17.425  0.00  0.00    +0.000 C 
ATOM     11  N   UNL     1       4.368   3.929  17.281  0.00  0.00    +0.000 N 
ATOM     12  C   UNL     1       3.298   4.888  17.628  0.00  0.00    +0.000 C 
BRANCH   8  15
ATOM     13  C   UNL     1       1.500   2.693  21.726  0.00  0.00    +0.000 C 
ATOM     14  N   UNL     1       1.621   2.823  20.295  0.00  0.00    +0.000 N 
ATOM     15  C   UNL     1       2.136   3.966  19.738  0.00  0.00    +0.000 C 
ATOM     16  O   UNL     1       2.484   4.929  20.421  0.00  0.00    +0.000 OA
ATOM     17  H   UNL     1       1.264   2.083  19.698  0.00  0.00    +0.000 HD
ENDBRANCH   8  15
ENDBRANCH   1  11
BRANCH   6  18
ATOM     18  C   UNL     1       5.762   3.553  12.568  0.00  0.00    +0.000 C 
ATOM     19  F   UNL     1       6.430   4.101  11.522  0.00  0.00    +0.000 F 
ATOM     20  F   UNL     1       6.009   2.213  12.499  0.00  0.00    +0.000 F 
ATOM     21  F   UNL     1       4.437   3.688  12.258  0.00  0.00    +0.000 F 
ENDBRANCH   6  18
TORSDOF 3
ENDMDL
MODEL 5
REMARK VINA RESULT:      -7.2      2.380      3.562
REMARK  Name = 
REMARK  4 active torsions:
REMARK  status: ('A' for Active; 'I' for Inactive)
REMARK    1  A    between atoms: C_1  and  N_2
REMARK    2  A    between atoms: C_3  and  C_5
REMARK    3  A    between atoms: N_8  and  C_9
REMARK    4  A    between atoms: C_14  and  C_15
REMARK                            x       y       z     vdW  Elec       q    Type
REMARK                         _______ _______ _______ _____ _____    ______ ____
ROOT
ATOM      1  C   UNL     1       4.631   3.736  18.252  0.00  0.00    +0.000 A 
ATOM      2  C   UNL     1       5.152   3.269  19.461  0.00  0.00    +0.000 A 
ATOM      3  C   UNL     1       4.328   2.793  20.490  0.00  0.00    +0.000 A 
ATOM      4  C   UNL     1       2.940   2.796  20.349  0.00  0.00    +0.000 A 
ATOM      5 CL   UNL     1       2.028   2.151  21.663  0.00  0.00    +0.000 Cl
ATOM      6  C   UNL     1       2.366   3.306  19.189  0.00  0.00    +0.000 A 
ATOM      7  C   UNL     1       3.228   3.792  18.172  0.00  0.00    +0.000 A 
ENDROOT
BRANCH   1  11
ATOM      8  C   UNL     1       6.085   5.697  15.496  0.00  0.00    +0.000 C 
ATOM      9  C   UNL     1       7.063   5.789  16.654  0.00  0.00    +0.000 C 
ATOM     10  C   UNL     1       6.846   4.500  17.437  0.00  0.00    +0.000 C 
ATOM     11  N   UNL     1       5.439   4.142  17.194  0.00  0.00    +0.000 N 
ATOM     12  C   UNL     1       4.889   4.963  16.094  0.00  0.00    +0.000 C 
BRANCH   8  15
ATOM     13  C   UNL     1       6.515   3.409  12.474  0.00  0.00    +0.000 C 
ATOM     14  N   UNL     1       5.973   4.100  13.618  0.00  0.00    +0.000 N 
ATOM     15  C   UNL     1       6.706   5.061  14.267  0.00  0.00    +0.000 C 
ATOM     16  O   UNL     1       7.854   5.350  13.927  0.00  0.00    +0.000 OA
ATOM     17  H   UNL     1       5.063   3.826  13.977  0.00  0.00    +0.000 HD
ENDBRANCH   8  15
ENDBRANCH   1  11
BRANCH   6  18
ATOM     18  C   UNL     1       0.886   3.379  18.921  0.00  0.00    +0.000 C 
ATOM     19  F   UNL     1       0.236   2.200  18.753  0.00  0.00    +0.000 F 
ATOM     20  F   UNL     1       0.223   4.023  19.924  0.00  0.00    +0.000 F 
ATOM     21  F   UNL     1       0.616   4.101  17.792  0.00  0.00    +0.000 F 
ENDBRANCH   6  18
TORSDOF 3
ENDMDL
MODEL 6
REMARK VINA RESULT:      -7.2      5.312      7.262
REMARK  Name = 
REMARK  4 active torsions:
REMARK  status: ('A' for Active; 'I' for Inactive)
REMARK    1  A    between atoms: C_1  and  N_2
REMARK    2  A    between atoms: C_3  and  C_5
REMARK    3  A    between atoms: N_8  and  C_9
REMARK    4  A    between atoms: C_14  and  C_15
REMARK                            x       y       z     vdW  Elec       q    Type
REMARK                         _______ _______ _______ _____ _____    ______ ____
ROOT
ATOM      1  C   UNL     1       5.335   4.212  16.205  0.00  0.00    +0.000 A 
ATOM      2  C   UNL     1       6.482   4.977  16.431  0.00  0.00    +0.000 A 
ATOM      3  C   UNL     1       7.359   5.322  15.394  0.00  0.00    +0.000 A 
ATOM      4  C   UNL     1       7.127   4.884  14.090  0.00  0.00    +0.000 A 
ATOM      5 CL   UNL     1       8.250   5.404  12.888  0.00  0.00    +0.000 Cl
ATOM      6  C   UNL     1       6.031   4.070  13.821  0.00  0.00    +0.000 A 
ATOM      7  C   UNL     1       5.171   3.728  14.895  0.00  0.00    +0.000 A 
ENDROOT
BRANCH   1  11
ATOM      8  C   UNL     1       2.950   4.559  18.989  0.00  0.00    +0.000 C 
ATOM      9  C   UNL     1       2.127   4.250  17.751  0.00  0.00    +0.000 C 
ATOM     10  C   UNL     1       3.067   3.448  16.861  0.00  0.00    +0.000 C 
ATOM     11  N   UNL     1       4.416   3.923  17.210  0.00  0.00    +0.000 N 
ATOM     12  C   UNL     1       4.364   4.735  18.445  0.00  0.00    +0.000 C 
BRANCH   8  15
ATOM     13  C   UNL     1       1.383   2.571  21.842  0.00  0.00    +0.000 C 
ATOM     14  N   UNL     1       1.598   3.501  20.763  0.00  0.00    +0.000 N 
ATOM     15  C   UNL     1       2.782   3.508  20.070  0.00  0.00    +0.000 C 
ATOM     16  O   UNL     1       3.712   2.754  20.355  0.00  0.00    +0.000 OA
ATOM     17  H   UNL     1       0.885   4.196  20.557  0.00  0.00    +0.000 HD
ENDBRANCH   8  15
ENDBRANCH   1  11
BRANCH   6  18
ATOM     18  C   UNL     1       5.680   3.521  12.464  0.00  0.00    +0.000 C 
ATOM     19  F   UNL     1       4.380   3.613  12.084  0.00  0.00    +0.000 F 
ATOM     20  F   UNL     1       6.394   4.128  11.472  0.00  0.00    +0.000 F 
ATOM     21  F   UNL     1       5.989   2.193  12.365  0.00  0.00    +0.000 F 
ENDBRANCH   6  18
TORSDOF 3
ENDMDL
MODEL 7
REMARK VINA RESULT:      -7.1      4.686      5.399
REMARK  Name = 
REMARK  4 active torsions:
REMARK  status: ('A' for Active; 'I' for Inactive)
REMARK    1  A    between atoms: C_1  and  N_2
REMARK    2  A    between atoms: C_3  and  C_5
REMARK    3  A    between atoms: N_8  and  C_9
REMARK    4  A    between atoms: C_14  and  C_15
REMARK                            x       y       z     vdW  Elec       q    Type
REMARK                         _______ _______ _______ _____ _____    ______ ____
ROOT
ATOM      1  C   UNL     1       2.537   7.012  18.701  0.00  0.00    +0.000 A 
ATOM      2  C   UNL     1       3.594   6.743  17.828  0.00  0.00    +0.000 A 
ATOM      3  C   UNL     1       3.953   5.433  17.480  0.00  0.00    +0.000 A 
ATOM      4  C   UNL     1       3.275   4.341  18.023  0.00  0.00    +0.000 A 
ATOM      5 CL   UNL     1       3.777   2.778  17.492  0.00  0.00    +0.000 Cl
ATOM      6  C   UNL     1       2.253   4.552  18.943  0.00  0.00    +0.000 A 
ATOM      7  C   UNL     1       1.924   5.889  19.284  0.00  0.00    +0.000 A 
ENDROOT
BRANCH   1  11
ATOM      8  C   UNL     1       0.698  10.202  18.682  0.00  0.00    +0.000 C 
ATOM      9  C   UNL     1       0.279   9.470  19.943  0.00  0.00    +0.000 C 
ATOM     10  C   UNL     1       1.476   8.595  20.291  0.00  0.00    +0.000 C 
ATOM     11  N   UNL     1       2.122   8.307  18.998  0.00  0.00    +0.000 N 
ATOM     12  C   UNL     1       1.564   9.184  17.947  0.00  0.00    +0.000 C 
BRANCH   8  15
ATOM     13  C   UNL     1       2.853  13.317  18.231  0.00  0.00    +0.000 C 
ATOM     14  N   UNL     1       2.150  12.079  18.003  0.00  0.00    +0.000 N 
ATOM     15  C   UNL     1       1.355  11.536  18.981  0.00  0.00    +0.000 C 
ATOM     16  O   UNL     1       1.233  12.057  20.090  0.00  0.00    +0.000 OA
ATOM     17  H   UNL     1       2.296  11.579  17.131  0.00  0.00    +0.000 HD
ENDBRANCH   8  15
ENDBRANCH   1  11
BRANCH   6  18
ATOM     18  C   UNL     1       1.457   3.462  19.610  0.00  0.00    +0.000 C 
ATOM     19  F   UNL     1       2.159   2.513  20.280  0.00  0.00    +0.000 F 
ATOM     20  F   UNL     1       0.568   3.966  20.514  0.00  0.00    +0.000 F 
ATOM     21  F   UNL     1       0.696   2.773  18.707  0.00  0.00    +0.000 F 
ENDBRANCH   6  18
TORSDOF 3
ENDMDL
MODEL 8
REMARK VINA RESULT:      -7.1      2.314      3.385
REMARK  Name = 
REMARK  4 active torsions:
REMARK  status: ('A' for Active; 'I' for Inactive)
REMARK    1  A    between atoms: C_1  and  N_2
REMARK    2  A    between atoms: C_3  and  C_5
REMARK    3  A    between atoms: N_8  and  C_9
REMARK    4  A    between atoms: C_14  and  C_15
REMARK                            x       y       z     vdW  Elec       q    Type
REMARK                         _______ _______ _______ _____ _____    ______ ____
ROOT
ATOM      1  C   UNL     1       4.643   3.892  18.495  0.00  0.00    +0.000 A 
ATOM      2  C   UNL     1       4.775   2.668  19.155  0.00  0.00    +0.000 A 
ATOM      3  C   UNL     1       3.912   2.288  20.192  0.00  0.00    +0.000 A 
ATOM      4  C   UNL     1       2.898   3.143  20.624  0.00  0.00    +0.000 A 
ATOM      5 CL   UNL     1       1.872   2.555  21.880  0.00  0.00    +0.000 Cl
ATOM      6  C   UNL     1       2.761   4.399  20.041  0.00  0.00    +0.000 A 
ATOM      7  C   UNL     1       3.659   4.758  19.003  0.00  0.00    +0.000 A 
ENDROOT
BRANCH   1  11
ATOM      8  C   UNL     1       6.121   5.760  15.687  0.00  0.00    +0.000 C 
ATOM      9  C   UNL     1       7.125   5.823  16.823  0.00  0.00    +0.000 C 
ATOM     10  C   UNL     1       6.871   4.554  17.626  0.00  0.00    +0.000 C 
ATOM     11  N   UNL     1       5.445   4.252  17.416  0.00  0.00    +0.000 N 
ATOM     12  C   UNL     1       4.908   5.083  16.318  0.00  0.00    +0.000 C 
BRANCH   8  15
ATOM     13  C   UNL     1       6.367   3.461  12.653  0.00  0.00    +0.000 C 
ATOM     14  N   UNL     1       5.882   4.186  13.800  0.00  0.00    +0.000 N 
ATOM     15  C   UNL     1       6.688   5.085  14.453  0.00  0.00    +0.000 C 
ATOM     16  O   UNL     1       7.854   5.287  14.112  0.00  0.00    +0.000 OA
ATOM     17  H   UNL     1       4.954   3.980  14.161  0.00  0.00    +0.000 HD
ENDBRANCH   8  15
ENDBRANCH   1  11
BRANCH   6  18
ATOM     18  C   UNL     1       1.720   5.417  20.425  0.00  0.00    +0.000 C 
ATOM     19  F   UNL     1       1.877   6.029  21.627  0.00  0.00    +0.000 F 
ATOM     20  F   UNL     1       1.637   6.425  19.510  0.00  0.00    +0.000 F 
ATOM     21  F   UNL     1       0.470   4.866  20.464  0.00  0.00    +0.000 F 
ENDBRANCH   6  18
TORSDOF 3
ENDMDL
MODEL 9
REMARK VINA RESULT:      -7.1      2.740      3.865
REMARK  Name = 
REMARK  4 active torsions:
REMARK  status: ('A' for Active; 'I' for Inactive)
REMARK    1  A    between atoms: C_1  and  N_2
REMARK    2  A    between atoms: C_3  and  C_5
REMARK    3  A    between atoms: N_8  and  C_9
REMARK    4  A    between atoms: C_14  and  C_15
REMARK                            x       y       z     vdW  Elec       q    Type
REMARK                         _______ _______ _______ _____ _____    ______ ____
ROOT
ATOM      1  C   UNL     1       3.999   5.059  17.466  0.00  0.00    +0.000 A 
ATOM      2  C   UNL     1       3.696   6.349  17.907  0.00  0.00    +0.000 A 
ATOM      3  C   UNL     1       2.787   6.583  18.948  0.00  0.00    +0.000 A 
ATOM      4  C   UNL     1       2.125   5.522  19.567  0.00  0.00    +0.000 A 
ATOM      5 CL   UNL     1       1.059   5.925  20.861  0.00  0.00    +0.000 Cl
ATOM      6  C   UNL     1       2.345   4.221  19.125  0.00  0.00    +0.000 A 
ATOM      7  C   UNL     1       3.261   4.020  18.061  0.00  0.00    +0.000 A 
ENDROOT
BRANCH   1  11
ATOM      8  C   UNL     1       6.922   5.368  15.249  0.00  0.00    +0.000 C 
ATOM      9  C   UNL     1       7.260   4.289  16.261  0.00  0.00    +0.000 C 
ATOM     10  C   UNL     1       5.912   3.702  16.656  0.00  0.00    +0.000 C 
ATOM     11  N   UNL     1       4.953   4.807  16.485  0.00  0.00    +0.000 N 
ATOM     12  C   UNL     1       5.587   5.917  15.742  0.00  0.00    +0.000 C 
BRANCH   8  15
ATOM     13  C   UNL     1       6.180   3.151  12.235  0.00  0.00    +0.000 C 
ATOM     14  N   UNL     1       6.175   3.740  13.551  0.00  0.00    +0.000 N 
ATOM     15  C   UNL     1       6.938   4.847  13.824  0.00  0.00    +0.000 C 
ATOM     16  O   UNL     1       7.673   5.361  12.981  0.00  0.00    +0.000 OA
ATOM     17  H   UNL     1       5.647   3.290  14.294  0.00  0.00    +0.000 HD
ENDBRANCH   8  15
ENDBRANCH   1  11
BRANCH   6  18
ATOM     18  C   UNL     1       1.685   2.995  19.697  0.00  0.00    +0.000 C 
ATOM     19  F   UNL     1       0.327   2.971  19.691  0.00  0.00    +0.000 F 
ATOM     20  F   UNL     1       2.073   1.861  19.045  0.00  0.00    +0.000 F 
ATOM     21  F   UNL     1       2.040   2.796  21.002  0.00  0.00    +0.000 F 
ENDBRANCH   6  18
TORSDOF 3
ENDMDL
