MODEL 1
REMARK VINA RESULT:      -6.2      0.000      0.000
REMARK  Name = 
REMARK  5 active torsions:
REMARK  status: ('A' for Active; 'I' for Inactive)
REMARK    1  A    between atoms: N_1  and  C_2
REMARK    2  A    between atoms: C_2  and  C_3
REMARK    3  A    between atoms: C_3  and  O_4
REMARK    4  A    between atoms: O_4  and  C_5
REMARK    5  A    between atoms: C_9  and  C_10
REMARK                            x       y       z     vdW  Elec       q    Type
REMARK                         _______ _______ _______ _____ _____    ______ ____
ROOT
ATOM      1  C   UNL     1       4.575   3.910  18.880  0.00  0.00    +0.000 A 
ATOM      2  C   UNL     1       4.461   3.889  17.501  0.00  0.00    +0.000 A 
ATOM      3  C   UNL     1       3.210   3.629  16.952  0.00  0.00    +0.000 A 
ATOM      4  C   UNL     1       2.121   3.421  17.795  0.00  0.00    +0.000 A 
ATOM      5  C   UNL     1       2.310   3.478  19.177  0.00  0.00    +0.000 A 
ATOM      6  N   UNL     1       3.536   3.725  19.718  0.00  0.00    +0.000 NA
ENDROOT
BRANCH   5   7
ATOM      7  C   UNL     1       1.139   3.268  20.124  0.00  0.00    +0.000 C 
ATOM      8  F   UNL     1       0.603   4.436  20.590  0.00  0.00    +0.000 F 
ATOM      9  F   UNL     1       0.100   2.598  19.548  0.00  0.00    +0.000 F 
ATOM     10  F   UNL     1       1.475   2.555  21.238  0.00  0.00    +0.000 F 
ENDBRANCH   5   7
BRANCH   1  11
ATOM     11  O   UNL     1       5.823   4.171  19.409  0.00  0.00    +0.000 OA
BRANCH  11  12
ATOM     12  C   UNL     1       6.328   5.435  18.955  0.00  0.00    +0.000 C 
BRANCH  12  13
ATOM     13  C   UNL     1       7.807   5.299  18.578  0.00  0.00    +0.000 C 
BRANCH  13  14
ATOM     14  N   UNL     1       8.057   4.171  17.676  0.00  0.00    +0.000 NA
ATOM     15  H   UNL     1       7.177   3.696  17.484  0.00  0.00    +0.000 HD
ATOM     16  H   UNL     1       8.647   3.497  18.166  0.00  0.00    +0.000 HD
ENDBRANCH  13  14
ENDBRANCH  12  13
ENDBRANCH  11  12
ENDBRANCH   1  11
TORSDOF 5
ENDMDL
MODEL 2
REMARK VINA RESULT:      -6.1      1.389      1.729
REMARK  Name = 
REMARK  5 active torsions:
REMARK  status: ('A' for Active; 'I' for Inactive)
REMARK    1  A    between atoms: N_1  and  C_2
REMARK    2  A    between atoms: C_2  and  C_3
REMARK    3  A    between atoms: C_3  and  O_4
REMARK    4  A    between atoms: O_4  and  C_5
REMARK    5  A    between atoms: C_9  and  C_10
REMARK                            x       y       z     vdW  Elec       q    Type
REMARK                         _______ _______ _______ _____ _____    ______ ____
ROOT
ATOM      1  C   UNL     1       4.688   4.560  18.908  0.00  0.00    +0.000 A 
ATOM      2  C   UNL     1       4.407   5.638  18.088  0.00  0.00    +0.000 A 
ATOM      3  C   UNL     1       3.079   5.874  17.748  0.00  0.00    +0.000 A 
ATOM      4  C   UNL     1       2.084   5.042  18.255  0.00  0.00    +0.000 A 
ATOM      5  C   UNL     1       2.443   3.986  19.095  0.00  0.00    +0.000 A 
ATOM      6  N   UNL     1       3.743   3.747  19.422  0.00  0.00    +0.000 NA
ENDROOT
BRANCH   5   7
ATOM      7  C   UNL     1       1.378   3.067  19.674  0.00  0.00    +0.000 C 
ATOM      8  F   UNL     1       1.893   1.959  20.286  0.00  0.00    +0.000 F 
ATOM      9  F   UNL     1       0.604   3.675  20.619  0.00  0.00    +0.000 F 
ATOM     10  F   UNL     1       0.514   2.590  18.732  0.00  0.00    +0.000 F 
ENDBRANCH   5   7
BRANCH   1  11
ATOM     11  O   UNL     1       6.010   4.340  19.238  0.00  0.00    +0.000 OA
BRANCH  11  12
ATOM     12  C   UNL     1       6.893   5.026  18.338  0.00  0.00    +0.000 C 
BRANCH  12  13
ATOM     13  C   UNL     1       7.879   5.888  19.134  0.00  0.00    +0.000 C 
BRANCH  13  14
ATOM     14  N   UNL     1       8.087   5.393  20.498  0.00  0.00    +0.000 NA
ATOM     15  H   UNL     1       8.956   5.776  20.864  0.00  0.00    +0.000 HD
ATOM     16  H   UNL     1       8.216   4.380  20.451  0.00  0.00    +0.000 HD
ENDBRANCH  13  14
ENDBRANCH  12  13
ENDBRANCH  11  12
ENDBRANCH   1  11
TORSDOF 5
ENDMDL
MODEL 3
REMARK VINA RESULT:      -5.9      1.261      1.368
REMARK  Name = 
REMARK  5 active torsions:
REMARK  status: ('A' for Active; 'I' for Inactive)
REMARK    1  A    between atoms: N_1  and  C_2
REMARK    2  A    between atoms: C_2  and  C_3
REMARK    3  A    between atoms: C_3  and  O_4
REMARK    4  A    between atoms: O_4  and  C_5
REMARK    5  A    between atoms: C_9  and  C_10
REMARK                            x       y       z     vdW  Elec       q    Type
REMARK                         _______ _______ _______ _____ _____    ______ ____
ROOT
ATOM      1  C   UNL     1       4.197   4.173  18.255  0.00  0.00    +0.000 A 
ATOM      2  C   UNL     1       3.784   3.339  17.231  0.00  0.00    +0.000 A 
ATOM      3  C   UNL     1       2.594   2.639  17.397  0.00  0.00    +0.000 A 
ATOM      4  C   UNL     1       1.853   2.813  18.564  0.00  0.00    +0.000 A 
ATOM      5  C   UNL     1       2.324   3.688  19.544  0.00  0.00    +0.000 A 
ATOM      6  N   UNL     1       3.493   4.369  19.387  0.00  0.00    +0.000 NA
ENDROOT
BRANCH   5   7
ATOM      7  C   UNL     1       1.532   3.910  20.823  0.00  0.00    +0.000 C 
ATOM      8  F   UNL     1       0.581   4.885  20.709  0.00  0.00    +0.000 F 
ATOM      9  F   UNL     1       0.862   2.796  21.236  0.00  0.00    +0.000 F 
ATOM     10  F   UNL     1       2.314   4.290  21.875  0.00  0.00    +0.000 F 
ENDBRANCH   5   7
BRANCH   1  11
ATOM     11  O   UNL     1       5.380   4.862  18.074  0.00  0.00    +0.000 OA
BRANCH  11  12
ATOM     12  C   UNL     1       5.918   5.313  19.326  0.00  0.00    +0.000 C 
BRANCH  12  13
ATOM     13  C   UNL     1       7.407   5.637  19.165  0.00  0.00    +0.000 C 
BRANCH  13  14
ATOM     14  N   UNL     1       8.157   5.475  20.413  0.00  0.00    +0.000 NA
ATOM     15  H   UNL     1       7.508   5.493  21.198  0.00  0.00    +0.000 HD
ATOM     16  H   UNL     1       8.766   6.288  20.525  0.00  0.00    +0.000 HD
ENDBRANCH  13  14
ENDBRANCH  12  13
ENDBRANCH  11  12
ENDBRANCH   1  11
TORSDOF 5
ENDMDL
MODEL 4
REMARK VINA RESULT:      -5.9      0.820      1.107
REMARK  Name = 
REMARK  5 active torsions:
REMARK  status: ('A' for Active; 'I' for Inactive)
REMARK    1  A    between atoms: N_1  and  C_2
REMARK    2  A    between atoms: C_2  and  C_3
REMARK    3  A    between atoms: C_3  and  O_4
REMARK    4  A    between atoms: O_4  and  C_5
REMARK    5  A    between atoms: C_9  and  C_10
REMARK                            x       y       z     vdW  Elec       q    Type
REMARK                         _______ _______ _______ _____ _____    ______ ____
ROOT
ATOM      1  C   UNL     1       4.629   3.822  18.699  0.00  0.00    +0.000 A 
ATOM      2  C   UNL     1       4.181   3.627  17.404  0.00  0.00    +0.000 A 
ATOM      3  C   UNL     1       2.818   3.437  17.205  0.00  0.00    +0.000 A 
ATOM      4  C   UNL     1       1.955   3.471  18.298  0.00  0.00    +0.000 A 
ATOM      5  C   UNL     1       2.478   3.694  19.572  0.00  0.00    +0.000 A 
ATOM      6  N   UNL     1       3.814   3.872  19.771  0.00  0.00    +0.000 NA
ENDROOT
BRANCH   5   7
ATOM      7  C   UNL     1       1.560   3.749  20.783  0.00  0.00    +0.000 C 
ATOM      8  F   UNL     1       2.225   3.967  21.957  0.00  0.00    +0.000 F 
ATOM      9  F   UNL     1       0.630   4.744  20.704  0.00  0.00    +0.000 F 
ATOM     10  F   UNL     1       0.860   2.594  20.974  0.00  0.00    +0.000 F 
ENDBRANCH   5   7
BRANCH   1  11
ATOM     11  O   UNL     1       5.985   4.011  18.880  0.00  0.00    +0.000 OA
BRANCH  11  12
ATOM     12  C   UNL     1       6.292   5.392  19.124  0.00  0.00    +0.000 C 
BRANCH  12  13
ATOM     13  C   UNL     1       7.577   5.778  18.383  0.00  0.00    +0.000 C 
BRANCH  13  14
ATOM     14  N   UNL     1       7.442   5.668  16.928  0.00  0.00    +0.000 NA
ATOM     15  H   UNL     1       7.778   4.755  16.629  0.00  0.00    +0.000 HD
ATOM     16  H   UNL     1       8.063   6.358  16.500  0.00  0.00    +0.000 HD
ENDBRANCH  13  14
ENDBRANCH  12  13
ENDBRANCH  11  12
ENDBRANCH   1  11
TORSDOF 5
ENDMDL
MODEL 5
REMARK VINA RESULT:      -5.9      1.268      1.684
REMARK  Name = 
REMARK  5 active torsions:
REMARK  status: ('A' for Active; 'I' for Inactive)
REMARK    1  A    between atoms: N_1  and  C_2
REMARK    2  A    between atoms: C_2  and  C_3
REMARK    3  A    between atoms: C_3  and  O_4
REMARK    4  A    between atoms: O_4  and  C_5
REMARK    5  A    between atoms: C_9  and  C_10
REMARK                            x       y       z     vdW  Elec       q    Type
REMARK                         _______ _______ _______ _____ _____    ______ ____
ROOT
ATOM      1  C   UNL     1       4.750   4.057  18.614  0.00  0.00    +0.000 A 
ATOM      2  C   UNL     1       4.291   3.748  17.346  0.00  0.00    +0.000 A 
ATOM      3  C   UNL     1       2.918   3.629  17.158  0.00  0.00    +0.000 A 
ATOM      4  C   UNL     1       2.058   3.842  18.233  0.00  0.00    +0.000 A 
ATOM      5  C   UNL     1       2.595   4.171  19.479  0.00  0.00    +0.000 A 
ATOM      6  N   UNL     1       3.940   4.281  19.668  0.00  0.00    +0.000 NA
ENDROOT
BRANCH   5   7
ATOM      7  C   UNL     1       1.683   4.422  20.669  0.00  0.00    +0.000 C 
ATOM      8  F   UNL     1       0.546   3.664  20.650  0.00  0.00    +0.000 F 
ATOM      9  F   UNL     1       2.278   4.152  21.866  0.00  0.00    +0.000 F 
ATOM     10  F   UNL     1       1.252   5.715  20.747  0.00  0.00    +0.000 F 
ENDBRANCH   5   7
BRANCH   1  11
ATOM     11  O   UNL     1       6.115   4.173  18.784  0.00  0.00    +0.000 OA
BRANCH  11  12
ATOM     12  C   UNL     1       6.739   4.744  17.624  0.00  0.00    +0.000 C 
BRANCH  12  13
ATOM     13  C   UNL     1       7.433   6.057  17.999  0.00  0.00    +0.000 C 
BRANCH  13  14
ATOM     14  N   UNL     1       7.609   6.950  16.851  0.00  0.00    +0.000 NA
ATOM     15  H   UNL     1       8.555   6.846  16.488  0.00  0.00    +0.000 HD
ATOM     16  H   UNL     1       7.533   7.913  17.183  0.00  0.00    +0.000 HD
ENDBRANCH  13  14
ENDBRANCH  12  13
ENDBRANCH  11  12
ENDBRANCH   1  11
TORSDOF 5
ENDMDL
MODEL 6
REMARK VINA RESULT:      -5.9      1.134      1.533
REMARK  Name = 
REMARK  5 active torsions:
REMARK  status: ('A' for Active; 'I' for Inactive)
REMARK    1  A    between atoms: N_1  and  C_2
REMARK    2  A    between atoms: C_2  and  C_3
REMARK    3  A    between atoms: C_3  and  O_4
REMARK    4  A    between atoms: O_4  and  C_5
REMARK    5  A    between atoms: C_9  and  C_10
REMARK                            x       y       z     vdW  Elec       q    Type
REMARK                         _______ _______ _______ _____ _____    ______ ____
ROOT
ATOM      1  C   UNL     1       4.156   4.331  18.283  0.00  0.00    +0.000 A 
ATOM      2  C   UNL     1       3.690   3.551  17.239  0.00  0.00    +0.000 A 
ATOM      3  C   UNL     1       2.707   2.607  17.516  0.00  0.00    +0.000 A 
ATOM      4  C   UNL     1       2.213   2.492  18.813  0.00  0.00    +0.000 A 
ATOM      5  C   UNL     1       2.718   3.328  19.810  0.00  0.00    +0.000 A 
ATOM      6  N   UNL     1       3.686   4.248  19.544  0.00  0.00    +0.000 NA
ENDROOT
BRANCH   5   7
ATOM      7  C   UNL     1       2.190   3.235  21.233  0.00  0.00    +0.000 C 
ATOM      8  F   UNL     1       0.855   2.950  21.299  0.00  0.00    +0.000 F 
ATOM      9  F   UNL     1       2.804   2.264  21.969  0.00  0.00    +0.000 F 
ATOM     10  F   UNL     1       2.346   4.394  21.937  0.00  0.00    +0.000 F 
ENDBRANCH   5   7
BRANCH   1  11
ATOM     11  O   UNL     1       5.131   5.264  17.993  0.00  0.00    +0.000 OA
BRANCH  11  12
ATOM     12  C   UNL     1       6.209   5.206  18.939  0.00  0.00    +0.000 C 
BRANCH  12  13
ATOM     13  C   UNL     1       7.546   5.397  18.215  0.00  0.00    +0.000 C 
BRANCH  13  14
ATOM     14  N   UNL     1       8.053   4.152  17.631  0.00  0.00    +0.000 NA
ATOM     15  H   UNL     1       7.771   4.102  16.654  0.00  0.00    +0.000 HD
ATOM     16  H   UNL     1       7.595   3.371  18.104  0.00  0.00    +0.000 HD
ENDBRANCH  13  14
ENDBRANCH  12  13
ENDBRANCH  11  12
ENDBRANCH   1  11
TORSDOF 5
ENDMDL
MODEL 7
REMARK VINA RESULT:      -5.8      1.111      1.617
REMARK  Name = 
REMARK  5 active torsions:
REMARK  status: ('A' for Active; 'I' for Inactive)
REMARK    1  A    between atoms: N_1  and  C_2
REMARK    2  A    between atoms: C_2  and  C_3
REMARK    3  A    between atoms: C_3  and  O_4
REMARK    4  A    between atoms: O_4  and  C_5
REMARK    5  A    between atoms: C_9  and  C_10
REMARK                            x       y       z     vdW  Elec       q    Type
REMARK                         _______ _______ _______ _____ _____    ______ ____
ROOT
ATOM      1  C   UNL     1       4.184   4.725  18.361  0.00  0.00    +0.000 A 
ATOM      2  C   UNL     1       3.595   4.221  17.215  0.00  0.00    +0.000 A 
ATOM      3  C   UNL     1       2.530   3.338  17.361  0.00  0.00    +0.000 A 
ATOM      4  C   UNL     1       2.082   3.011  18.638  0.00  0.00    +0.000 A 
ATOM      5  C   UNL     1       2.713   3.576  19.747  0.00  0.00    +0.000 A 
ATOM      6  N   UNL     1       3.762   4.434  19.607  0.00  0.00    +0.000 NA
ENDROOT
BRANCH   5   7
ATOM      7  C   UNL     1       2.239   3.248  21.154  0.00  0.00    +0.000 C 
ATOM      8  F   UNL     1       2.993   2.289  21.770  0.00  0.00    +0.000 F 
ATOM      9  F   UNL     1       2.266   4.324  21.992  0.00  0.00    +0.000 F 
ATOM     10  F   UNL     1       0.958   2.777  21.189  0.00  0.00    +0.000 F 
ENDBRANCH   5   7
BRANCH   1  11
ATOM     11  O   UNL     1       5.239   5.602  18.200  0.00  0.00    +0.000 OA
BRANCH  11  12
ATOM     12  C   UNL     1       6.315   5.294  19.098  0.00  0.00    +0.000 C 
BRANCH  12  13
ATOM     13  C   UNL     1       7.655   5.406  18.362  0.00  0.00    +0.000 C 
BRANCH  13  14
ATOM     14  N   UNL     1       8.029   4.163  17.682  0.00  0.00    +0.000 NA
ATOM     15  H   UNL     1       8.935   4.287  17.235  0.00  0.00    +0.000 HD
ATOM     16  H   UNL     1       7.357   3.998  16.930  0.00  0.00    +0.000 HD
ENDBRANCH  13  14
ENDBRANCH  12  13
ENDBRANCH  11  12
ENDBRANCH   1  11
TORSDOF 5
ENDMDL
MODEL 8
REMARK VINA RESULT:      -5.7      1.290      1.364
REMARK  Name = 
REMARK  5 active torsions:
REMARK  status: ('A' for Active; 'I' for Inactive)
REMARK    1  A    between atoms: N_1  and  C_2
REMARK    2  A    between atoms: C_2  and  C_3
REMARK    3  A    between atoms: C_3  and  O_4
REMARK    4  A    between atoms: O_4  and  C_5
REMARK    5  A    between atoms: C_9  and  C_10
REMARK                            x       y       z     vdW  Elec       q    Type
REMARK                         _______ _______ _______ _____ _____    ______ ____
ROOT
ATOM      1  C   UNL     1       4.793   4.090  18.579  0.00  0.00    +0.000 A 
ATOM      2  C   UNL     1       4.329   3.718  17.329  0.00  0.00    +0.000 A 
ATOM      3  C   UNL     1       2.955   3.591  17.153  0.00  0.00    +0.000 A 
ATOM      4  C   UNL     1       2.099   3.860  18.218  0.00  0.00    +0.000 A 
ATOM      5  C   UNL     1       2.641   4.251  19.444  0.00  0.00    +0.000 A 
ATOM      6  N   UNL     1       3.986   4.368  19.622  0.00  0.00    +0.000 NA
ENDROOT
BRANCH   5   7
ATOM      7  C   UNL     1       1.733   4.565  20.622  0.00  0.00    +0.000 C 
ATOM      8  F   UNL     1       1.474   5.899  20.768  0.00  0.00    +0.000 F 
ATOM      9  F   UNL     1       0.510   3.967  20.528  0.00  0.00    +0.000 F 
ATOM     10  F   UNL     1       2.254   4.166  21.819  0.00  0.00    +0.000 F 
ENDBRANCH   5   7
BRANCH   1  11
ATOM     11  O   UNL     1       6.159   4.213  18.738  0.00  0.00    +0.000 OA
BRANCH  11  12
ATOM     12  C   UNL     1       6.535   5.576  18.984  0.00  0.00    +0.000 C 
BRANCH  12  13
ATOM     13  C   UNL     1       7.422   6.085  17.843  0.00  0.00    +0.000 C 
BRANCH  13  14
ATOM     14  N   UNL     1       6.703   6.972  16.924  0.00  0.00    +0.000 NA
ATOM     15  H   UNL     1       5.758   7.120  17.273  0.00  0.00    +0.000 HD
ATOM     16  H   UNL     1       6.606   6.490  16.028  0.00  0.00    +0.000 HD
ENDBRANCH  13  14
ENDBRANCH  12  13
ENDBRANCH  11  12
ENDBRANCH   1  11
TORSDOF 5
ENDMDL
MODEL 9
REMARK VINA RESULT:      -5.7      1.646      2.140
REMARK  Name = 
REMARK  5 active torsions:
REMARK  status: ('A' for Active; 'I' for Inactive)
REMARK    1  A    between atoms: N_1  and  C_2
REMARK    2  A    between atoms: C_2  and  C_3
REMARK    3  A    between atoms: C_3  and  O_4
REMARK    4  A    between atoms: O_4  and  C_5
REMARK    5  A    between atoms: C_9  and  C_10
REMARK                            x       y       z     vdW  Elec       q    Type
REMARK                         _______ _______ _______ _____ _____    ______ ____
ROOT
ATOM      1  C   UNL     1       4.151   3.974  18.258  0.00  0.00    +0.000 A 
ATOM      2  C   UNL     1       3.197   4.216  17.285  0.00  0.00    +0.000 A 
ATOM      3  C   UNL     1       1.858   4.115  17.643  0.00  0.00    +0.000 A 
ATOM      4  C   UNL     1       1.520   3.800  18.957  0.00  0.00    +0.000 A 
ATOM      5  C   UNL     1       2.538   3.590  19.888  0.00  0.00    +0.000 A 
ATOM      6  N   UNL     1       3.852   3.680  19.539  0.00  0.00    +0.000 NA
ENDROOT
BRANCH   5   7
ATOM      7  C   UNL     1       2.203   3.257  21.334  0.00  0.00    +0.000 C 
ATOM      8  F   UNL     1       2.966   2.246  21.848  0.00  0.00    +0.000 F 
ATOM      9  F   UNL     1       2.381   4.311  22.181  0.00  0.00    +0.000 F 
ATOM     10  F   UNL     1       0.910   2.854  21.502  0.00  0.00    +0.000 F 
ENDBRANCH   5   7
BRANCH   1  11
ATOM     11  O   UNL     1       5.477   4.080  17.888  0.00  0.00    +0.000 OA
BRANCH  11  12
ATOM     12  C   UNL     1       5.635   4.945  16.754  0.00  0.00    +0.000 C 
BRANCH  12  13
ATOM     13  C   UNL     1       6.659   4.347  15.783  0.00  0.00    +0.000 C 
BRANCH  13  14
ATOM     14  N   UNL     1       7.440   5.372  15.086  0.00  0.00    +0.000 NA
ATOM     15  H   UNL     1       8.143   4.920  14.505  0.00  0.00    +0.000 HD
ATOM     16  H   UNL     1       7.951   5.913  15.787  0.00  0.00    +0.000 HD
ENDBRANCH  13  14
ENDBRANCH  12  13
ENDBRANCH  11  12
ENDBRANCH   1  11
TORSDOF 5
ENDMDL
