MODEL 1
REMARK VINA RESULT:      -8.2      0.000      0.000
REMARK  Name = 
REMARK  3 active torsions:
REMARK  status: ('A' for Active; 'I' for Inactive)
REMARK    1  A    between atoms: C_1  and  N_2
REMARK    2  A    between atoms: C_9  and  C_10
REMARK    3  A    between atoms: C_14  and  C_15
REMARK                            x       y       z     vdW  Elec       q    Type
REMARK                         _______ _______ _______ _____ _____    ______ ____
ROOT
ATOM      1  C   UNL     1       2.743   2.319  18.636  0.00  0.00    +0.000 C 
ATOM      2  N   UNL     1       3.300   3.627  18.828  0.00  0.00    +0.000 N 
ATOM      3  C   UNL     1       3.085   4.458  19.946  0.00  0.00    +0.000 A 
ATOM      4  O   UNL     1       2.410   4.220  20.933  0.00  0.00    +0.000 OA
ATOM      5  N   UNL     1       3.802   5.633  19.711  0.00  0.00    +0.000 N 
ATOM      6  C   UNL     1       4.441   5.540  18.486  0.00  0.00    +0.000 A 
ATOM      7  N   UNL     1       5.206   6.473  17.926  0.00  0.00    +0.000 NA
ATOM      8  C   UNL     1       5.696   6.110  16.711  0.00  0.00    +0.000 A 
ATOM      9  C   UNL     1       5.475   4.875  16.047  0.00  0.00    +0.000 A 
ATOM     10  C   UNL     1       4.652   3.941  16.709  0.00  0.00    +0.000 A 
ATOM     11  C   UNL     1       4.138   4.301  17.936  0.00  0.00    +0.000 A 
ATOM     12  H   UNL     1       3.848   6.426  20.326  0.00  0.00    +0.000 HD
ENDROOT
BRANCH   9  13
ATOM     13  C   UNL     1       6.070   4.607  14.718  0.00  0.00    +0.000 A 
ATOM     14  C   UNL     1       7.232   5.276  14.291  0.00  0.00    +0.000 A 
ATOM     15  C   UNL     1       7.764   5.079  13.016  0.00  0.00    +0.000 A 
ATOM     16  C   UNL     1       7.157   4.188  12.133  0.00  0.00    +0.000 A 
ATOM     17  C   UNL     1       6.016   3.485  12.527  0.00  0.00    +0.000 A 
ATOM     18  C   UNL     1       5.486   3.700  13.814  0.00  0.00    +0.000 A 
BRANCH  17  19
ATOM     19  C   UNL     1       5.311   2.513  11.642  0.00  0.00    +0.000 C 
ATOM     20  N   UNL     1       5.907   1.311  11.377  0.00  0.00    +0.000 N 
ATOM     21  O   UNL     1       4.218   2.774  11.152  0.00  0.00    +0.000 OA
ATOM     22  H   UNL     1       6.807   1.015  11.715  0.00  0.00    +0.000 HD
ATOM     23  H   UNL     1       5.408   0.686  10.756  0.00  0.00    +0.000 HD
ENDBRANCH  17  19
ENDBRANCH   9  13
TORSDOF 2
ENDMDL
MODEL 2
REMARK VINA RESULT:      -8.0      2.050      7.108
REMARK  Name = 
REMARK  3 active torsions:
REMARK  status: ('A' for Active; 'I' for Inactive)
REMARK    1  A    between atoms: C_1  and  N_2
REMARK    2  A    between atoms: C_9  and  C_10
REMARK    3  A    between atoms: C_14  and  C_15
REMARK                            x       y       z     vdW  Elec       q    Type
REMARK                         _______ _______ _______ _____ _____    ______ ____
ROOT
ATOM      1  C   UNL     1       5.597   3.496  12.589  0.00  0.00    +0.000 C 
ATOM      2  N   UNL     1       6.287   4.235  13.606  0.00  0.00    +0.000 N 
ATOM      3  C   UNL     1       7.436   5.027  13.411  0.00  0.00    +0.000 A 
ATOM      4  O   UNL     1       8.034   5.230  12.369  0.00  0.00    +0.000 OA
ATOM      5  N   UNL     1       7.776   5.549  14.662  0.00  0.00    +0.000 N 
ATOM      6  C   UNL     1       6.871   5.095  15.606  0.00  0.00    +0.000 A 
ATOM      7  N   UNL     1       6.884   5.376  16.906  0.00  0.00    +0.000 NA
ATOM      8  C   UNL     1       5.874   4.782  17.596  0.00  0.00    +0.000 A 
ATOM      9  C   UNL     1       4.861   3.948  17.056  0.00  0.00    +0.000 A 
ATOM     10  C   UNL     1       4.919   3.700  15.670  0.00  0.00    +0.000 A 
ATOM     11  C   UNL     1       5.945   4.286  14.960  0.00  0.00    +0.000 A 
ATOM     12  H   UNL     1       8.555   6.154  14.854  0.00  0.00    +0.000 HD
ENDROOT
BRANCH   9  13
ATOM     13  C   UNL     1       3.815   3.360  17.925  0.00  0.00    +0.000 A 
ATOM     14  C   UNL     1       3.040   2.267  17.496  0.00  0.00    +0.000 A 
ATOM     15  C   UNL     1       2.010   1.748  18.282  0.00  0.00    +0.000 A 
ATOM     16  C   UNL     1       1.736   2.296  19.533  0.00  0.00    +0.000 A 
ATOM     17  C   UNL     1       2.500   3.366  20.006  0.00  0.00    +0.000 A 
ATOM     18  C   UNL     1       3.531   3.885  19.199  0.00  0.00    +0.000 A 
BRANCH  17  19
ATOM     19  C   UNL     1       2.272   4.006  21.334  0.00  0.00    +0.000 C 
ATOM     20  N   UNL     1       2.221   5.370  21.409  0.00  0.00    +0.000 N 
ATOM     21  O   UNL     1       2.134   3.333  22.350  0.00  0.00    +0.000 OA
ATOM     22  H   UNL     1       2.342   6.005  20.637  0.00  0.00    +0.000 HD
ATOM     23  H   UNL     1       2.085   5.768  22.329  0.00  0.00    +0.000 HD
ENDBRANCH  17  19
ENDBRANCH   9  13
TORSDOF 2
ENDMDL
MODEL 3
REMARK VINA RESULT:      -7.9      2.417      7.094
REMARK  Name = 
REMARK  3 active torsions:
REMARK  status: ('A' for Active; 'I' for Inactive)
REMARK    1  A    between atoms: C_1  and  N_2
REMARK    2  A    between atoms: C_9  and  C_10
REMARK    3  A    between atoms: C_14  and  C_15
REMARK                            x       y       z     vdW  Elec       q    Type
REMARK                         _______ _______ _______ _____ _____    ______ ____
ROOT
ATOM      1  C   UNL     1       6.032   3.714  13.571  0.00  0.00    +0.000 C 
ATOM      2  N   UNL     1       6.422   4.588  14.639  0.00  0.00    +0.000 N 
ATOM      3  C   UNL     1       7.543   5.442  14.636  0.00  0.00    +0.000 A 
ATOM      4  O   UNL     1       8.361   5.596  13.745  0.00  0.00    +0.000 OA
ATOM      5  N   UNL     1       7.549   6.094  15.871  0.00  0.00    +0.000 N 
ATOM      6  C   UNL     1       6.469   5.659  16.621  0.00  0.00    +0.000 A 
ATOM      7  N   UNL     1       6.158   6.054  17.853  0.00  0.00    +0.000 NA
ATOM      8  C   UNL     1       5.045   5.450  18.347  0.00  0.00    +0.000 A 
ATOM      9  C   UNL     1       4.232   4.499  17.675  0.00  0.00    +0.000 A 
ATOM     10  C   UNL     1       4.631   4.136  16.373  0.00  0.00    +0.000 A 
ATOM     11  C   UNL     1       5.766   4.731  15.864  0.00  0.00    +0.000 A 
ATOM     12  H   UNL     1       8.227   6.769  16.176  0.00  0.00    +0.000 HD
ENDROOT
BRANCH   9  13
ATOM     13  C   UNL     1       3.041   3.915  18.333  0.00  0.00    +0.000 A 
ATOM     14  C   UNL     1       1.809   3.821  17.661  0.00  0.00    +0.000 A 
ATOM     15  C   UNL     1       0.665   3.331  18.294  0.00  0.00    +0.000 A 
ATOM     16  C   UNL     1       0.725   2.901  19.617  0.00  0.00    +0.000 A 
ATOM     17  C   UNL     1       1.937   2.954  20.313  0.00  0.00    +0.000 A 
ATOM     18  C   UNL     1       3.080   3.458  19.664  0.00  0.00    +0.000 A 
BRANCH  17  19
ATOM     19  C   UNL     1       2.083   2.510  21.729  0.00  0.00    +0.000 C 
ATOM     20  N   UNL     1       0.980   2.507  22.536  0.00  0.00    +0.000 N 
ATOM     21  O   UNL     1       3.168   2.156  22.176  0.00  0.00    +0.000 OA
ATOM     22  H   UNL     1       0.054   2.799  22.267  0.00  0.00    +0.000 HD
ATOM     23  H   UNL     1       1.122   2.220  23.496  0.00  0.00    +0.000 HD
ENDBRANCH  17  19
ENDBRANCH   9  13
TORSDOF 2
ENDMDL
MODEL 4
REMARK VINA RESULT:      -7.8      1.245      1.259
REMARK  Name = 
REMARK  3 active torsions:
REMARK  status: ('A' for Active; 'I' for Inactive)
REMARK    1  A    between atoms: C_1  and  N_2
REMARK    2  A    between atoms: C_9  and  C_10
REMARK    3  A    between atoms: C_14  and  C_15
REMARK                            x       y       z     vdW  Elec       q    Type
REMARK                         _______ _______ _______ _____ _____    ______ ____
ROOT
ATOM      1  C   UNL     1       1.759   4.463  17.883  0.00  0.00    +0.000 C 
ATOM      2  N   UNL     1       3.063   4.545  18.473  0.00  0.00    +0.000 N 
ATOM      3  C   UNL     1       3.339   4.672  19.849  0.00  0.00    +0.000 A 
ATOM      4  O   UNL     1       2.539   4.726  20.767  0.00  0.00    +0.000 OA
ATOM      5  N   UNL     1       4.729   4.728  19.973  0.00  0.00    +0.000 N 
ATOM      6  C   UNL     1       5.302   4.643  18.715  0.00  0.00    +0.000 A 
ATOM      7  N   UNL     1       6.603   4.673  18.442  0.00  0.00    +0.000 NA
ATOM      8  C   UNL     1       6.876   4.579  17.113  0.00  0.00    +0.000 A 
ATOM      9  C   UNL     1       5.929   4.442  16.065  0.00  0.00    +0.000 A 
ATOM     10  C   UNL     1       4.571   4.418  16.441  0.00  0.00    +0.000 A 
ATOM     11  C   UNL     1       4.279   4.526  17.784  0.00  0.00    +0.000 A 
ATOM     12  H   UNL     1       5.239   4.821  20.833  0.00  0.00    +0.000 HD
ENDROOT
BRANCH   9  13
ATOM     13  C   UNL     1       6.364   4.351  14.652  0.00  0.00    +0.000 A 
ATOM     14  C   UNL     1       7.414   5.147  14.160  0.00  0.00    +0.000 A 
ATOM     15  C   UNL     1       7.789   5.115  12.815  0.00  0.00    +0.000 A 
ATOM     16  C   UNL     1       7.134   4.267  11.924  0.00  0.00    +0.000 A 
ATOM     17  C   UNL     1       6.102   3.442  12.379  0.00  0.00    +0.000 A 
ATOM     18  C   UNL     1       5.730   3.491  13.736  0.00  0.00    +0.000 A 
BRANCH  17  19
ATOM     19  C   UNL     1       5.355   2.506  11.489  0.00  0.00    +0.000 C 
ATOM     20  N   UNL     1       4.099   2.853  11.074  0.00  0.00    +0.000 N 
ATOM     21  O   UNL     1       5.844   1.441  11.131  0.00  0.00    +0.000 OA
ATOM     22  H   UNL     1       3.608   3.694  11.330  0.00  0.00    +0.000 HD
ATOM     23  H   UNL     1       3.616   2.185  10.489  0.00  0.00    +0.000 HD
ENDBRANCH  17  19
ENDBRANCH   9  13
TORSDOF 2
ENDMDL
MODEL 5
REMARK VINA RESULT:      -7.8      4.876      7.903
REMARK  Name = 
REMARK  3 active torsions:
REMARK  status: ('A' for Active; 'I' for Inactive)
REMARK    1  A    between atoms: C_1  and  N_2
REMARK    2  A    between atoms: C_9  and  C_10
REMARK    3  A    between atoms: C_14  and  C_15
REMARK                            x       y       z     vdW  Elec       q    Type
REMARK                         _______ _______ _______ _____ _____    ______ ____
ROOT
ATOM      1  C   UNL     1       2.527   2.686  21.384  0.00  0.00    +0.000 C 
ATOM      2  N   UNL     1       3.465   3.172  20.414  0.00  0.00    +0.000 N 
ATOM      3  C   UNL     1       4.579   2.466  19.920  0.00  0.00    +0.000 A 
ATOM      4  O   UNL     1       4.937   1.338  20.213  0.00  0.00    +0.000 OA
ATOM      5  N   UNL     1       5.217   3.314  19.011  0.00  0.00    +0.000 N 
ATOM      6  C   UNL     1       4.525   4.511  18.943  0.00  0.00    +0.000 A 
ATOM      7  N   UNL     1       4.843   5.561  18.191  0.00  0.00    +0.000 NA
ATOM      8  C   UNL     1       3.985   6.606  18.334  0.00  0.00    +0.000 A 
ATOM      9  C   UNL     1       2.836   6.646  19.166  0.00  0.00    +0.000 A 
ATOM     10  C   UNL     1       2.569   5.492  19.930  0.00  0.00    +0.000 A 
ATOM     11  C   UNL     1       3.438   4.430  19.804  0.00  0.00    +0.000 A 
ATOM     12  H   UNL     1       6.048   3.099  18.490  0.00  0.00    +0.000 HD
ENDROOT
BRANCH   9  13
ATOM     13  C   UNL     1       1.984   7.856  19.230  0.00  0.00    +0.000 A 
ATOM     14  C   UNL     1       1.737   8.635  18.085  0.00  0.00    +0.000 A 
ATOM     15  C   UNL     1       0.988   9.812  18.148  0.00  0.00    +0.000 A 
ATOM     16  C   UNL     1       0.446  10.234  19.359  0.00  0.00    +0.000 A 
ATOM     17  C   UNL     1       0.647   9.475  20.515  0.00  0.00    +0.000 A 
ATOM     18  C   UNL     1       1.411   8.295  20.438  0.00  0.00    +0.000 A 
BRANCH  17  19
ATOM     19  C   UNL     1       0.097   9.858  21.848  0.00  0.00    +0.000 C 
ATOM     20  N   UNL     1      -0.582   8.921  22.575  0.00  0.00    +0.000 N 
ATOM     21  O   UNL     1       0.242  10.991  22.294  0.00  0.00    +0.000 OA
ATOM     22  H   UNL     1      -0.768   7.975  22.286  0.00  0.00    +0.000 HD
ATOM     23  H   UNL     1      -0.957   9.223  23.465  0.00  0.00    +0.000 HD
ENDBRANCH  17  19
ENDBRANCH   9  13
TORSDOF 2
ENDMDL
MODEL 6
REMARK VINA RESULT:      -7.7      3.986      8.139
REMARK  Name = 
REMARK  3 active torsions:
REMARK  status: ('A' for Active; 'I' for Inactive)
REMARK    1  A    between atoms: C_1  and  N_2
REMARK    2  A    between atoms: C_9  and  C_10
REMARK    3  A    between atoms: C_14  and  C_15
REMARK                            x       y       z     vdW  Elec       q    Type
REMARK                         _______ _______ _______ _____ _____    ______ ____
ROOT
ATOM      1  C   UNL     1       7.437   7.130  17.152  0.00  0.00    +0.000 C 
ATOM      2  N   UNL     1       6.521   6.028  17.191  0.00  0.00    +0.000 N 
ATOM      3  C   UNL     1       6.817   4.698  16.834  0.00  0.00    +0.000 A 
ATOM      4  O   UNL     1       7.881   4.250  16.443  0.00  0.00    +0.000 OA
ATOM      5  N   UNL     1       5.640   3.967  17.010  0.00  0.00    +0.000 N 
ATOM      6  C   UNL     1       4.641   4.814  17.460  0.00  0.00    +0.000 A 
ATOM      7  N   UNL     1       3.383   4.473  17.727  0.00  0.00    +0.000 NA
ATOM      8  C   UNL     1       2.620   5.518  18.145  0.00  0.00    +0.000 A 
ATOM      9  C   UNL     1       3.049   6.859  18.321  0.00  0.00    +0.000 A 
ATOM     10  C   UNL     1       4.396   7.136  18.015  0.00  0.00    +0.000 A 
ATOM     11  C   UNL     1       5.179   6.088  17.578  0.00  0.00    +0.000 A 
ATOM     12  H   UNL     1       5.526   2.984  16.836  0.00  0.00    +0.000 HD
ENDROOT
BRANCH   9  13
ATOM     13  C   UNL     1       2.108   7.905  18.783  0.00  0.00    +0.000 A 
ATOM     14  C   UNL     1       1.541   8.825  17.882  0.00  0.00    +0.000 A 
ATOM     15  C   UNL     1       0.703   9.854  18.316  0.00  0.00    +0.000 A 
ATOM     16  C   UNL     1       0.392   9.982  19.668  0.00  0.00    +0.000 A 
ATOM     17  C   UNL     1       0.915   9.073  20.592  0.00  0.00    +0.000 A 
ATOM     18  C   UNL     1       1.764   8.045  20.140  0.00  0.00    +0.000 A 
BRANCH  17  19
ATOM     19  C   UNL     1       0.627   9.140  22.054  0.00  0.00    +0.000 C 
ATOM     20  N   UNL     1      -0.616   8.784  22.498  0.00  0.00    +0.000 N 
ATOM     21  O   UNL     1       1.478   9.510  22.855  0.00  0.00    +0.000 OA
ATOM     22  H   UNL     1      -1.384   8.487  21.919  0.00  0.00    +0.000 HD
ATOM     23  H   UNL     1      -0.780   8.862  23.494  0.00  0.00    +0.000 HD
ENDBRANCH  17  19
ENDBRANCH   9  13
TORSDOF 2
ENDMDL
MODEL 7
REMARK VINA RESULT:      -7.6      5.403      7.511
REMARK  Name = 
REMARK  3 active torsions:
REMARK  status: ('A' for Active; 'I' for Inactive)
REMARK    1  A    between atoms: C_1  and  N_2
REMARK    2  A    between atoms: C_9  and  C_10
REMARK    3  A    between atoms: C_14  and  C_15
REMARK                            x       y       z     vdW  Elec       q    Type
REMARK                         _______ _______ _______ _____ _____    ______ ____
ROOT
ATOM      1  C   UNL     1      -0.332  10.124  21.747  0.00  0.00    +0.000 C 
ATOM      2  N   UNL     1       0.201  10.354  20.436  0.00  0.00    +0.000 N 
ATOM      3  C   UNL     1      -0.023  11.497  19.644  0.00  0.00    +0.000 A 
ATOM      4  O   UNL     1      -0.688  12.480  19.925  0.00  0.00    +0.000 OA
ATOM      5  N   UNL     1       0.671  11.296  18.449  0.00  0.00    +0.000 N 
ATOM      6  C   UNL     1       1.304  10.066  18.492  0.00  0.00    +0.000 A 
ATOM      7  N   UNL     1       2.049   9.532  17.528  0.00  0.00    +0.000 NA
ATOM      8  C   UNL     1       2.539   8.303  17.844  0.00  0.00    +0.000 A 
ATOM      9  C   UNL     1       2.337   7.603  19.062  0.00  0.00    +0.000 A 
ATOM     10  C   UNL     1       1.536   8.239  20.031  0.00  0.00    +0.000 A 
ATOM     11  C   UNL     1       1.022   9.479  19.719  0.00  0.00    +0.000 A 
ATOM     12  H   UNL     1       0.705  11.935  17.675  0.00  0.00    +0.000 HD
ENDROOT
BRANCH   9  13
ATOM     13  C   UNL     1       2.931   6.263  19.277  0.00  0.00    +0.000 A 
ATOM     14  C   UNL     1       4.115   5.877  18.624  0.00  0.00    +0.000 A 
ATOM     15  C   UNL     1       4.647   4.594  18.770  0.00  0.00    +0.000 A 
ATOM     16  C   UNL     1       4.017   3.663  19.592  0.00  0.00    +0.000 A 
ATOM     17  C   UNL     1       2.852   4.015  20.278  0.00  0.00    +0.000 A 
ATOM     18  C   UNL     1       2.322   5.309  20.115  0.00  0.00    +0.000 A 
BRANCH  17  19
ATOM     19  C   UNL     1       2.121   3.077  21.178  0.00  0.00    +0.000 C 
ATOM     20  N   UNL     1       0.779   2.893  20.989  0.00  0.00    +0.000 N 
ATOM     21  O   UNL     1       2.698   2.477  22.078  0.00  0.00    +0.000 OA
ATOM     22  H   UNL     1       0.216   3.354  20.293  0.00  0.00    +0.000 HD
ATOM     23  H   UNL     1       0.313   2.265  21.631  0.00  0.00    +0.000 HD
ENDBRANCH  17  19
ENDBRANCH   9  13
TORSDOF 2
ENDMDL
MODEL 8
REMARK VINA RESULT:      -7.5      2.073      6.711
REMARK  Name = 
REMARK  3 active torsions:
REMARK  status: ('A' for Active; 'I' for Inactive)
REMARK    1  A    between atoms: C_1  and  N_2
REMARK    2  A    between atoms: C_9  and  C_10
REMARK    3  A    between atoms: C_14  and  C_15
REMARK                            x       y       z     vdW  Elec       q    Type
REMARK                         _______ _______ _______ _____ _____    ______ ____
ROOT
ATOM      1  C   UNL     1       4.879   3.385  12.741  0.00  0.00    +0.000 C 
ATOM      2  N   UNL     1       5.858   4.159  13.448  0.00  0.00    +0.000 N 
ATOM      3  C   UNL     1       7.125   4.532  12.956  0.00  0.00    +0.000 A 
ATOM      4  O   UNL     1       7.605   4.280  11.865  0.00  0.00    +0.000 OA
ATOM      5  N   UNL     1       7.747   5.261  13.973  0.00  0.00    +0.000 N 
ATOM      6  C   UNL     1       6.898   5.336  15.064  0.00  0.00    +0.000 A 
ATOM      7  N   UNL     1       7.155   5.943  16.219  0.00  0.00    +0.000 NA
ATOM      8  C   UNL     1       6.137   5.849  17.116  0.00  0.00    +0.000 A 
ATOM      9  C   UNL     1       4.891   5.202  16.911  0.00  0.00    +0.000 A 
ATOM     10  C   UNL     1       4.698   4.584  15.660  0.00  0.00    +0.000 A 
ATOM     11  C   UNL     1       5.727   4.661  14.745  0.00  0.00    +0.000 A 
ATOM     12  H   UNL     1       8.665   5.665  13.929  0.00  0.00    +0.000 HD
ENDROOT
BRANCH   9  13
ATOM     13  C   UNL     1       3.865   5.171  17.979  0.00  0.00    +0.000 A 
ATOM     14  C   UNL     1       3.456   6.348  18.632  0.00  0.00    +0.000 A 
ATOM     15  C   UNL     1       2.537   6.321  19.682  0.00  0.00    +0.000 A 
ATOM     16  C   UNL     1       1.983   5.113  20.100  0.00  0.00    +0.000 A 
ATOM     17  C   UNL     1       2.344   3.924  19.460  0.00  0.00    +0.000 A 
ATOM     18  C   UNL     1       3.278   3.965  18.408  0.00  0.00    +0.000 A 
BRANCH  17  19
ATOM     19  C   UNL     1       1.795   2.592  19.846  0.00  0.00    +0.000 C 
ATOM     20  N   UNL     1       1.770   1.594  18.913  0.00  0.00    +0.000 N 
ATOM     21  O   UNL     1       1.366   2.383  20.976  0.00  0.00    +0.000 OA
ATOM     22  H   UNL     1       2.079   1.675  17.958  0.00  0.00    +0.000 HD
ATOM     23  H   UNL     1       1.372   0.711  19.205  0.00  0.00    +0.000 HD
ENDBRANCH  17  19
ENDBRANCH   9  13
TORSDOF 2
ENDMDL
MODEL 9
REMARK VINA RESULT:      -7.5      4.054      8.452
REMARK  Name = 
REMARK  3 active torsions:
REMARK  status: ('A' for Active; 'I' for Inactive)
REMARK    1  A    between atoms: C_1  and  N_2
REMARK    2  A    between atoms: C_9  and  C_10
REMARK    3  A    between atoms: C_14  and  C_15
REMARK                            x       y       z     vdW  Elec       q    Type
REMARK                         _______ _______ _______ _____ _____    ______ ____
ROOT
ATOM      1  C   UNL     1       5.237   6.290  15.347  0.00  0.00    +0.000 C 
ATOM      2  N   UNL     1       4.907   5.409  16.428  0.00  0.00    +0.000 N 
ATOM      3  C   UNL     1       5.346   4.077  16.569  0.00  0.00    +0.000 A 
ATOM      4  O   UNL     1       6.075   3.449  15.820  0.00  0.00    +0.000 OA
ATOM      5  N   UNL     1       4.780   3.594  17.751  0.00  0.00    +0.000 N 
ATOM      6  C   UNL     1       4.010   4.590  18.327  0.00  0.00    +0.000 A 
ATOM      7  N   UNL     1       3.312   4.490  19.455  0.00  0.00    +0.000 NA
ATOM      8  C   UNL     1       2.642   5.629  19.776  0.00  0.00    +0.000 A 
ATOM      9  C   UNL     1       2.647   6.845  19.045  0.00  0.00    +0.000 A 
ATOM     10  C   UNL     1       3.412   6.868  17.862  0.00  0.00    +0.000 A 
ATOM     11  C   UNL     1       4.087   5.716  17.518  0.00  0.00    +0.000 A 
ATOM     12  H   UNL     1       4.903   2.671  18.127  0.00  0.00    +0.000 HD
ENDROOT
BRANCH   9  13
ATOM     13  C   UNL     1       1.866   8.016  19.508  0.00  0.00    +0.000 A 
ATOM     14  C   UNL     1       1.496   9.043  18.621  0.00  0.00    +0.000 A 
ATOM     15  C   UNL     1       0.815  10.180  19.061  0.00  0.00    +0.000 A 
ATOM     16  C   UNL     1       0.466  10.314  20.403  0.00  0.00    +0.000 A 
ATOM     17  C   UNL     1       0.793   9.304  21.312  0.00  0.00    +0.000 A 
ATOM     18  C   UNL     1       1.487   8.167  20.856  0.00  0.00    +0.000 A 
BRANCH  17  19
ATOM     19  C   UNL     1       0.453   9.372  22.762  0.00  0.00    +0.000 C 
ATOM     20  N   UNL     1      -0.854   9.233  23.140  0.00  0.00    +0.000 N 
ATOM     21  O   UNL     1       1.318   9.551  23.612  0.00  0.00    +0.000 OA
ATOM     22  H   UNL     1      -1.634   9.103  22.517  0.00  0.00    +0.000 HD
ATOM     23  H   UNL     1      -1.049   9.305  24.130  0.00  0.00    +0.000 HD
ENDBRANCH  17  19
ENDBRANCH   9  13
TORSDOF 2
ENDMDL
