MODEL 1
REMARK VINA RESULT:      -7.8      0.000      0.000
REMARK  Name = 
REMARK  9 active torsions:
REMARK  status: ('A' for Active; 'I' for Inactive)
REMARK    1  A    between atoms: C_2  and  C_3
REMARK    2  A    between atoms: C_5  and  C_6
REMARK    3  A    between atoms: C_9  and  O_10
REMARK    4  A    between atoms: O_10  and  C_11
REMARK    5  A    between atoms: C_11  and  C_12
REMARK    6  A    between atoms: C_21  and  N_22
REMARK    7  A    between atoms: N_22  and  C_23
REMARK    8  A    between atoms: C_23  and  C_24
REMARK    9  A    between atoms: C_24  and  N_25
REMARK                            x       y       z     vdW  Elec       q    Type
REMARK                         _______ _______ _______ _____ _____    ______ ____
ROOT
ATOM      1  C   UNL     1       5.055   5.593  17.237  0.00  0.00    +0.000 A 
ATOM      2  N   UNL     1       4.752   6.861  17.675  0.00  0.00    +0.000 NA
ATOM      3  C   UNL     1       3.469   6.774  17.982  0.00  0.00    +0.000 A 
ATOM      4  O   UNL     1       2.907   5.556  17.726  0.00  0.00    +0.000 OA
ATOM      5  C   UNL     1       3.932   4.794  17.243  0.00  0.00    +0.000 A 
ENDROOT
BRANCH   3   6
ATOM      6  C   UNL     1       2.562   7.800  18.460  0.00  0.00    +0.000 A 
ATOM      7  C   UNL     1       2.219   8.855  17.608  0.00  0.00    +0.000 A 
ATOM      8  C   UNL     1       1.324   9.840  18.021  0.00  0.00    +0.000 A 
ATOM      9  C   UNL     1       0.750   9.780  19.291  0.00  0.00    +0.000 A 
ATOM     10  C   UNL     1       1.121   8.760  20.167  0.00  0.00    +0.000 A 
ATOM     11  C   UNL     1       2.012   7.766  19.750  0.00  0.00    +0.000 A 
BRANCH   9  12
ATOM     12  O   UNL     1      -0.177  10.669  19.765  0.00  0.00    +0.000 OA
BRANCH  12  13
ATOM     13  C   UNL     1      -0.515  11.722  18.855  0.00  0.00    +0.000 C 
BRANCH  13  14
ATOM     14  C   UNL     1      -1.930  11.535  18.373  0.00  0.00    +0.000 A 
ATOM     15  C   UNL     1      -2.197  10.868  17.170  0.00  0.00    +0.000 A 
ATOM     16  C   UNL     1      -3.514  10.679  16.748  0.00  0.00    +0.000 A 
ATOM     17  C   UNL     1      -4.571  11.147  17.527  0.00  0.00    +0.000 A 
ATOM     18  C   UNL     1      -4.315  11.796  18.733  0.00  0.00    +0.000 A 
ATOM     19  C   UNL     1      -3.002  11.987  19.156  0.00  0.00    +0.000 A 
ENDBRANCH  13  14
ENDBRANCH  12  13
ENDBRANCH   9  12
ENDBRANCH   3   6
BRANCH   1  21
ATOM     20  N   UNL     1       7.426   4.939  16.408  0.00  0.00    +0.000 NA
ATOM     21  C   UNL     1       6.367   5.240  16.788  0.00  0.00    +0.000 C 
ENDBRANCH   1  21
BRANCH   5  22
ATOM     22  N   UNL     1       3.647   3.523  16.898  0.00  0.00    +0.000 N 
ATOM     23  H   UNL     1       3.196   3.290  16.017  0.00  0.00    +0.000 HD
BRANCH  22  24
ATOM     24  C   UNL     1       4.023   2.401  17.757  0.00  0.00    +0.000 C 
BRANCH  24  25
ATOM     25  C   UNL     1       4.009   2.800  19.258  0.00  0.00    +0.000 C 
BRANCH  25  26
ATOM     26  N   UNL     1       2.960   2.158  20.077  0.00  0.00    +0.000 NA
ATOM     27  C   UNL     1       1.681   2.068  19.325  0.00  0.00    +0.000 C 
ATOM     28  C   UNL     1       0.925   3.406  19.197  0.00  0.00    +0.000 C 
ATOM     29  O   UNL     1       0.698   4.007  20.478  0.00  0.00    +0.000 OA
ATOM     30  C   UNL     1       1.933   4.196  21.177  0.00  0.00    +0.000 C 
ATOM     31  C   UNL     1       2.678   2.862  21.348  0.00  0.00    +0.000 C 
ENDBRANCH  25  26
ENDBRANCH  24  25
ENDBRANCH  22  24
ENDBRANCH   5  22
TORSDOF 9
ENDMDL
MODEL 2
REMARK VINA RESULT:      -7.8      2.027      2.418
REMARK  Name = 
REMARK  9 active torsions:
REMARK  status: ('A' for Active; 'I' for Inactive)
REMARK    1  A    between atoms: C_2  and  C_3
REMARK    2  A    between atoms: C_5  and  C_6
REMARK    3  A    between atoms: C_9  and  O_10
REMARK    4  A    between atoms: O_10  and  C_11
REMARK    5  A    between atoms: C_11  and  C_12
REMARK    6  A    between atoms: C_21  and  N_22
REMARK    7  A    between atoms: N_22  and  C_23
REMARK    8  A    between atoms: C_23  and  C_24
REMARK    9  A    between atoms: C_24  and  N_25
REMARK                            x       y       z     vdW  Elec       q    Type
REMARK                         _______ _______ _______ _____ _____    ______ ____
ROOT
ATOM      1  C   UNL     1       4.946   4.816  17.262  0.00  0.00    +0.000 A 
ATOM      2  N   UNL     1       4.179   5.927  17.003  0.00  0.00    +0.000 NA
ATOM      3  C   UNL     1       3.728   6.266  18.198  0.00  0.00    +0.000 A 
ATOM      4  O   UNL     1       4.106   5.425  19.205  0.00  0.00    +0.000 OA
ATOM      5  C   UNL     1       4.892   4.487  18.599  0.00  0.00    +0.000 A 
ENDROOT
BRANCH   3   6
ATOM      6  C   UNL     1       2.825   7.338  18.575  0.00  0.00    +0.000 A 
ATOM      7  C   UNL     1       2.513   8.325  17.635  0.00  0.00    +0.000 A 
ATOM      8  C   UNL     1       1.623   9.350  17.951  0.00  0.00    +0.000 A 
ATOM      9  C   UNL     1       1.024   9.399  19.211  0.00  0.00    +0.000 A 
ATOM     10  C   UNL     1       1.365   8.447  20.172  0.00  0.00    +0.000 A 
ATOM     11  C   UNL     1       2.251   7.412  19.853  0.00  0.00    +0.000 A 
BRANCH   9  12
ATOM     12  O   UNL     1       0.101  10.333  19.593  0.00  0.00    +0.000 OA
BRANCH  12  13
ATOM     13  C   UNL     1       0.534  11.208  20.640  0.00  0.00    +0.000 C 
BRANCH  13  14
ATOM     14  C   UNL     1      -0.663  11.707  21.407  0.00  0.00    +0.000 A 
ATOM     15  C   UNL     1      -1.509  12.682  20.864  0.00  0.00    +0.000 A 
ATOM     16  C   UNL     1      -2.630  13.116  21.575  0.00  0.00    +0.000 A 
ATOM     17  C   UNL     1      -2.916  12.573  22.826  0.00  0.00    +0.000 A 
ATOM     18  C   UNL     1      -2.090  11.590  23.366  0.00  0.00    +0.000 A 
ATOM     19  C   UNL     1      -0.971  11.156  22.660  0.00  0.00    +0.000 A 
ENDBRANCH  13  14
ENDBRANCH  12  13
ENDBRANCH   9  12
ENDBRANCH   3   6
BRANCH   1  21
ATOM     20  N   UNL     1       6.168   3.536  15.362  0.00  0.00    +0.000 NA
ATOM     21  C   UNL     1       5.628   4.107  16.222  0.00  0.00    +0.000 C 
ENDBRANCH   1  21
BRANCH   5  22
ATOM     22  N   UNL     1       5.404   3.514  19.378  0.00  0.00    +0.000 N 
ATOM     23  H   UNL     1       6.356   3.549  19.732  0.00  0.00    +0.000 HD
BRANCH  22  24
ATOM     24  C   UNL     1       4.591   2.375  19.802  0.00  0.00    +0.000 C 
BRANCH  24  25
ATOM     25  C   UNL     1       3.379   2.153  18.855  0.00  0.00    +0.000 C 
BRANCH  25  26
ATOM     26  N   UNL     1       2.096   1.854  19.524  0.00  0.00    +0.000 NA
ATOM     27  C   UNL     1       0.960   2.477  18.795  0.00  0.00    +0.000 C 
ATOM     28  C   UNL     1       0.840   4.002  18.989  0.00  0.00    +0.000 C 
ATOM     29  O   UNL     1       0.780   4.353  20.377  0.00  0.00    +0.000 OA
ATOM     30  C   UNL     1       1.922   3.848  21.078  0.00  0.00    +0.000 C 
ATOM     31  C   UNL     1       2.030   2.321  20.927  0.00  0.00    +0.000 C 
ENDBRANCH  25  26
ENDBRANCH  24  25
ENDBRANCH  22  24
ENDBRANCH   5  22
TORSDOF 9
ENDMDL
MODEL 3
REMARK VINA RESULT:      -7.7      3.441      9.191
REMARK  Name = 
REMARK  9 active torsions:
REMARK  status: ('A' for Active; 'I' for Inactive)
REMARK    1  A    between atoms: C_2  and  C_3
REMARK    2  A    between atoms: C_5  and  C_6
REMARK    3  A    between atoms: C_9  and  O_10
REMARK    4  A    between atoms: O_10  and  C_11
REMARK    5  A    between atoms: C_11  and  C_12
REMARK    6  A    between atoms: C_21  and  N_22
REMARK    7  A    between atoms: N_22  and  C_23
REMARK    8  A    between atoms: C_23  and  C_24
REMARK    9  A    between atoms: C_24  and  N_25
REMARK                            x       y       z     vdW  Elec       q    Type
REMARK                         _______ _______ _______ _____ _____    ______ ____
ROOT
ATOM      1  C   UNL     1       0.836   9.173  21.193  0.00  0.00    +0.000 A 
ATOM      2  N   UNL     1       1.517   8.007  20.937  0.00  0.00    +0.000 NA
ATOM      3  C   UNL     1       1.866   8.135  19.668  0.00  0.00    +0.000 A 
ATOM      4  O   UNL     1       1.417   9.277  19.070  0.00  0.00    +0.000 OA
ATOM      5  C   UNL     1       0.749   9.947  20.056  0.00  0.00    +0.000 A 
ENDROOT
BRANCH   3   6
ATOM      6  C   UNL     1       2.572   7.206  18.806  0.00  0.00    +0.000 A 
ATOM      7  C   UNL     1       3.421   7.710  17.815  0.00  0.00    +0.000 A 
ATOM      8  C   UNL     1       4.142   6.848  16.991  0.00  0.00    +0.000 A 
ATOM      9  C   UNL     1       4.032   5.466  17.152  0.00  0.00    +0.000 A 
ATOM     10  C   UNL     1       3.153   4.952  18.105  0.00  0.00    +0.000 A 
ATOM     11  C   UNL     1       2.435   5.816  18.938  0.00  0.00    +0.000 A 
BRANCH   9  12
ATOM     12  O   UNL     1       4.739   4.544  16.429  0.00  0.00    +0.000 OA
BRANCH  12  13
ATOM     13  C   UNL     1       6.097   4.908  16.160  0.00  0.00    +0.000 C 
BRANCH  13  14
ATOM     14  C   UNL     1       6.420   4.620  14.717  0.00  0.00    +0.000 A 
ATOM     15  C   UNL     1       5.644   3.722  13.973  0.00  0.00    +0.000 A 
ATOM     16  C   UNL     1       5.938   3.484  12.630  0.00  0.00    +0.000 A 
ATOM     17  C   UNL     1       7.002   4.147  12.020  0.00  0.00    +0.000 A 
ATOM     18  C   UNL     1       7.768   5.055  12.747  0.00  0.00    +0.000 A 
ATOM     19  C   UNL     1       7.478   5.293  14.089  0.00  0.00    +0.000 A 
ENDBRANCH  13  14
ENDBRANCH  12  13
ENDBRANCH   9  12
ENDBRANCH   3   6
BRANCH   1  21
ATOM     20  N   UNL     1      -0.224   9.671  23.510  0.00  0.00    +0.000 NA
ATOM     21  C   UNL     1       0.262   9.450  22.475  0.00  0.00    +0.000 C 
ENDBRANCH   1  21
BRANCH   5  22
ATOM     22  N   UNL     1       0.189  11.128  19.729  0.00  0.00    +0.000 N 
ATOM     23  H   UNL     1       0.149  11.907  20.382  0.00  0.00    +0.000 HD
BRANCH  22  24
ATOM     24  C   UNL     1      -0.347  11.370  18.391  0.00  0.00    +0.000 C 
BRANCH  24  25
ATOM     25  C   UNL     1      -1.870  11.676  18.431  0.00  0.00    +0.000 C 
BRANCH  25  26
ATOM     26  N   UNL     1      -2.758  10.520  18.186  0.00  0.00    +0.000 NA
ATOM     27  C   UNL     1      -2.392   9.829  16.922  0.00  0.00    +0.000 C 
ATOM     28  C   UNL     1      -2.819  10.576  15.643  0.00  0.00    +0.000 C 
ATOM     29  O   UNL     1      -4.221  10.872  15.650  0.00  0.00    +0.000 OA
ATOM     30  C   UNL     1      -4.575  11.629  16.813  0.00  0.00    +0.000 C 
ATOM     31  C   UNL     1      -4.191  10.875  18.097  0.00  0.00    +0.000 C 
ENDBRANCH  25  26
ENDBRANCH  24  25
ENDBRANCH  22  24
ENDBRANCH   5  22
TORSDOF 9
ENDMDL
MODEL 4
REMARK VINA RESULT:      -7.5      2.390      4.663
REMARK  Name = 
REMARK  9 active torsions:
REMARK  status: ('A' for Active; 'I' for Inactive)
REMARK    1  A    between atoms: C_2  and  C_3
REMARK    2  A    between atoms: C_5  and  C_6
REMARK    3  A    between atoms: C_9  and  O_10
REMARK    4  A    between atoms: O_10  and  C_11
REMARK    5  A    between atoms: C_11  and  C_12
REMARK    6  A    between atoms: C_21  and  N_22
REMARK    7  A    between atoms: N_22  and  C_23
REMARK    8  A    between atoms: C_23  and  C_24
REMARK    9  A    between atoms: C_24  and  N_25
REMARK                            x       y       z     vdW  Elec       q    Type
REMARK                         _______ _______ _______ _____ _____    ______ ____
ROOT
ATOM      1  C   UNL     1       2.371   4.696  20.607  0.00  0.00    +0.000 A 
ATOM      2  N   UNL     1       1.774   5.824  21.118  0.00  0.00    +0.000 NA
ATOM      3  C   UNL     1       1.884   6.696  20.130  0.00  0.00    +0.000 A 
ATOM      4  O   UNL     1       2.554   6.229  19.036  0.00  0.00    +0.000 OA
ATOM      5  C   UNL     1       2.870   4.937  19.346  0.00  0.00    +0.000 A 
ENDROOT
BRANCH   3   6
ATOM      6  C   UNL     1       1.480   8.088  20.077  0.00  0.00    +0.000 A 
ATOM      7  C   UNL     1       0.958   8.689  21.227  0.00  0.00    +0.000 A 
ATOM      8  C   UNL     1       0.592  10.033  21.223  0.00  0.00    +0.000 A 
ATOM      9  C   UNL     1       0.751  10.802  20.069  0.00  0.00    +0.000 A 
ATOM     10  C   UNL     1       1.225  10.201  18.902  0.00  0.00    +0.000 A 
ATOM     11  C   UNL     1       1.601   8.854  18.908  0.00  0.00    +0.000 A 
BRANCH   9  12
ATOM     12  O   UNL     1       0.470  12.138  19.984  0.00  0.00    +0.000 OA
BRANCH  12  13
ATOM     13  C   UNL     1       0.342  12.804  21.245  0.00  0.00    +0.000 C 
BRANCH  13  14
ATOM     14  C   UNL     1      -1.108  12.840  21.651  0.00  0.00    +0.000 A 
ATOM     15  C   UNL     1      -2.110  13.116  20.711  0.00  0.00    +0.000 A 
ATOM     16  C   UNL     1      -3.452  13.121  21.095  0.00  0.00    +0.000 A 
ATOM     17  C   UNL     1      -3.802  12.841  22.415  0.00  0.00    +0.000 A 
ATOM     18  C   UNL     1      -2.813  12.549  23.352  0.00  0.00    +0.000 A 
ATOM     19  C   UNL     1      -1.473  12.545  22.972  0.00  0.00    +0.000 A 
ENDBRANCH  13  14
ENDBRANCH  12  13
ENDBRANCH   9  12
ENDBRANCH   3   6
BRANCH   1  21
ATOM     20  N   UNL     1       2.560   2.495  21.971  0.00  0.00    +0.000 NA
ATOM     21  C   UNL     1       2.482   3.488  21.367  0.00  0.00    +0.000 C 
ENDBRANCH   1  21
BRANCH   5  22
ATOM     22  N   UNL     1       3.553   4.230  18.424  0.00  0.00    +0.000 N 
ATOM     23  H   UNL     1       3.146   3.976  17.527  0.00  0.00    +0.000 HD
BRANCH  22  24
ATOM     24  C   UNL     1       4.942   3.834  18.647  0.00  0.00    +0.000 C 
BRANCH  24  25
ATOM     25  C   UNL     1       5.810   5.034  19.119  0.00  0.00    +0.000 C 
BRANCH  25  26
ATOM     26  N   UNL     1       7.228   4.994  18.707  0.00  0.00    +0.000 NA
ATOM     27  C   UNL     1       7.838   6.348  18.774  0.00  0.00    +0.000 C 
ATOM     28  C   UNL     1       7.412   7.293  17.632  0.00  0.00    +0.000 C 
ATOM     29  O   UNL     1       7.657   6.710  16.346  0.00  0.00    +0.000 OA
ATOM     30  C   UNL     1       6.991   5.449  16.226  0.00  0.00    +0.000 C 
ATOM     31  C   UNL     1       7.438   4.481  17.334  0.00  0.00    +0.000 C 
ENDBRANCH  25  26
ENDBRANCH  24  25
ENDBRANCH  22  24
ENDBRANCH   5  22
TORSDOF 9
ENDMDL
MODEL 5
REMARK VINA RESULT:      -7.5      3.393      8.216
REMARK  Name = 
REMARK  9 active torsions:
REMARK  status: ('A' for Active; 'I' for Inactive)
REMARK    1  A    between atoms: C_2  and  C_3
REMARK    2  A    between atoms: C_5  and  C_6
REMARK    3  A    between atoms: C_9  and  O_10
REMARK    4  A    between atoms: O_10  and  C_11
REMARK    5  A    between atoms: C_11  and  C_12
REMARK    6  A    between atoms: C_21  and  N_22
REMARK    7  A    between atoms: N_22  and  C_23
REMARK    8  A    between atoms: C_23  and  C_24
REMARK    9  A    between atoms: C_24  and  N_25
REMARK                            x       y       z     vdW  Elec       q    Type
REMARK                         _______ _______ _______ _____ _____    ______ ____
ROOT
ATOM      1  C   UNL     1       2.183   8.074  18.850  0.00  0.00    +0.000 A 
ATOM      2  N   UNL     1       3.019   8.030  17.760  0.00  0.00    +0.000 NA
ATOM      3  C   UNL     1       3.606   6.851  17.879  0.00  0.00    +0.000 A 
ATOM      4  O   UNL     1       3.248   6.151  18.995  0.00  0.00    +0.000 OA
ATOM      5  C   UNL     1       2.330   6.943  19.623  0.00  0.00    +0.000 A 
ENDROOT
BRANCH   3   6
ATOM      6  C   UNL     1       4.631   6.242  17.052  0.00  0.00    +0.000 A 
ATOM      7  C   UNL     1       4.405   4.968  16.519  0.00  0.00    +0.000 A 
ATOM      8  C   UNL     1       5.352   4.367  15.692  0.00  0.00    +0.000 A 
ATOM      9  C   UNL     1       6.537   5.033  15.378  0.00  0.00    +0.000 A 
ATOM     10  C   UNL     1       6.794   6.283  15.942  0.00  0.00    +0.000 A 
ATOM     11  C   UNL     1       5.840   6.892  16.765  0.00  0.00    +0.000 A 
BRANCH   9  12
ATOM     12  O   UNL     1       7.499   4.547  14.535  0.00  0.00    +0.000 OA
BRANCH  12  13
ATOM     13  C   UNL     1       7.339   4.926  13.164  0.00  0.00    +0.000 C 
BRANCH  13  14
ATOM     14  C   UNL     1       6.809   3.757  12.376  0.00  0.00    +0.000 A 
ATOM     15  C   UNL     1       7.681   2.822  11.804  0.00  0.00    +0.000 A 
ATOM     16  C   UNL     1       7.176   1.729  11.098  0.00  0.00    +0.000 A 
ATOM     17  C   UNL     1       5.799   1.558  10.968  0.00  0.00    +0.000 A 
ATOM     18  C   UNL     1       4.924   2.473  11.548  0.00  0.00    +0.000 A 
ATOM     19  C   UNL     1       5.425   3.566  12.252  0.00  0.00    +0.000 A 
ENDBRANCH  13  14
ENDBRANCH  12  13
ENDBRANCH   9  12
ENDBRANCH   3   6
BRANCH   1  21
ATOM     20  N   UNL     1       0.679  10.136  19.323  0.00  0.00    +0.000 NA
ATOM     21  C   UNL     1       1.348   9.205  19.120  0.00  0.00    +0.000 C 
ENDBRANCH   1  21
BRANCH   5  22
ATOM     22  N   UNL     1       1.807   6.485  20.778  0.00  0.00    +0.000 N 
ATOM     23  H   UNL     1       1.311   7.092  21.425  0.00  0.00    +0.000 HD
BRANCH  22  24
ATOM     24  C   UNL     1       1.882   5.069  21.136  0.00  0.00    +0.000 C 
BRANCH  24  25
ATOM     25  C   UNL     1       1.246   4.168  20.042  0.00  0.00    +0.000 C 
BRANCH  25  26
ATOM     26  N   UNL     1       1.545   2.725  20.153  0.00  0.00    +0.000 NA
ATOM     27  C   UNL     1       2.964   2.507  20.538  0.00  0.00    +0.000 C 
ATOM     28  C   UNL     1       3.975   2.747  19.399  0.00  0.00    +0.000 C 
ATOM     29  O   UNL     1       3.658   1.967  18.240  0.00  0.00    +0.000 OA
ATOM     30  C   UNL     1       2.326   2.242  17.792  0.00  0.00    +0.000 C 
ATOM     31  C   UNL     1       1.303   1.966  18.906  0.00  0.00    +0.000 C 
ENDBRANCH  25  26
ENDBRANCH  24  25
ENDBRANCH  22  24
ENDBRANCH   5  22
TORSDOF 9
ENDMDL
MODEL 6
REMARK VINA RESULT:      -7.5      1.918      2.708
REMARK  Name = 
REMARK  9 active torsions:
REMARK  status: ('A' for Active; 'I' for Inactive)
REMARK    1  A    between atoms: C_2  and  C_3
REMARK    2  A    between atoms: C_5  and  C_6
REMARK    3  A    between atoms: C_9  and  O_10
REMARK    4  A    between atoms: O_10  and  C_11
REMARK    5  A    between atoms: C_11  and  C_12
REMARK    6  A    between atoms: C_21  and  N_22
REMARK    7  A    between atoms: N_22  and  C_23
REMARK    8  A    between atoms: C_23  and  C_24
REMARK    9  A    between atoms: C_24  and  N_25
REMARK                            x       y       z     vdW  Elec       q    Type
REMARK                         _______ _______ _______ _____ _____    ______ ____
ROOT
ATOM      1  C   UNL     1       4.981   5.981  17.011  0.00  0.00    +0.000 A 
ATOM      2  N   UNL     1       4.567   7.204  17.482  0.00  0.00    +0.000 NA
ATOM      3  C   UNL     1       3.353   6.953  17.943  0.00  0.00    +0.000 A 
ATOM      4  O   UNL     1       2.932   5.668  17.758  0.00  0.00    +0.000 OA
ATOM      5  C   UNL     1       3.984   5.041  17.153  0.00  0.00    +0.000 A 
ENDROOT
BRANCH   3   6
ATOM      6  C   UNL     1       2.381   7.858  18.528  0.00  0.00    +0.000 A 
ATOM      7  C   UNL     1       2.056   7.721  19.882  0.00  0.00    +0.000 A 
ATOM      8  C   UNL     1       1.153   8.594  20.486  0.00  0.00    +0.000 A 
ATOM      9  C   UNL     1       0.568   9.624  19.748  0.00  0.00    +0.000 A 
ATOM     10  C   UNL     1       0.848   9.739  18.386  0.00  0.00    +0.000 A 
ATOM     11  C   UNL     1       1.761   8.869  17.780  0.00  0.00    +0.000 A 
BRANCH   9  12
ATOM     12  O   UNL     1      -0.286  10.559  20.265  0.00  0.00    +0.000 OA
BRANCH  12  13
ATOM     13  C   UNL     1       0.330  11.515  21.134  0.00  0.00    +0.000 C 
BRANCH  13  14
ATOM     14  C   UNL     1       0.704  12.743  20.346  0.00  0.00    +0.000 A 
ATOM     15  C   UNL     1       2.048  13.087  20.147  0.00  0.00    +0.000 A 
ATOM     16  C   UNL     1       2.381  14.213  19.393  0.00  0.00    +0.000 A 
ATOM     17  C   UNL     1       1.378  14.997  18.826  0.00  0.00    +0.000 A 
ATOM     18  C   UNL     1       0.040  14.653  19.004  0.00  0.00    +0.000 A 
ATOM     19  C   UNL     1      -0.296  13.530  19.758  0.00  0.00    +0.000 A 
ENDBRANCH  13  14
ENDBRANCH  12  13
ENDBRANCH   9  12
ENDBRANCH   3   6
BRANCH   1  21
ATOM     20  N   UNL     1       7.313   5.633  15.924  0.00  0.00    +0.000 NA
ATOM     21  C   UNL     1       6.265   5.798  16.404  0.00  0.00    +0.000 C 
ENDBRANCH   1  21
BRANCH   5  22
ATOM     22  N   UNL     1       3.832   3.737  16.846  0.00  0.00    +0.000 N 
ATOM     23  H   UNL     1       3.455   3.433  15.952  0.00  0.00    +0.000 HD
BRANCH  22  24
ATOM     24  C   UNL     1       4.255   2.686  17.769  0.00  0.00    +0.000 C 
BRANCH  24  25
ATOM     25  C   UNL     1       4.116   3.135  19.250  0.00  0.00    +0.000 C 
BRANCH  25  26
ATOM     26  N   UNL     1       3.157   2.358  20.064  0.00  0.00    +0.000 NA
ATOM     27  C   UNL     1       1.951   2.008  19.270  0.00  0.00    +0.000 C 
ATOM     28  C   UNL     1       0.980   3.183  19.038  0.00  0.00    +0.000 C 
ATOM     29  O   UNL     1       0.591   3.797  20.273  0.00  0.00    +0.000 OA
ATOM     30  C   UNL     1       1.740   4.234  21.007  0.00  0.00    +0.000 C 
ATOM     31  C   UNL     1       2.697   3.062  21.281  0.00  0.00    +0.000 C 
ENDBRANCH  25  26
ENDBRANCH  24  25
ENDBRANCH  22  24
ENDBRANCH   5  22
TORSDOF 9
ENDMDL
MODEL 7
REMARK VINA RESULT:      -7.5      2.965      5.499
REMARK  Name = 
REMARK  9 active torsions:
REMARK  status: ('A' for Active; 'I' for Inactive)
REMARK    1  A    between atoms: C_2  and  C_3
REMARK    2  A    between atoms: C_5  and  C_6
REMARK    3  A    between atoms: C_9  and  O_10
REMARK    4  A    between atoms: O_10  and  C_11
REMARK    5  A    between atoms: C_11  and  C_12
REMARK    6  A    between atoms: C_21  and  N_22
REMARK    7  A    between atoms: N_22  and  C_23
REMARK    8  A    between atoms: C_23  and  C_24
REMARK    9  A    between atoms: C_24  and  N_25
REMARK                            x       y       z     vdW  Elec       q    Type
REMARK                         _______ _______ _______ _____ _____    ______ ____
ROOT
ATOM      1  C   UNL     1       2.247   4.632  20.649  0.00  0.00    +0.000 A 
ATOM      2  N   UNL     1       1.565   5.817  20.792  0.00  0.00    +0.000 NA
ATOM      3  C   UNL     1       2.078   6.575  19.839  0.00  0.00    +0.000 A 
ATOM      4  O   UNL     1       3.078   5.984  19.121  0.00  0.00    +0.000 OA
ATOM      5  C   UNL     1       3.188   4.729  19.648  0.00  0.00    +0.000 A 
ENDROOT
BRANCH   3   6
ATOM      6  C   UNL     1       1.797   7.960  19.507  0.00  0.00    +0.000 A 
ATOM      7  C   UNL     1       1.133   8.761  20.442  0.00  0.00    +0.000 A 
ATOM      8  C   UNL     1       0.877  10.104  20.172  0.00  0.00    +0.000 A 
ATOM      9  C   UNL     1       1.289  10.670  18.965  0.00  0.00    +0.000 A 
ATOM     10  C   UNL     1       1.908   9.869  18.006  0.00  0.00    +0.000 A 
ATOM     11  C   UNL     1       2.174   8.523  18.279  0.00  0.00    +0.000 A 
BRANCH   9  12
ATOM     12  O   UNL     1       1.130  11.988  18.634  0.00  0.00    +0.000 OA
BRANCH  12  13
ATOM     13  C   UNL     1       1.293  12.902  19.724  0.00  0.00    +0.000 C 
BRANCH  13  14
ATOM     14  C   UNL     1       2.590  13.651  19.563  0.00  0.00    +0.000 A 
ATOM     15  C   UNL     1       3.108  13.925  18.291  0.00  0.00    +0.000 A 
ATOM     16  C   UNL     1       4.297  14.643  18.156  0.00  0.00    +0.000 A 
ATOM     17  C   UNL     1       4.971  15.098  19.288  0.00  0.00    +0.000 A 
ATOM     18  C   UNL     1       4.454  14.845  20.557  0.00  0.00    +0.000 A 
ATOM     19  C   UNL     1       3.268  14.128  20.695  0.00  0.00    +0.000 A 
ENDBRANCH  13  14
ENDBRANCH  12  13
ENDBRANCH   9  12
ENDBRANCH   3   6
BRANCH   1  21
ATOM     20  N   UNL     1       1.830   2.592  22.200  0.00  0.00    +0.000 NA
ATOM     21  C   UNL     1       2.006   3.511  21.507  0.00  0.00    +0.000 C 
ENDBRANCH   1  21
BRANCH   5  22
ATOM     22  N   UNL     1       4.125   3.917  19.117  0.00  0.00    +0.000 N 
ATOM     23  H   UNL     1       4.984   3.688  19.610  0.00  0.00    +0.000 HD
BRANCH  22  24
ATOM     24  C   UNL     1       3.926   3.277  17.818  0.00  0.00    +0.000 C 
BRANCH  24  25
ATOM     25  C   UNL     1       5.094   3.590  16.842  0.00  0.00    +0.000 C 
BRANCH  25  26
ATOM     26  N   UNL     1       4.973   4.857  16.091  0.00  0.00    +0.000 NA
ATOM     27  C   UNL     1       5.587   4.735  14.743  0.00  0.00    +0.000 C 
ATOM     28  C   UNL     1       7.129   4.748  14.744  0.00  0.00    +0.000 C 
ATOM     29  O   UNL     1       7.646   5.905  15.413  0.00  0.00    +0.000 OA
ATOM     30  C   UNL     1       7.144   5.984  16.752  0.00  0.00    +0.000 C 
ATOM     31  C   UNL     1       5.606   6.014  16.763  0.00  0.00    +0.000 C 
ENDBRANCH  25  26
ENDBRANCH  24  25
ENDBRANCH  22  24
ENDBRANCH   5  22
TORSDOF 9
ENDMDL
MODEL 8
REMARK VINA RESULT:      -7.5      2.668      5.287
REMARK  Name = 
REMARK  9 active torsions:
REMARK  status: ('A' for Active; 'I' for Inactive)
REMARK    1  A    between atoms: C_2  and  C_3
REMARK    2  A    between atoms: C_5  and  C_6
REMARK    3  A    between atoms: C_9  and  O_10
REMARK    4  A    between atoms: O_10  and  C_11
REMARK    5  A    between atoms: C_11  and  C_12
REMARK    6  A    between atoms: C_21  and  N_22
REMARK    7  A    between atoms: N_22  and  C_23
REMARK    8  A    between atoms: C_23  and  C_24
REMARK    9  A    between atoms: C_24  and  N_25
REMARK                            x       y       z     vdW  Elec       q    Type
REMARK                         _______ _______ _______ _____ _____    ______ ____
ROOT
ATOM      1  C   UNL     1       2.504   4.765  20.587  0.00  0.00    +0.000 A 
ATOM      2  N   UNL     1       1.673   5.855  20.695  0.00  0.00    +0.000 NA
ATOM      3  C   UNL     1       2.197   6.718  19.843  0.00  0.00    +0.000 A 
ATOM      4  O   UNL     1       3.337   6.286  19.228  0.00  0.00    +0.000 OA
ATOM      5  C   UNL     1       3.536   5.024  19.712  0.00  0.00    +0.000 A 
ENDROOT
BRANCH   3   6
ATOM      6  C   UNL     1       1.792   8.077  19.537  0.00  0.00    +0.000 A 
ATOM      7  C   UNL     1       2.138   8.627  18.298  0.00  0.00    +0.000 A 
ATOM      8  C   UNL     1       1.735   9.917  17.956  0.00  0.00    +0.000 A 
ATOM      9  C   UNL     1       0.972  10.675  18.845  0.00  0.00    +0.000 A 
ATOM     10  C   UNL     1       0.663  10.155  20.102  0.00  0.00    +0.000 A 
ATOM     11  C   UNL     1       1.058   8.857  20.443  0.00  0.00    +0.000 A 
BRANCH   9  12
ATOM     12  O   UNL     1       0.487  11.926  18.578  0.00  0.00    +0.000 OA
BRANCH  12  13
ATOM     13  C   UNL     1       0.637  12.866  19.646  0.00  0.00    +0.000 C 
BRANCH  13  14
ATOM     14  C   UNL     1       1.980  13.540  19.540  0.00  0.00    +0.000 A 
ATOM     15  C   UNL     1       2.499  13.915  18.294  0.00  0.00    +0.000 A 
ATOM     16  C   UNL     1       3.733  14.561  18.212  0.00  0.00    +0.000 A 
ATOM     17  C   UNL     1       4.451  14.845  19.372  0.00  0.00    +0.000 A 
ATOM     18  C   UNL     1       3.935  14.492  20.617  0.00  0.00    +0.000 A 
ATOM     19  C   UNL     1       2.704  13.845  20.702  0.00  0.00    +0.000 A 
ENDBRANCH  13  14
ENDBRANCH  12  13
ENDBRANCH   9  12
ENDBRANCH   3   6
BRANCH   1  21
ATOM     20  N   UNL     1       2.117   2.613  21.986  0.00  0.00    +0.000 NA
ATOM     21  C   UNL     1       2.302   3.578  21.362  0.00  0.00    +0.000 C 
ENDBRANCH   1  21
BRANCH   5  22
ATOM     22  N   UNL     1       4.618   4.355  19.266  0.00  0.00    +0.000 N 
ATOM     23  H   UNL     1       4.571   3.380  18.981  0.00  0.00    +0.000 HD
BRANCH  22  24
ATOM     24  C   UNL     1       5.912   5.018  19.118  0.00  0.00    +0.000 C 
BRANCH  24  25
ATOM     25  C   UNL     1       6.715   4.445  17.917  0.00  0.00    +0.000 C 
BRANCH  25  26
ATOM     26  N   UNL     1       7.295   5.450  17.002  0.00  0.00    +0.000 NA
ATOM     27  C   UNL     1       6.591   6.753  17.131  0.00  0.00    +0.000 C 
ATOM     28  C   UNL     1       5.196   6.789  16.473  0.00  0.00    +0.000 C 
ATOM     29  O   UNL     1       5.253   6.398  15.096  0.00  0.00    +0.000 OA
ATOM     30  C   UNL     1       5.836   5.098  14.961  0.00  0.00    +0.000 C 
ATOM     31  C   UNL     1       7.245   5.060  15.575  0.00  0.00    +0.000 C 
ENDBRANCH  25  26
ENDBRANCH  24  25
ENDBRANCH  22  24
ENDBRANCH   5  22
TORSDOF 9
ENDMDL
MODEL 9
REMARK VINA RESULT:      -7.5      2.853      5.101
REMARK  Name = 
REMARK  9 active torsions:
REMARK  status: ('A' for Active; 'I' for Inactive)
REMARK    1  A    between atoms: C_2  and  C_3
REMARK    2  A    between atoms: C_5  and  C_6
REMARK    3  A    between atoms: C_9  and  O_10
REMARK    4  A    between atoms: O_10  and  C_11
REMARK    5  A    between atoms: C_11  and  C_12
REMARK    6  A    between atoms: C_21  and  N_22
REMARK    7  A    between atoms: N_22  and  C_23
REMARK    8  A    between atoms: C_23  and  C_24
REMARK    9  A    between atoms: C_24  and  N_25
REMARK                            x       y       z     vdW  Elec       q    Type
REMARK                         _______ _______ _______ _____ _____    ______ ____
ROOT
ATOM      1  C   UNL     1       2.188   4.933  20.485  0.00  0.00    +0.000 A 
ATOM      2  N   UNL     1       1.551   6.071  20.920  0.00  0.00    +0.000 NA
ATOM      3  C   UNL     1       1.908   6.976  20.025  0.00  0.00    +0.000 A 
ATOM      4  O   UNL     1       2.771   6.519  19.071  0.00  0.00    +0.000 OA
ATOM      5  C   UNL     1       2.953   5.199  19.370  0.00  0.00    +0.000 A 
ENDROOT
BRANCH   3   6
ATOM      6  C   UNL     1       1.590   8.391  19.964  0.00  0.00    +0.000 A 
ATOM      7  C   UNL     1       1.678   9.053  18.735  0.00  0.00    +0.000 A 
ATOM      8  C   UNL     1       1.347  10.403  18.631  0.00  0.00    +0.000 A 
ATOM      9  C   UNL     1       0.915  11.110  19.754  0.00  0.00    +0.000 A 
ATOM     10  C   UNL     1       0.870  10.471  20.994  0.00  0.00    +0.000 A 
ATOM     11  C   UNL     1       1.193   9.114  21.098  0.00  0.00    +0.000 A 
BRANCH   9  12
ATOM     12  O   UNL     1       0.518  12.419  19.740  0.00  0.00    +0.000 OA
BRANCH  12  13
ATOM     13  C   UNL     1       1.541  13.358  20.091  0.00  0.00    +0.000 C 
BRANCH  13  14
ATOM     14  C   UNL     1       1.290  14.664  19.384  0.00  0.00    +0.000 A 
ATOM     15  C   UNL     1       2.356  15.434  18.900  0.00  0.00    +0.000 A 
ATOM     16  C   UNL     1       2.108  16.630  18.223  0.00  0.00    +0.000 A 
ATOM     17  C   UNL     1       0.798  17.058  18.018  0.00  0.00    +0.000 A 
ATOM     18  C   UNL     1      -0.268  16.290  18.481  0.00  0.00    +0.000 A 
ATOM     19  C   UNL     1      -0.024  15.097  19.158  0.00  0.00    +0.000 A 
ENDBRANCH  13  14
ENDBRANCH  12  13
ENDBRANCH   9  12
ENDBRANCH   3   6
BRANCH   1  21
ATOM     20  N   UNL     1       1.977   2.670  21.740  0.00  0.00    +0.000 NA
ATOM     21  C   UNL     1       2.079   3.689  21.186  0.00  0.00    +0.000 C 
ENDBRANCH   1  21
BRANCH   5  22
ATOM     22  N   UNL     1       3.781   4.493  18.574  0.00  0.00    +0.000 N 
ATOM     23  H   UNL     1       3.535   4.252  17.617  0.00  0.00    +0.000 HD
BRANCH  22  24
ATOM     24  C   UNL     1       5.106   4.082  19.032  0.00  0.00    +0.000 C 
BRANCH  24  25
ATOM     25  C   UNL     1       6.013   5.307  19.336  0.00  0.00    +0.000 C 
BRANCH  25  26
ATOM     26  N   UNL     1       7.401   5.210  18.841  0.00  0.00    +0.000 NA
ATOM     27  C   UNL     1       8.036   6.552  18.773  0.00  0.00    +0.000 C 
ATOM     28  C   UNL     1       7.554   7.424  17.596  0.00  0.00    +0.000 C 
ATOM     29  O   UNL     1       7.708   6.747  16.342  0.00  0.00    +0.000 OA
ATOM     30  C   UNL     1       7.015   5.494  16.353  0.00  0.00    +0.000 C 
ATOM     31  C   UNL     1       7.516   4.598  17.498  0.00  0.00    +0.000 C 
ENDBRANCH  25  26
ENDBRANCH  24  25
ENDBRANCH  22  24
ENDBRANCH   5  22
TORSDOF 9
ENDMDL
