MODEL 1
REMARK VINA RESULT:      -8.2      0.000      0.000
REMARK  Name = 
REMARK  6 active torsions:
REMARK  status: ('A' for Active; 'I' for Inactive)
REMARK    1  A    between atoms: C_2  and  C_3
REMARK    2  A    between atoms: C_11  and  N_12
REMARK    3  A    between atoms: N_12  and  C_13
REMARK    4  A    between atoms: C_13  and  C_14
REMARK    5  A    between atoms: N_20  and  C_21
REMARK    6  A    between atoms: C_21  and  C_22
REMARK                            x       y       z     vdW  Elec       q    Type
REMARK                         _______ _______ _______ _____ _____    ______ ____
ROOT
ATOM      1  C   UNL     1       2.667   7.183  18.718  0.00  0.00    +0.000 A 
ATOM      2  C   UNL     1       3.656   6.372  18.016  0.00  0.00    +0.000 A 
ATOM      3  C   UNL     1       3.962   5.117  18.432  0.00  0.00    +0.000 A 
ATOM      4  C   UNL     1       3.281   4.620  19.600  0.00  0.00    +0.000 A 
ATOM      5  N   UNL     1       3.371   3.476  20.245  0.00  0.00    +0.000 NA
ATOM      6  N   UNL     1       2.503   3.520  21.311  0.00  0.00    +0.000 NA
ATOM      7  C   UNL     1       1.909   4.691  21.295  0.00  0.00    +0.000 A 
ATOM      8  N   UNL     1       2.368   5.438  20.247  0.00  0.00    +0.000 N 
ATOM      9  C   UNL     1       2.030   6.735  19.825  0.00  0.00    +0.000 A 
ATOM     10  C   UNL     1       4.998   4.294  17.675  0.00  0.00    +0.000 C 
ATOM     11  N   UNL     1       5.373   4.829  16.345  0.00  0.00    +0.000 NA
ATOM     12  C   UNL     1       5.630   6.270  16.434  0.00  0.00    +0.000 C 
ATOM     13  C   UNL     1       4.347   6.999  16.830  0.00  0.00    +0.000 C 
ENDROOT
BRANCH   1  15
ATOM     14  N   UNL     1       2.084   9.750  17.823  0.00  0.00    +0.000 NA
ATOM     15  C   UNL     1       2.348   8.586  18.229  0.00  0.00    +0.000 C 
ENDBRANCH   1  15
BRANCH   9  16
ATOM     16  N   UNL     1       1.120   7.511  20.561  0.00  0.00    +0.000 N 
ATOM     17  H   UNL     1       0.472   8.033  19.970  0.00  0.00    +0.000 HD
BRANCH  16  18
ATOM     18  C   UNL     1       1.543   8.371  21.680  0.00  0.00    +0.000 C 
BRANCH  18  19
ATOM     19  C   UNL     1       0.556   9.430  22.038  0.00  0.00    +0.000 A 
ATOM     20  C   UNL     1      -0.336   9.578  23.080  0.00  0.00    +0.000 A 
ATOM     21  C   UNL     1      -0.975  10.829  22.889  0.00  0.00    +0.000 A 
ATOM     22  C   UNL     1      -0.438  11.361  21.742  0.00  0.00    +0.000 A 
ATOM     23  O   UNL     1       0.489  10.518  21.214  0.00  0.00    +0.000 OA
ENDBRANCH  18  19
ENDBRANCH  16  18
ENDBRANCH   9  16
BRANCH  11  24
ATOM     24  C   UNL     1       6.550   4.104  15.831  0.00  0.00    +0.000 C 
BRANCH  24  25
ATOM     25  C   UNL     1       6.743   4.217  14.331  0.00  0.00    +0.000 A 
ATOM     26  C   UNL     1       6.004   3.405  13.458  0.00  0.00    +0.000 A 
ATOM     27  C   UNL     1       6.153   3.526  12.075  0.00  0.00    +0.000 A 
ATOM     28  C   UNL     1       7.045   4.459  11.550  0.00  0.00    +0.000 A 
ATOM     29  C   UNL     1       7.802   5.256  12.407  0.00  0.00    +0.000 A 
ATOM     30  C   UNL     1       7.656   5.134  13.791  0.00  0.00    +0.000 A 
ENDBRANCH  24  25
ENDBRANCH  11  24
TORSDOF 6
ENDMDL
MODEL 2
REMARK VINA RESULT:      -8.1      0.506      1.135
REMARK  Name = 
REMARK  6 active torsions:
REMARK  status: ('A' for Active; 'I' for Inactive)
REMARK    1  A    between atoms: C_2  and  C_3
REMARK    2  A    between atoms: C_11  and  N_12
REMARK    3  A    between atoms: N_12  and  C_13
REMARK    4  A    between atoms: C_13  and  C_14
REMARK    5  A    between atoms: N_20  and  C_21
REMARK    6  A    between atoms: C_21  and  C_22
REMARK                            x       y       z     vdW  Elec       q    Type
REMARK                         _______ _______ _______ _____ _____    ______ ____
ROOT
ATOM      1  C   UNL     1       2.637   7.059  18.768  0.00  0.00    +0.000 A 
ATOM      2  C   UNL     1       3.647   6.291  18.048  0.00  0.00    +0.000 A 
ATOM      3  C   UNL     1       3.993   5.038  18.441  0.00  0.00    +0.000 A 
ATOM      4  C   UNL     1       3.332   4.500  19.602  0.00  0.00    +0.000 A 
ATOM      5  N   UNL     1       3.460   3.349  20.226  0.00  0.00    +0.000 NA
ATOM      6  N   UNL     1       2.595   3.348  21.296  0.00  0.00    +0.000 NA
ATOM      7  C   UNL     1       1.966   4.500  21.303  0.00  0.00    +0.000 A 
ATOM      8  N   UNL     1       2.397   5.279  20.267  0.00  0.00    +0.000 N 
ATOM      9  C   UNL     1       2.018   6.572  19.869  0.00  0.00    +0.000 A 
ATOM     10  C   UNL     1       5.051   4.261  17.665  0.00  0.00    +0.000 C 
ATOM     11  N   UNL     1       5.404   4.831  16.343  0.00  0.00    +0.000 NA
ATOM     12  C   UNL     1       5.616   6.277  16.457  0.00  0.00    +0.000 C 
ATOM     13  C   UNL     1       4.314   6.960  16.870  0.00  0.00    +0.000 C 
ENDROOT
BRANCH   1  15
ATOM     14  N   UNL     1       1.972   9.623  17.920  0.00  0.00    +0.000 NA
ATOM     15  C   UNL     1       2.274   8.460  18.305  0.00  0.00    +0.000 C 
ENDBRANCH   1  15
BRANCH   9  16
ATOM     16  N   UNL     1       1.088   7.307  20.622  0.00  0.00    +0.000 N 
ATOM     17  H   UNL     1       0.359   7.734  20.049  0.00  0.00    +0.000 HD
BRANCH  16  18
ATOM     18  C   UNL     1       1.499   8.266  21.662  0.00  0.00    +0.000 C 
BRANCH  18  19
ATOM     19  C   UNL     1       0.533   9.382  21.873  0.00  0.00    +0.000 A 
ATOM     20  C   UNL     1       0.007  10.348  21.039  0.00  0.00    +0.000 A 
ATOM     21  C   UNL     1      -0.901  11.106  21.821  0.00  0.00    +0.000 A 
ATOM     22  C   UNL     1      -0.868  10.559  23.082  0.00  0.00    +0.000 A 
ATOM     23  O   UNL     1       0.003   9.515  23.126  0.00  0.00    +0.000 OA
ENDBRANCH  18  19
ENDBRANCH  16  18
ENDBRANCH   9  16
BRANCH  11  24
ATOM     24  C   UNL     1       6.600   4.151  15.812  0.00  0.00    +0.000 C 
BRANCH  24  25
ATOM     25  C   UNL     1       6.760   4.260  14.308  0.00  0.00    +0.000 A 
ATOM     26  C   UNL     1       7.651   5.193  13.756  0.00  0.00    +0.000 A 
ATOM     27  C   UNL     1       7.827   5.277  12.374  0.00  0.00    +0.000 A 
ATOM     28  C   UNL     1       7.112   4.431  11.528  0.00  0.00    +0.000 A 
ATOM     29  C   UNL     1       6.207   3.516  12.063  0.00  0.00    +0.000 A 
ATOM     30  C   UNL     1       6.028   3.432  13.445  0.00  0.00    +0.000 A 
ENDBRANCH  24  25
ENDBRANCH  11  24
TORSDOF 6
ENDMDL
MODEL 3
REMARK VINA RESULT:      -7.7      2.847      7.808
REMARK  Name = 
REMARK  6 active torsions:
REMARK  status: ('A' for Active; 'I' for Inactive)
REMARK    1  A    between atoms: C_2  and  C_3
REMARK    2  A    between atoms: C_11  and  N_12
REMARK    3  A    between atoms: N_12  and  C_13
REMARK    4  A    between atoms: C_13  and  C_14
REMARK    5  A    between atoms: N_20  and  C_21
REMARK    6  A    between atoms: C_21  and  C_22
REMARK                            x       y       z     vdW  Elec       q    Type
REMARK                         _______ _______ _______ _____ _____    ______ ____
ROOT
ATOM      1  C   UNL     1       4.097   5.953  17.347  0.00  0.00    +0.000 A 
ATOM      2  C   UNL     1       3.202   6.762  18.167  0.00  0.00    +0.000 A 
ATOM      3  C   UNL     1       2.680   6.282  19.325  0.00  0.00    +0.000 A 
ATOM      4  C   UNL     1       3.037   4.940  19.708  0.00  0.00    +0.000 A 
ATOM      5  N   UNL     1       2.688   4.204  20.740  0.00  0.00    +0.000 NA
ATOM      6  N   UNL     1       3.306   2.981  20.618  0.00  0.00    +0.000 NA
ATOM      7  C   UNL     1       4.011   2.998  19.511  0.00  0.00    +0.000 A 
ATOM      8  N   UNL     1       3.872   4.203  18.882  0.00  0.00    +0.000 N 
ATOM      9  C   UNL     1       4.430   4.687  17.686  0.00  0.00    +0.000 A 
ATOM     10  C   UNL     1       1.749   7.154  20.160  0.00  0.00    +0.000 C 
ATOM     11  N   UNL     1       1.728   8.588  19.786  0.00  0.00    +0.000 NA
ATOM     12  C   UNL     1       1.615   8.728  18.331  0.00  0.00    +0.000 C 
ATOM     13  C   UNL     1       2.853   8.140  17.657  0.00  0.00    +0.000 C 
ENDROOT
BRANCH   1  15
ATOM     14  N   UNL     1       5.131   6.987  14.981  0.00  0.00    +0.000 NA
ATOM     15  C   UNL     1       4.662   6.519  16.054  0.00  0.00    +0.000 C 
ENDBRANCH   1  15
BRANCH   9  16
ATOM     16  N   UNL     1       5.238   3.859  16.890  0.00  0.00    +0.000 N 
ATOM     17  H   UNL     1       5.128   2.868  17.105  0.00  0.00    +0.000 HD
BRANCH  16  18
ATOM     18  C   UNL     1       6.666   4.141  16.658  0.00  0.00    +0.000 C 
BRANCH  18  19
ATOM     19  C   UNL     1       7.260   5.101  17.632  0.00  0.00    +0.000 A 
ATOM     20  C   UNL     1       7.642   6.424  17.542  0.00  0.00    +0.000 A 
ATOM     21  C   UNL     1       8.103   6.799  18.829  0.00  0.00    +0.000 A 
ATOM     22  C   UNL     1       7.980   5.682  19.620  0.00  0.00    +0.000 A 
ATOM     23  O   UNL     1       7.473   4.644  18.902  0.00  0.00    +0.000 OA
ENDBRANCH  18  19
ENDBRANCH  16  18
ENDBRANCH   9  16
BRANCH  11  24
ATOM     24  C   UNL     1       0.619   9.267  20.480  0.00  0.00    +0.000 C 
BRANCH  24  25
ATOM     25  C   UNL     1       0.143  10.534  19.798  0.00  0.00    +0.000 A 
ATOM     26  C   UNL     1       0.945  11.687  19.804  0.00  0.00    +0.000 A 
ATOM     27  C   UNL     1       0.527  12.848  19.151  0.00  0.00    +0.000 A 
ATOM     28  C   UNL     1      -0.699  12.871  18.487  0.00  0.00    +0.000 A 
ATOM     29  C   UNL     1      -1.515  11.740  18.494  0.00  0.00    +0.000 A 
ATOM     30  C   UNL     1      -1.099  10.579  19.148  0.00  0.00    +0.000 A 
ENDBRANCH  24  25
ENDBRANCH  11  24
TORSDOF 6
ENDMDL
MODEL 4
REMARK VINA RESULT:      -7.7      2.523      8.503
REMARK  Name = 
REMARK  6 active torsions:
REMARK  status: ('A' for Active; 'I' for Inactive)
REMARK    1  A    between atoms: C_2  and  C_3
REMARK    2  A    between atoms: C_11  and  N_12
REMARK    3  A    between atoms: N_12  and  C_13
REMARK    4  A    between atoms: C_13  and  C_14
REMARK    5  A    between atoms: N_20  and  C_21
REMARK    6  A    between atoms: C_21  and  C_22
REMARK                            x       y       z     vdW  Elec       q    Type
REMARK                         _______ _______ _______ _____ _____    ______ ____
ROOT
ATOM      1  C   UNL     1       4.177   5.842  17.478  0.00  0.00    +0.000 A 
ATOM      2  C   UNL     1       3.285   6.552  18.389  0.00  0.00    +0.000 A 
ATOM      3  C   UNL     1       2.798   5.956  19.507  0.00  0.00    +0.000 A 
ATOM      4  C   UNL     1       3.186   4.591  19.754  0.00  0.00    +0.000 A 
ATOM      5  N   UNL     1       2.874   3.754  20.720  0.00  0.00    +0.000 NA
ATOM      6  N   UNL     1       3.511   2.560  20.471  0.00  0.00    +0.000 NA
ATOM      7  C   UNL     1       4.191   2.696  19.356  0.00  0.00    +0.000 A 
ATOM      8  N   UNL     1       4.017   3.951  18.846  0.00  0.00    +0.000 N 
ATOM      9  C   UNL     1       4.539   4.555  17.690  0.00  0.00    +0.000 A 
ATOM     10  C   UNL     1       1.869   6.726  20.439  0.00  0.00    +0.000 C 
ATOM     11  N   UNL     1       1.815   8.188  20.201  0.00  0.00    +0.000 NA
ATOM     12  C   UNL     1       1.668   8.462  18.769  0.00  0.00    +0.000 C 
ATOM     13  C   UNL     1       2.901   7.964  18.018  0.00  0.00    +0.000 C 
ENDROOT
BRANCH   1  15
ATOM     14  N   UNL     1       5.141   7.113  15.200  0.00  0.00    +0.000 NA
ATOM     15  C   UNL     1       4.704   6.536  16.233  0.00  0.00    +0.000 C 
ENDBRANCH   1  15
BRANCH   9  16
ATOM     16  N   UNL     1       5.345   3.822  16.804  0.00  0.00    +0.000 N 
ATOM     17  H   UNL     1       5.380   2.827  17.027  0.00  0.00    +0.000 HD
BRANCH  16  18
ATOM     18  C   UNL     1       6.693   4.270  16.411  0.00  0.00    +0.000 C 
BRANCH  18  19
ATOM     19  C   UNL     1       6.891   4.371  14.936  0.00  0.00    +0.000 A 
ATOM     20  C   UNL     1       6.273   3.775  13.856  0.00  0.00    +0.000 A 
ATOM     21  C   UNL     1       6.885   4.312  12.695  0.00  0.00    +0.000 A 
ATOM     22  C   UNL     1       7.840   5.195  13.139  0.00  0.00    +0.000 A 
ATOM     23  O   UNL     1       7.855   5.235  14.498  0.00  0.00    +0.000 OA
ENDBRANCH  18  19
ENDBRANCH  16  18
ENDBRANCH   9  16
BRANCH  11  24
ATOM     24  C   UNL     1       0.709   8.777  20.978  0.00  0.00    +0.000 C 
BRANCH  24  25
ATOM     25  C   UNL     1       0.245  10.129  20.472  0.00  0.00    +0.000 A 
ATOM     26  C   UNL     1       0.912  11.300  20.865  0.00  0.00    +0.000 A 
ATOM     27  C   UNL     1       0.510  12.545  20.377  0.00  0.00    +0.000 A 
ATOM     28  C   UNL     1      -0.564  12.634  19.494  0.00  0.00    +0.000 A 
ATOM     29  C   UNL     1      -1.249  11.480  19.114  0.00  0.00    +0.000 A 
ATOM     30  C   UNL     1      -0.850  10.235  19.603  0.00  0.00    +0.000 A 
ENDBRANCH  24  25
ENDBRANCH  11  24
TORSDOF 6
ENDMDL
MODEL 5
REMARK VINA RESULT:      -7.7      3.385      5.619
REMARK  Name = 
REMARK  6 active torsions:
REMARK  status: ('A' for Active; 'I' for Inactive)
REMARK    1  A    between atoms: C_2  and  C_3
REMARK    2  A    between atoms: C_11  and  N_12
REMARK    3  A    between atoms: N_12  and  C_13
REMARK    4  A    between atoms: C_13  and  C_14
REMARK    5  A    between atoms: N_20  and  C_21
REMARK    6  A    between atoms: C_21  and  C_22
REMARK                            x       y       z     vdW  Elec       q    Type
REMARK                         _______ _______ _______ _____ _____    ______ ____
ROOT
ATOM      1  C   UNL     1      -0.603  10.722  19.419  0.00  0.00    +0.000 A 
ATOM      2  C   UNL     1       0.416   9.699  19.214  0.00  0.00    +0.000 A 
ATOM      3  C   UNL     1       0.983   9.048  20.263  0.00  0.00    +0.000 A 
ATOM      4  C   UNL     1       0.546   9.414  21.585  0.00  0.00    +0.000 A 
ATOM      5  N   UNL     1       0.909   8.988  22.776  0.00  0.00    +0.000 NA
ATOM      6  N   UNL     1       0.184   9.683  23.716  0.00  0.00    +0.000 NA
ATOM      7  C   UNL     1      -0.599  10.521  23.077  0.00  0.00    +0.000 A 
ATOM      8  N   UNL     1      -0.409  10.410  21.728  0.00  0.00    +0.000 N 
ATOM      9  C   UNL     1      -1.014  11.086  20.655  0.00  0.00    +0.000 A 
ATOM     10  C   UNL     1       2.045   7.983  20.015  0.00  0.00    +0.000 C 
ATOM     11  N   UNL     1       2.156   7.523  18.611  0.00  0.00    +0.000 NA
ATOM     12  C   UNL     1       2.169   8.673  17.703  0.00  0.00    +0.000 C 
ATOM     13  C   UNL     1       0.839   9.418  17.792  0.00  0.00    +0.000 C 
ENDROOT
BRANCH   1  15
ATOM     14  N   UNL     1      -1.725  12.024  17.233  0.00  0.00    +0.000 NA
ATOM     15  C   UNL     1      -1.216  11.434  18.224  0.00  0.00    +0.000 C 
ENDBRANCH   1  15
BRANCH   9  16
ATOM     16  N   UNL     1      -1.946  12.109  20.891  0.00  0.00    +0.000 N 
ATOM     17  H   UNL     1      -2.632  12.204  20.141  0.00  0.00    +0.000 HD
BRANCH  16  18
ATOM     18  C   UNL     1      -1.544  13.453  21.342  0.00  0.00    +0.000 C 
BRANCH  18  19
ATOM     19  C   UNL     1      -0.185  13.863  20.888  0.00  0.00    +0.000 A 
ATOM     20  C   UNL     1       0.295  14.409  19.715  0.00  0.00    +0.000 A 
ATOM     21  C   UNL     1       1.685  14.617  19.906  0.00  0.00    +0.000 A 
ATOM     22  C   UNL     1       1.965  14.181  21.178  0.00  0.00    +0.000 A 
ATOM     23  O   UNL     1       0.838  13.717  21.782  0.00  0.00    +0.000 OA
ENDBRANCH  18  19
ENDBRANCH  16  18
ENDBRANCH   9  16
BRANCH  11  24
ATOM     24  C   UNL     1       3.368   6.698  18.452  0.00  0.00    +0.000 C 
BRANCH  24  25
ATOM     25  C   UNL     1       3.090   5.238  18.154  0.00  0.00    +0.000 A 
ATOM     26  C   UNL     1       4.137   4.377  17.788  0.00  0.00    +0.000 A 
ATOM     27  C   UNL     1       3.894   3.025  17.543  0.00  0.00    +0.000 A 
ATOM     28  C   UNL     1       2.601   2.517  17.659  0.00  0.00    +0.000 A 
ATOM     29  C   UNL     1       1.549   3.366  18.000  0.00  0.00    +0.000 A 
ATOM     30  C   UNL     1       1.790   4.719  18.243  0.00  0.00    +0.000 A 
ENDBRANCH  24  25
ENDBRANCH  11  24
TORSDOF 6
ENDMDL
MODEL 6
REMARK VINA RESULT:      -7.6      4.343      7.121
REMARK  Name = 
REMARK  6 active torsions:
REMARK  status: ('A' for Active; 'I' for Inactive)
REMARK    1  A    between atoms: C_2  and  C_3
REMARK    2  A    between atoms: C_11  and  N_12
REMARK    3  A    between atoms: N_12  and  C_13
REMARK    4  A    between atoms: C_13  and  C_14
REMARK    5  A    between atoms: N_20  and  C_21
REMARK    6  A    between atoms: C_21  and  C_22
REMARK                            x       y       z     vdW  Elec       q    Type
REMARK                         _______ _______ _______ _____ _____    ______ ____
ROOT
ATOM      1  C   UNL     1      -1.420  11.195  18.854  0.00  0.00    +0.000 A 
ATOM      2  C   UNL     1      -0.385  10.187  19.057  0.00  0.00    +0.000 A 
ATOM      3  C   UNL     1       0.142   9.955  20.286  0.00  0.00    +0.000 A 
ATOM      4  C   UNL     1      -0.352  10.750  21.381  0.00  0.00    +0.000 A 
ATOM      5  N   UNL     1      -0.036  10.774  22.658  0.00  0.00    +0.000 NA
ATOM      6  N   UNL     1      -0.804  11.737  23.269  0.00  0.00    +0.000 NA
ATOM      7  C   UNL     1      -1.567  12.283  22.349  0.00  0.00    +0.000 A 
ATOM      8  N   UNL     1      -1.319  11.713  21.132  0.00  0.00    +0.000 N 
ATOM      9  C   UNL     1      -1.884  11.959  19.870  0.00  0.00    +0.000 A 
ATOM     10  C   UNL     1       1.221   8.893  20.465  0.00  0.00    +0.000 C 
ATOM     11  N   UNL     1       1.394   7.976  19.314  0.00  0.00    +0.000 NA
ATOM     12  C   UNL     1       1.436   8.737  18.063  0.00  0.00    +0.000 C 
ATOM     13  C   UNL     1       0.098   9.438  17.838  0.00  0.00    +0.000 C 
ENDROOT
BRANCH   1  15
ATOM     14  N   UNL     1      -2.459  11.630  16.311  0.00  0.00    +0.000 NA
ATOM     15  C   UNL     1      -1.988  11.433  17.464  0.00  0.00    +0.000 C 
ENDBRANCH   1  15
BRANCH   9  16
ATOM     16  N   UNL     1      -2.833  12.980  19.699  0.00  0.00    +0.000 N 
ATOM     17  H   UNL     1      -2.430  13.915  19.763  0.00  0.00    +0.000 HD
BRANCH  16  18
ATOM     18  C   UNL     1      -4.131  12.972  20.397  0.00  0.00    +0.000 C 
BRANCH  18  19
ATOM     19  C   UNL     1      -5.203  12.229  19.675  0.00  0.00    +0.000 A 
ATOM     20  C   UNL     1      -5.405  11.913  18.347  0.00  0.00    +0.000 A 
ATOM     21  C   UNL     1      -6.596  11.145  18.292  0.00  0.00    +0.000 A 
ATOM     22  C   UNL     1      -7.047  11.047  19.586  0.00  0.00    +0.000 A 
ATOM     23  O   UNL     1      -6.212  11.704  20.434  0.00  0.00    +0.000 OA
ENDBRANCH  18  19
ENDBRANCH  16  18
ENDBRANCH   9  16
BRANCH  11  24
ATOM     24  C   UNL     1       2.617   7.173  19.498  0.00  0.00    +0.000 C 
BRANCH  24  25
ATOM     25  C   UNL     1       2.385   5.675  19.486  0.00  0.00    +0.000 A 
ATOM     26  C   UNL     1       2.306   4.960  20.691  0.00  0.00    +0.000 A 
ATOM     27  C   UNL     1       2.061   3.586  20.689  0.00  0.00    +0.000 A 
ATOM     28  C   UNL     1       1.894   2.910  19.481  0.00  0.00    +0.000 A 
ATOM     29  C   UNL     1       1.992   3.605  18.277  0.00  0.00    +0.000 A 
ATOM     30  C   UNL     1       2.240   4.979  18.277  0.00  0.00    +0.000 A 
ENDBRANCH  24  25
ENDBRANCH  11  24
TORSDOF 6
ENDMDL
MODEL 7
REMARK VINA RESULT:      -7.6      4.078      6.091
REMARK  Name = 
REMARK  6 active torsions:
REMARK  status: ('A' for Active; 'I' for Inactive)
REMARK    1  A    between atoms: C_2  and  C_3
REMARK    2  A    between atoms: C_11  and  N_12
REMARK    3  A    between atoms: N_12  and  C_13
REMARK    4  A    between atoms: C_13  and  C_14
REMARK    5  A    between atoms: N_20  and  C_21
REMARK    6  A    between atoms: C_21  and  C_22
REMARK                            x       y       z     vdW  Elec       q    Type
REMARK                         _______ _______ _______ _____ _____    ______ ____
ROOT
ATOM      1  C   UNL     1      -0.333  11.025  19.507  0.00  0.00    +0.000 A 
ATOM      2  C   UNL     1       0.538   9.871  19.316  0.00  0.00    +0.000 A 
ATOM      3  C   UNL     1       0.937   9.107  20.365  0.00  0.00    +0.000 A 
ATOM      4  C   UNL     1       0.476   9.486  21.675  0.00  0.00    +0.000 A 
ATOM      5  N   UNL     1       0.699   8.969  22.865  0.00  0.00    +0.000 NA
ATOM      6  N   UNL     1       0.025   9.729  23.792  0.00  0.00    +0.000 NA
ATOM      7  C   UNL     1      -0.587  10.696  23.147  0.00  0.00    +0.000 A 
ATOM      8  N   UNL     1      -0.331  10.606  21.808  0.00  0.00    +0.000 N 
ATOM      9  C   UNL     1      -0.763  11.402  20.734  0.00  0.00    +0.000 A 
ATOM     10  C   UNL     1       1.847   7.906  20.131  0.00  0.00    +0.000 C 
ATOM     11  N   UNL     1       1.979   7.486  18.715  0.00  0.00    +0.000 NA
ATOM     12  C   UNL     1       2.215   8.653  17.862  0.00  0.00    +0.000 C 
ATOM     13  C   UNL     1       1.004   9.582  17.909  0.00  0.00    +0.000 C 
ENDROOT
BRANCH   1  15
ATOM     14  N   UNL     1      -1.116  12.556  17.321  0.00  0.00    +0.000 NA
ATOM     15  C   UNL     1      -0.761  11.862  18.312  0.00  0.00    +0.000 C 
ENDBRANCH   1  15
BRANCH   9  16
ATOM     16  N   UNL     1      -1.551  12.541  20.961  0.00  0.00    +0.000 N 
ATOM     17  H   UNL     1      -1.180  13.143  21.697  0.00  0.00    +0.000 HD
BRANCH  16  18
ATOM     18  C   UNL     1      -3.017  12.471  21.098  0.00  0.00    +0.000 C 
BRANCH  18  19
ATOM     19  C   UNL     1      -3.514  12.801  22.464  0.00  0.00    +0.000 A 
ATOM     20  C   UNL     1      -2.975  13.502  23.524  0.00  0.00    +0.000 A 
ATOM     21  C   UNL     1      -3.958  13.508  24.546  0.00  0.00    +0.000 A 
ATOM     22  C   UNL     1      -5.029  12.806  24.049  0.00  0.00    +0.000 A 
ATOM     23  O   UNL     1      -4.770  12.369  22.788  0.00  0.00    +0.000 OA
ENDBRANCH  18  19
ENDBRANCH  16  18
ENDBRANCH   9  16
BRANCH  11  24
ATOM     24  C   UNL     1       3.066   6.498  18.590  0.00  0.00    +0.000 C 
BRANCH  24  25
ATOM     25  C   UNL     1       2.643   5.070  18.877  0.00  0.00    +0.000 A 
ATOM     26  C   UNL     1       2.976   4.464  20.098  0.00  0.00    +0.000 A 
ATOM     27  C   UNL     1       2.564   3.161  20.382  0.00  0.00    +0.000 A 
ATOM     28  C   UNL     1       1.815   2.448  19.447  0.00  0.00    +0.000 A 
ATOM     29  C   UNL     1       1.497   3.030  18.221  0.00  0.00    +0.000 A 
ATOM     30  C   UNL     1       1.912   4.333  17.935  0.00  0.00    +0.000 A 
ENDBRANCH  24  25
ENDBRANCH  11  24
TORSDOF 6
ENDMDL
MODEL 8
REMARK VINA RESULT:      -7.6      3.505      5.707
REMARK  Name = 
REMARK  6 active torsions:
REMARK  status: ('A' for Active; 'I' for Inactive)
REMARK    1  A    between atoms: C_2  and  C_3
REMARK    2  A    between atoms: C_11  and  N_12
REMARK    3  A    between atoms: N_12  and  C_13
REMARK    4  A    between atoms: C_13  and  C_14
REMARK    5  A    between atoms: N_20  and  C_21
REMARK    6  A    between atoms: C_21  and  C_22
REMARK                            x       y       z     vdW  Elec       q    Type
REMARK                         _______ _______ _______ _____ _____    ______ ____
ROOT
ATOM      1  C   UNL     1      -0.551  10.736  19.436  0.00  0.00    +0.000 A 
ATOM      2  C   UNL     1       0.448   9.694  19.228  0.00  0.00    +0.000 A 
ATOM      3  C   UNL     1       1.002   9.029  20.273  0.00  0.00    +0.000 A 
ATOM      4  C   UNL     1       0.574   9.398  21.597  0.00  0.00    +0.000 A 
ATOM      5  N   UNL     1       0.929   8.961  22.786  0.00  0.00    +0.000 NA
ATOM      6  N   UNL     1       0.218   9.666  23.729  0.00  0.00    +0.000 NA
ATOM      7  C   UNL     1      -0.549  10.521  23.094  0.00  0.00    +0.000 A 
ATOM      8  N   UNL     1      -0.361  10.412  21.745  0.00  0.00    +0.000 N 
ATOM      9  C   UNL     1      -0.953  11.103  20.675  0.00  0.00    +0.000 A 
ATOM     10  C   UNL     1       2.043   7.943  20.021  0.00  0.00    +0.000 C 
ATOM     11  N   UNL     1       2.145   7.487  18.614  0.00  0.00    +0.000 NA
ATOM     12  C   UNL     1       2.180   8.640  17.711  0.00  0.00    +0.000 C 
ATOM     13  C   UNL     1       0.865   9.411  17.804  0.00  0.00    +0.000 C 
ENDROOT
BRANCH   1  15
ATOM     14  N   UNL     1      -1.649  12.068  17.256  0.00  0.00    +0.000 NA
ATOM     15  C   UNL     1      -1.151  11.464  18.245  0.00  0.00    +0.000 C 
ENDBRANCH   1  15
BRANCH   9  16
ATOM     16  N   UNL     1      -1.866  12.143  20.915  0.00  0.00    +0.000 N 
ATOM     17  H   UNL     1      -2.527  12.279  20.149  0.00  0.00    +0.000 HD
BRANCH  16  18
ATOM     18  C   UNL     1      -1.443  13.462  21.418  0.00  0.00    +0.000 C 
BRANCH  18  19
ATOM     19  C   UNL     1      -0.569  14.218  20.475  0.00  0.00    +0.000 A 
ATOM     20  C   UNL     1       0.781  14.176  20.197  0.00  0.00    +0.000 A 
ATOM     21  C   UNL     1       1.010  15.119  19.163  0.00  0.00    +0.000 A 
ATOM     22  C   UNL     1      -0.212  15.680  18.881  0.00  0.00    +0.000 A 
ATOM     23  O   UNL     1      -1.178  15.144  19.674  0.00  0.00    +0.000 OA
ENDBRANCH  18  19
ENDBRANCH  16  18
ENDBRANCH   9  16
BRANCH  11  24
ATOM     24  C   UNL     1       3.340   6.639  18.452  0.00  0.00    +0.000 C 
BRANCH  24  25
ATOM     25  C   UNL     1       3.034   5.173  18.215  0.00  0.00    +0.000 A 
ATOM     26  C   UNL     1       1.721   4.693  18.343  0.00  0.00    +0.000 A 
ATOM     27  C   UNL     1       1.427   3.352  18.095  0.00  0.00    +0.000 A 
ATOM     28  C   UNL     1       2.441   2.474  17.717  0.00  0.00    +0.000 A 
ATOM     29  C   UNL     1       3.753   2.933  17.608  0.00  0.00    +0.000 A 
ATOM     30  C   UNL     1       4.050   4.275  17.858  0.00  0.00    +0.000 A 
ENDBRANCH  24  25
ENDBRANCH  11  24
TORSDOF 6
ENDMDL
MODEL 9
REMARK VINA RESULT:      -7.6      3.892      6.652
REMARK  Name = 
REMARK  6 active torsions:
REMARK  status: ('A' for Active; 'I' for Inactive)
REMARK    1  A    between atoms: C_2  and  C_3
REMARK    2  A    between atoms: C_11  and  N_12
REMARK    3  A    between atoms: N_12  and  C_13
REMARK    4  A    between atoms: C_13  and  C_14
REMARK    5  A    between atoms: N_20  and  C_21
REMARK    6  A    between atoms: C_21  and  C_22
REMARK                            x       y       z     vdW  Elec       q    Type
REMARK                         _______ _______ _______ _____ _____    ______ ____
ROOT
ATOM      1  C   UNL     1      -1.356  11.088  18.845  0.00  0.00    +0.000 A 
ATOM      2  C   UNL     1      -0.284  10.113  19.018  0.00  0.00    +0.000 A 
ATOM      3  C   UNL     1       0.263   9.877  20.237  0.00  0.00    +0.000 A 
ATOM      4  C   UNL     1      -0.246  10.633  21.352  0.00  0.00    +0.000 A 
ATOM      5  N   UNL     1       0.083  10.644  22.626  0.00  0.00    +0.000 NA
ATOM      6  N   UNL     1      -0.712  11.567  23.263  0.00  0.00    +0.000 NA
ATOM      7  C   UNL     1      -1.503  12.103  22.362  0.00  0.00    +0.000 A 
ATOM      8  N   UNL     1      -1.249  11.565  21.132  0.00  0.00    +0.000 N 
ATOM      9  C   UNL     1      -1.835  11.815  19.880  0.00  0.00    +0.000 A 
ATOM     10  C   UNL     1       1.381   8.850  20.385  0.00  0.00    +0.000 C 
ATOM     11  N   UNL     1       1.574   7.961  19.215  0.00  0.00    +0.000 NA
ATOM     12  C   UNL     1       1.576   8.747  17.978  0.00  0.00    +0.000 C 
ATOM     13  C   UNL     1       0.212   9.404  17.781  0.00  0.00    +0.000 C 
ENDROOT
BRANCH   1  15
ATOM     14  N   UNL     1      -2.437  11.533  16.321  0.00  0.00    +0.000 NA
ATOM     15  C   UNL     1      -1.947  11.331  17.466  0.00  0.00    +0.000 C 
ENDBRANCH   1  15
BRANCH   9  16
ATOM     16  N   UNL     1      -2.822  12.805  19.738  0.00  0.00    +0.000 N 
ATOM     17  H   UNL     1      -2.461  13.750  19.871  0.00  0.00    +0.000 HD
BRANCH  16  18
ATOM     18  C   UNL     1      -4.139  12.702  20.391  0.00  0.00    +0.000 C 
BRANCH  18  19
ATOM     19  C   UNL     1      -5.209  12.150  19.511  0.00  0.00    +0.000 A 
ATOM     20  C   UNL     1      -6.322  11.370  19.751  0.00  0.00    +0.000 A 
ATOM     21  C   UNL     1      -6.979  11.210  18.505  0.00  0.00    +0.000 A 
ATOM     22  C   UNL     1      -6.225  11.897  17.585  0.00  0.00    +0.000 A 
ATOM     23  O   UNL     1      -5.145  12.468  18.183  0.00  0.00    +0.000 OA
ENDBRANCH  18  19
ENDBRANCH  16  18
ENDBRANCH   9  16
BRANCH  11  24
ATOM     24  C   UNL     1       2.826   7.199  19.371  0.00  0.00    +0.000 C 
BRANCH  24  25
ATOM     25  C   UNL     1       2.872   5.908  18.576  0.00  0.00    +0.000 A 
ATOM     26  C   UNL     1       3.982   5.610  17.771  0.00  0.00    +0.000 A 
ATOM     27  C   UNL     1       4.045   4.410  17.061  0.00  0.00    +0.000 A 
ATOM     28  C   UNL     1       2.997   3.495  17.146  0.00  0.00    +0.000 A 
ATOM     29  C   UNL     1       1.879   3.789  17.925  0.00  0.00    +0.000 A 
ATOM     30  C   UNL     1       1.813   4.990  18.633  0.00  0.00    +0.000 A 
ENDBRANCH  24  25
ENDBRANCH  11  24
TORSDOF 6
ENDMDL
