MODEL 1
REMARK VINA RESULT:      -8.8      0.000      0.000
REMARK  Name = 
REMARK  4 active torsions:
REMARK  status: ('A' for Active; 'I' for Inactive)
REMARK    1  A    between atoms: C_2  and  C_3
REMARK    2  A    between atoms: C_3  and  C_12
REMARK    3  A    between atoms: C_4  and  C_5
REMARK    4  A    between atoms: C_14  and  C_15
REMARK                            x       y       z     vdW  Elec       q    Type
REMARK                         _______ _______ _______ _____ _____    ______ ____
ROOT
ATOM      1  C   UNL     1       3.061   6.901  18.624  0.00  0.00    +0.000 A 
ATOM      2  N   UNL     1       3.777   6.807  17.507  0.00  0.00    +0.000 NA
ATOM      3  C   UNL     1       4.515   5.624  17.472  0.00  0.00    +0.000 A 
ATOM      4  C   UNL     1       4.401   4.846  18.602  0.00  0.00    +0.000 A 
ATOM      5  S   UNL     1       3.322   5.559  19.708  0.00  0.00    +0.000 S 
ENDROOT
BRANCH   3   6
ATOM      6  C   UNL     1       5.349   5.319  16.334  0.00  0.00    +0.000 A 
ATOM      7  C   UNL     1       4.922   4.550  15.314  0.00  0.00    +0.000 A 
ATOM      8  C   UNL     1       5.751   4.300  14.142  0.00  0.00    +0.000 A 
ATOM      9  C   UNL     1       5.336   3.490  13.082  0.00  0.00    +0.000 A 
ATOM     10  C   UNL     1       6.164   3.312  11.966  0.00  0.00    +0.000 A 
ATOM     11  C   UNL     1       7.406   3.947  11.901  0.00  0.00    +0.000 A 
ATOM     12  C   UNL     1       7.827   4.755  12.952  0.00  0.00    +0.000 A 
ATOM     13  C   UNL     1       6.994   4.914  14.059  0.00  0.00    +0.000 A 
ATOM     14  O   UNL     1       7.464   5.715  15.107  0.00  0.00    +0.000 OA
ATOM     15  C   UNL     1       6.738   5.888  16.281  0.00  0.00    +0.000 A 
ATOM     16  O   UNL     1       7.240   6.503  17.218  0.00  0.00    +0.000 OA
ENDBRANCH   3   6
BRANCH   1  17
ATOM     17  C   UNL     1       2.142   7.955  18.988  0.00  0.00    +0.000 C 
ATOM     18  C   UNL     1       1.780   8.858  18.052  0.00  0.00    +0.000 C 
BRANCH  18  19
ATOM     19  C   UNL     1       0.849   9.972  18.287  0.00  0.00    +0.000 A 
ATOM     20  C   UNL     1       1.328  11.211  18.738  0.00  0.00    +0.000 A 
ATOM     21  C   UNL     1       0.445  12.272  18.963  0.00  0.00    +0.000 A 
ATOM     22  C   UNL     1      -0.919  12.103  18.734  0.00  0.00    +0.000 A 
ATOM     23  C   UNL     1      -1.386  10.878  18.274  0.00  0.00    +0.000 A 
ATOM     24  F   UNL     1      -2.697  10.717  18.047  0.00  0.00    +0.000 F 
ATOM     25  C   UNL     1      -0.519   9.814  18.046  0.00  0.00    +0.000 A 
ENDBRANCH  18  19
BRANCH  17  27
ATOM     26  N   UNL     1       1.182   8.103  21.394  0.00  0.00    +0.000 NA
ATOM     27  C   UNL     1       1.611   8.040  20.317  0.00  0.00    +0.000 C 
ENDBRANCH  17  27
ENDBRANCH   1  17
TORSDOF 4
ENDMDL
MODEL 2
REMARK VINA RESULT:      -8.7      0.920      1.306
REMARK  Name = 
REMARK  4 active torsions:
REMARK  status: ('A' for Active; 'I' for Inactive)
REMARK    1  A    between atoms: C_2  and  C_3
REMARK    2  A    between atoms: C_3  and  C_12
REMARK    3  A    between atoms: C_4  and  C_5
REMARK    4  A    between atoms: C_14  and  C_15
REMARK                            x       y       z     vdW  Elec       q    Type
REMARK                         _______ _______ _______ _____ _____    ______ ____
ROOT
ATOM      1  C   UNL     1       3.063   6.924  18.625  0.00  0.00    +0.000 A 
ATOM      2  N   UNL     1       3.778   6.826  17.507  0.00  0.00    +0.000 NA
ATOM      3  C   UNL     1       4.507   5.637  17.471  0.00  0.00    +0.000 A 
ATOM      4  C   UNL     1       4.387   4.858  18.600  0.00  0.00    +0.000 A 
ATOM      5  S   UNL     1       3.313   5.578  19.706  0.00  0.00    +0.000 S 
ENDROOT
BRANCH   3   6
ATOM      6  C   UNL     1       5.339   5.327  16.333  0.00  0.00    +0.000 A 
ATOM      7  C   UNL     1       4.905   4.564  15.311  0.00  0.00    +0.000 A 
ATOM      8  C   UNL     1       5.732   4.309  14.138  0.00  0.00    +0.000 A 
ATOM      9  C   UNL     1       5.310   3.505  13.077  0.00  0.00    +0.000 A 
ATOM     10  C   UNL     1       6.137   3.322  11.961  0.00  0.00    +0.000 A 
ATOM     11  C   UNL     1       7.385   3.946  11.897  0.00  0.00    +0.000 A 
ATOM     12  C   UNL     1       7.813   4.747  12.951  0.00  0.00    +0.000 A 
ATOM     13  C   UNL     1       6.981   4.912  14.057  0.00  0.00    +0.000 A 
ATOM     14  O   UNL     1       7.458   5.706  15.107  0.00  0.00    +0.000 OA
ATOM     15  C   UNL     1       6.733   5.883  16.281  0.00  0.00    +0.000 A 
ATOM     16  O   UNL     1       7.240   6.491  17.220  0.00  0.00    +0.000 OA
ENDBRANCH   3   6
BRANCH   1  17
ATOM     17  C   UNL     1       2.153   7.985  18.990  0.00  0.00    +0.000 C 
ATOM     18  C   UNL     1       1.807   8.899  18.059  0.00  0.00    +0.000 C 
BRANCH  18  19
ATOM     19  C   UNL     1       0.887  10.021  18.295  0.00  0.00    +0.000 A 
ATOM     20  C   UNL     1      -0.487   9.872  18.053  0.00  0.00    +0.000 A 
ATOM     21  C   UNL     1      -1.364  10.938  18.274  0.00  0.00    +0.000 A 
ATOM     22  C   UNL     1      -0.877  12.156  18.744  0.00  0.00    +0.000 A 
ATOM     23  C   UNL     1       0.483  12.293  18.995  0.00  0.00    +0.000 A 
ATOM     24  F   UNL     1       0.952  13.463  19.454  0.00  0.00    +0.000 F 
ATOM     25  C   UNL     1       1.368  11.242  18.778  0.00  0.00    +0.000 A 
ENDBRANCH  18  19
BRANCH  17  27
ATOM     26  N   UNL     1       1.180   8.131  21.391  0.00  0.00    +0.000 NA
ATOM     27  C   UNL     1       1.613   8.065  20.316  0.00  0.00    +0.000 C 
ENDBRANCH  17  27
ENDBRANCH   1  17
TORSDOF 4
ENDMDL
MODEL 3
REMARK VINA RESULT:      -8.4      3.528      9.054
REMARK  Name = 
REMARK  4 active torsions:
REMARK  status: ('A' for Active; 'I' for Inactive)
REMARK    1  A    between atoms: C_2  and  C_3
REMARK    2  A    between atoms: C_3  and  C_12
REMARK    3  A    between atoms: C_4  and  C_5
REMARK    4  A    between atoms: C_14  and  C_15
REMARK                            x       y       z     vdW  Elec       q    Type
REMARK                         _______ _______ _______ _____ _____    ______ ____
ROOT
ATOM      1  C   UNL     1       4.546   5.217  17.835  0.00  0.00    +0.000 A 
ATOM      2  N   UNL     1       3.818   6.323  17.967  0.00  0.00    +0.000 NA
ATOM      3  C   UNL     1       3.102   6.323  19.165  0.00  0.00    +0.000 A 
ATOM      4  C   UNL     1       3.244   5.178  19.915  0.00  0.00    +0.000 A 
ATOM      5  S   UNL     1       4.323   4.101  19.158  0.00  0.00    +0.000 S 
ENDROOT
BRANCH   3   6
ATOM      6  C   UNL     1       2.260   7.444  19.510  0.00  0.00    +0.000 A 
ATOM      7  C   UNL     1       1.681   7.562  20.720  0.00  0.00    +0.000 A 
ATOM      8  C   UNL     1       0.884   8.728  21.079  0.00  0.00    +0.000 A 
ATOM      9  C   UNL     1       0.257   8.863  22.320  0.00  0.00    +0.000 A 
ATOM     10  C   UNL     1      -0.470  10.022  22.619  0.00  0.00    +0.000 A 
ATOM     11  C   UNL     1      -0.569  11.054  21.684  0.00  0.00    +0.000 A 
ATOM     12  C   UNL     1       0.051  10.927  20.445  0.00  0.00    +0.000 A 
ATOM     13  C   UNL     1       0.764   9.764  20.161  0.00  0.00    +0.000 A 
ATOM     14  O   UNL     1       1.353   9.665  18.894  0.00  0.00    +0.000 OA
ATOM     15  C   UNL     1       2.033   8.521  18.489  0.00  0.00    +0.000 A 
ATOM     16  O   UNL     1       2.432   8.432  17.330  0.00  0.00    +0.000 OA
ENDBRANCH   3   6
BRANCH   1  17
ATOM     17  C   UNL     1       5.448   4.887  16.756  0.00  0.00    +0.000 C 
ATOM     18  C   UNL     1       4.984   4.902  15.489  0.00  0.00    +0.000 C 
BRANCH  18  19
ATOM     19  C   UNL     1       5.795   4.596  14.301  0.00  0.00    +0.000 A 
ATOM     20  C   UNL     1       6.973   5.315  14.045  0.00  0.00    +0.000 A 
ATOM     21  C   UNL     1       7.745   5.027  12.915  0.00  0.00    +0.000 A 
ATOM     22  C   UNL     1       7.350   4.019  12.039  0.00  0.00    +0.000 A 
ATOM     23  C   UNL     1       6.191   3.302  12.305  0.00  0.00    +0.000 A 
ATOM     24  F   UNL     1       5.813   2.327  11.465  0.00  0.00    +0.000 F 
ATOM     25  C   UNL     1       5.411   3.577  13.424  0.00  0.00    +0.000 A 
ENDBRANCH  18  19
BRANCH  17  27
ATOM     26  N   UNL     1       7.931   4.301  17.229  0.00  0.00    +0.000 NA
ATOM     27  C   UNL     1       6.819   4.561  17.019  0.00  0.00    +0.000 C 
ENDBRANCH  17  27
ENDBRANCH   1  17
TORSDOF 4
ENDMDL
MODEL 4
REMARK VINA RESULT:      -8.4      3.545      9.111
REMARK  Name = 
REMARK  4 active torsions:
REMARK  status: ('A' for Active; 'I' for Inactive)
REMARK    1  A    between atoms: C_2  and  C_3
REMARK    2  A    between atoms: C_3  and  C_12
REMARK    3  A    between atoms: C_4  and  C_5
REMARK    4  A    between atoms: C_14  and  C_15
REMARK                            x       y       z     vdW  Elec       q    Type
REMARK                         _______ _______ _______ _____ _____    ______ ____
ROOT
ATOM      1  C   UNL     1       4.465   5.268  17.855  0.00  0.00    +0.000 A 
ATOM      2  N   UNL     1       3.772   6.392  18.011  0.00  0.00    +0.000 NA
ATOM      3  C   UNL     1       3.009   6.364  19.179  0.00  0.00    +0.000 A 
ATOM      4  C   UNL     1       3.082   5.181  19.879  0.00  0.00    +0.000 A 
ATOM      5  S   UNL     1       4.151   4.101  19.114  0.00  0.00    +0.000 S 
ENDROOT
BRANCH   3   6
ATOM      6  C   UNL     1       2.194   7.497  19.545  0.00  0.00    +0.000 A 
ATOM      7  C   UNL     1       1.638   7.619  20.766  0.00  0.00    +0.000 A 
ATOM      8  C   UNL     1       0.868   8.798  21.144  0.00  0.00    +0.000 A 
ATOM      9  C   UNL     1       0.266   8.937  22.397  0.00  0.00    +0.000 A 
ATOM     10  C   UNL     1      -0.435  10.107  22.715  0.00  0.00    +0.000 A 
ATOM     11  C   UNL     1      -0.532  11.146  21.787  0.00  0.00    +0.000 A 
ATOM     12  C   UNL     1       0.064  11.014  20.536  0.00  0.00    +0.000 A 
ATOM     13  C   UNL     1       0.750   9.840  20.234  0.00  0.00    +0.000 A 
ATOM     14  O   UNL     1       1.315   9.737  18.956  0.00  0.00    +0.000 OA
ATOM     15  C   UNL     1       1.967   8.583  18.533  0.00  0.00    +0.000 A 
ATOM     16  O   UNL     1       2.344   8.494  17.367  0.00  0.00    +0.000 OA
ENDBRANCH   3   6
BRANCH   1  17
ATOM     17  C   UNL     1       5.397   4.955  16.796  0.00  0.00    +0.000 C 
ATOM     18  C   UNL     1       4.960   4.959  15.518  0.00  0.00    +0.000 C 
BRANCH  18  19
ATOM     19  C   UNL     1       5.804   4.669  14.349  0.00  0.00    +0.000 A 
ATOM     20  C   UNL     1       5.422   3.682  13.429  0.00  0.00    +0.000 A 
ATOM     21  C   UNL     1       6.223   3.402  12.318  0.00  0.00    +0.000 A 
ATOM     22  C   UNL     1       7.406   4.110  12.116  0.00  0.00    +0.000 A 
ATOM     23  C   UNL     1       7.772   5.097  13.023  0.00  0.00    +0.000 A 
ATOM     24  F   UNL     1       8.907   5.783  12.826  0.00  0.00    +0.000 F 
ATOM     25  C   UNL     1       6.986   5.385  14.134  0.00  0.00    +0.000 A 
ENDBRANCH  18  19
BRANCH  17  27
ATOM     26  N   UNL     1       7.877   4.413  17.332  0.00  0.00    +0.000 NA
ATOM     27  C   UNL     1       6.768   4.657  17.090  0.00  0.00    +0.000 C 
ENDBRANCH  17  27
ENDBRANCH   1  17
TORSDOF 4
ENDMDL
MODEL 5
REMARK VINA RESULT:      -8.1      1.544      1.992
REMARK  Name = 
REMARK  4 active torsions:
REMARK  status: ('A' for Active; 'I' for Inactive)
REMARK    1  A    between atoms: C_2  and  C_3
REMARK    2  A    between atoms: C_3  and  C_12
REMARK    3  A    between atoms: C_4  and  C_5
REMARK    4  A    between atoms: C_14  and  C_15
REMARK                            x       y       z     vdW  Elec       q    Type
REMARK                         _______ _______ _______ _____ _____    ______ ____
ROOT
ATOM      1  C   UNL     1       3.063   6.774  18.755  0.00  0.00    +0.000 A 
ATOM      2  N   UNL     1       3.808   6.727  17.654  0.00  0.00    +0.000 NA
ATOM      3  C   UNL     1       4.440   5.490  17.519  0.00  0.00    +0.000 A 
ATOM      4  C   UNL     1       4.215   4.617  18.560  0.00  0.00    +0.000 A 
ATOM      5  S   UNL     1       3.163   5.313  19.702  0.00  0.00    +0.000 S 
ENDROOT
BRANCH   3   6
ATOM      6  C   UNL     1       5.285   5.224  16.379  0.00  0.00    +0.000 A 
ATOM      7  C   UNL     1       4.871   4.483  15.333  0.00  0.00    +0.000 A 
ATOM      8  C   UNL     1       5.710   4.273  14.161  0.00  0.00    +0.000 A 
ATOM      9  C   UNL     1       5.309   3.493  13.074  0.00  0.00    +0.000 A 
ATOM     10  C   UNL     1       6.147   3.353  11.961  0.00  0.00    +0.000 A 
ATOM     11  C   UNL     1       7.386   3.997  11.924  0.00  0.00    +0.000 A 
ATOM     12  C   UNL     1       7.793   4.776  13.003  0.00  0.00    +0.000 A 
ATOM     13  C   UNL     1       6.950   4.897  14.107  0.00  0.00    +0.000 A 
ATOM     14  O   UNL     1       7.407   5.669  15.182  0.00  0.00    +0.000 OA
ATOM     15  C   UNL     1       6.670   5.802  16.354  0.00  0.00    +0.000 A 
ATOM     16  O   UNL     1       7.161   6.392  17.314  0.00  0.00    +0.000 OA
ENDBRANCH   3   6
BRANCH   1  17
ATOM     17  C   UNL     1       2.229   7.868  19.199  0.00  0.00    +0.000 C 
ATOM     18  C   UNL     1       1.648   7.794  20.416  0.00  0.00    +0.000 C 
BRANCH  18  19
ATOM     19  C   UNL     1       0.786   8.837  20.992  0.00  0.00    +0.000 A 
ATOM     20  C   UNL     1       0.744   9.033  22.380  0.00  0.00    +0.000 A 
ATOM     21  C   UNL     1      -0.076  10.023  22.931  0.00  0.00    +0.000 A 
ATOM     22  C   UNL     1      -0.853  10.825  22.099  0.00  0.00    +0.000 A 
ATOM     23  C   UNL     1      -0.797  10.636  20.724  0.00  0.00    +0.000 A 
ATOM     24  F   UNL     1      -1.540  11.413  19.922  0.00  0.00    +0.000 F 
ATOM     25  C   UNL     1       0.014   9.655  20.162  0.00  0.00    +0.000 A 
ENDBRANCH  18  19
BRANCH  17  27
ATOM     26  N   UNL     1       1.869   9.954  17.700  0.00  0.00    +0.000 NA
ATOM     27  C   UNL     1       2.027   9.021  18.372  0.00  0.00    +0.000 C 
ENDBRANCH  17  27
ENDBRANCH   1  17
TORSDOF 4
ENDMDL
MODEL 6
REMARK VINA RESULT:      -7.9      3.610      5.176
REMARK  Name = 
REMARK  4 active torsions:
REMARK  status: ('A' for Active; 'I' for Inactive)
REMARK    1  A    between atoms: C_2  and  C_3
REMARK    2  A    between atoms: C_3  and  C_12
REMARK    3  A    between atoms: C_4  and  C_5
REMARK    4  A    between atoms: C_14  and  C_15
REMARK                            x       y       z     vdW  Elec       q    Type
REMARK                         _______ _______ _______ _____ _____    ______ ____
ROOT
ATOM      1  C   UNL     1       0.378   9.998  20.206  0.00  0.00    +0.000 A 
ATOM      2  N   UNL     1       1.253   8.995  20.189  0.00  0.00    +0.000 NA
ATOM      3  C   UNL     1       1.605   8.648  18.884  0.00  0.00    +0.000 A 
ATOM      4  C   UNL     1       0.943   9.356  17.906  0.00  0.00    +0.000 A 
ATOM      5  S   UNL     1      -0.094  10.509  18.606  0.00  0.00    +0.000 S 
ENDROOT
BRANCH   3   6
ATOM      6  C   UNL     1       2.558   7.591  18.643  0.00  0.00    +0.000 A 
ATOM      7  C   UNL     1       3.410   7.614  17.601  0.00  0.00    +0.000 A 
ATOM      8  C   UNL     1       4.410   6.572  17.404  0.00  0.00    +0.000 A 
ATOM      9  C   UNL     1       5.291   6.566  16.320  0.00  0.00    +0.000 A 
ATOM     10  C   UNL     1       6.252   5.554  16.200  0.00  0.00    +0.000 A 
ATOM     11  C   UNL     1       6.342   4.548  17.165  0.00  0.00    +0.000 A 
ATOM     12  C   UNL     1       5.468   4.547  18.247  0.00  0.00    +0.000 A 
ATOM     13  C   UNL     1       4.512   5.557  18.346  0.00  0.00    +0.000 A 
ATOM     14  O   UNL     1       3.635   5.506  19.437  0.00  0.00    +0.000 OA
ATOM     15  C   UNL     1       2.607   6.430  19.595  0.00  0.00    +0.000 A 
ATOM     16  O   UNL     1       1.791   6.279  20.501  0.00  0.00    +0.000 OA
ENDBRANCH   3   6
BRANCH   1  17
ATOM     17  C   UNL     1      -0.174  10.656  21.368  0.00  0.00    +0.000 C 
ATOM     18  C   UNL     1      -0.893  11.786  21.198  0.00  0.00    +0.000 C 
BRANCH  18  19
ATOM     19  C   UNL     1      -1.517  12.548  22.290  0.00  0.00    +0.000 A 
ATOM     20  C   UNL     1      -0.878  13.680  22.819  0.00  0.00    +0.000 A 
ATOM     21  C   UNL     1      -1.468  14.404  23.859  0.00  0.00    +0.000 A 
ATOM     22  C   UNL     1      -2.701  14.008  24.373  0.00  0.00    +0.000 A 
ATOM     23  C   UNL     1      -3.336  12.895  23.836  0.00  0.00    +0.000 A 
ATOM     24  F   UNL     1      -4.526  12.516  24.325  0.00  0.00    +0.000 F 
ATOM     25  C   UNL     1      -2.760  12.163  22.802  0.00  0.00    +0.000 A 
ENDBRANCH  18  19
BRANCH  17  27
ATOM     26  N   UNL     1       0.179   9.681  23.746  0.00  0.00    +0.000 NA
ATOM     27  C   UNL     1       0.023  10.116  22.681  0.00  0.00    +0.000 C 
ENDBRANCH  17  27
ENDBRANCH   1  17
TORSDOF 4
ENDMDL
MODEL 7
REMARK VINA RESULT:      -7.8      1.897      2.366
REMARK  Name = 
REMARK  4 active torsions:
REMARK  status: ('A' for Active; 'I' for Inactive)
REMARK    1  A    between atoms: C_2  and  C_3
REMARK    2  A    between atoms: C_3  and  C_12
REMARK    3  A    between atoms: C_4  and  C_5
REMARK    4  A    between atoms: C_14  and  C_15
REMARK                            x       y       z     vdW  Elec       q    Type
REMARK                         _______ _______ _______ _____ _____    ______ ____
ROOT
ATOM      1  C   UNL     1       3.267   6.684  18.621  0.00  0.00    +0.000 A 
ATOM      2  N   UNL     1       3.953   6.620  17.483  0.00  0.00    +0.000 NA
ATOM      3  C   UNL     1       4.640   5.410  17.369  0.00  0.00    +0.000 A 
ATOM      4  C   UNL     1       4.519   4.580  18.460  0.00  0.00    +0.000 A 
ATOM      5  S   UNL     1       3.495   5.277  19.627  0.00  0.00    +0.000 S 
ENDROOT
BRANCH   3   6
ATOM      6  C   UNL     1       5.435   5.132  16.197  0.00  0.00    +0.000 A 
ATOM      7  C   UNL     1       4.967   4.401  15.167  0.00  0.00    +0.000 A 
ATOM      8  C   UNL     1       5.756   4.179  13.962  0.00  0.00    +0.000 A 
ATOM      9  C   UNL     1       5.298   3.409  12.891  0.00  0.00    +0.000 A 
ATOM     10  C   UNL     1       6.089   3.256  11.745  0.00  0.00    +0.000 A 
ATOM     11  C   UNL     1       7.338   3.877  11.661  0.00  0.00    +0.000 A 
ATOM     12  C   UNL     1       7.801   4.645  12.725  0.00  0.00    +0.000 A 
ATOM     13  C   UNL     1       7.004   4.779  13.861  0.00  0.00    +0.000 A 
ATOM     14  O   UNL     1       7.517   5.540  14.919  0.00  0.00    +0.000 OA
ATOM     15  C   UNL     1       6.829   5.684  16.119  0.00  0.00    +0.000 A 
ATOM     16  O   UNL     1       7.368   6.262  17.060  0.00  0.00    +0.000 OA
ENDBRANCH   3   6
BRANCH   1  17
ATOM     17  C   UNL     1       2.402   7.754  19.061  0.00  0.00    +0.000 C 
ATOM     18  C   UNL     1       1.830   7.672  20.281  0.00  0.00    +0.000 C 
BRANCH  18  19
ATOM     19  C   UNL     1       0.939   8.693  20.853  0.00  0.00    +0.000 A 
ATOM     20  C   UNL     1       0.228   9.563  20.013  0.00  0.00    +0.000 A 
ATOM     21  C   UNL     1      -0.618  10.536  20.554  0.00  0.00    +0.000 A 
ATOM     22  C   UNL     1      -0.763  10.642  21.936  0.00  0.00    +0.000 A 
ATOM     23  C   UNL     1      -0.068   9.769  22.763  0.00  0.00    +0.000 A 
ATOM     24  F   UNL     1      -0.212   9.866  24.092  0.00  0.00    +0.000 F 
ATOM     25  C   UNL     1       0.779   8.797  22.238  0.00  0.00    +0.000 A 
ENDBRANCH  18  19
BRANCH  17  27
ATOM     26  N   UNL     1       1.960   9.815  17.547  0.00  0.00    +0.000 NA
ATOM     27  C   UNL     1       2.161   8.894  18.225  0.00  0.00    +0.000 C 
ENDBRANCH  17  27
ENDBRANCH   1  17
TORSDOF 4
ENDMDL
MODEL 8
REMARK VINA RESULT:      -7.8      3.716      5.344
REMARK  Name = 
REMARK  4 active torsions:
REMARK  status: ('A' for Active; 'I' for Inactive)
REMARK    1  A    between atoms: C_2  and  C_3
REMARK    2  A    between atoms: C_3  and  C_12
REMARK    3  A    between atoms: C_4  and  C_5
REMARK    4  A    between atoms: C_14  and  C_15
REMARK                            x       y       z     vdW  Elec       q    Type
REMARK                         _______ _______ _______ _____ _____    ______ ____
ROOT
ATOM      1  C   UNL     1       0.344  10.011  20.195  0.00  0.00    +0.000 A 
ATOM      2  N   UNL     1       1.213   9.004  20.185  0.00  0.00    +0.000 NA
ATOM      3  C   UNL     1       1.579   8.660  18.883  0.00  0.00    +0.000 A 
ATOM      4  C   UNL     1       0.932   9.375  17.900  0.00  0.00    +0.000 A 
ATOM      5  S   UNL     1      -0.107  10.531  18.592  0.00  0.00    +0.000 S 
ENDROOT
BRANCH   3   6
ATOM      6  C   UNL     1       2.529   7.599  18.649  0.00  0.00    +0.000 A 
ATOM      7  C   UNL     1       3.380   7.612  17.606  0.00  0.00    +0.000 A 
ATOM      8  C   UNL     1       4.377   6.566  17.415  0.00  0.00    +0.000 A 
ATOM      9  C   UNL     1       5.257   6.549  16.330  0.00  0.00    +0.000 A 
ATOM     10  C   UNL     1       6.215   5.534  16.217  0.00  0.00    +0.000 A 
ATOM     11  C   UNL     1       6.305   4.536  17.190  0.00  0.00    +0.000 A 
ATOM     12  C   UNL     1       5.432   4.546  18.273  0.00  0.00    +0.000 A 
ATOM     13  C   UNL     1       4.479   5.558  18.365  0.00  0.00    +0.000 A 
ATOM     14  O   UNL     1       3.603   5.518  19.458  0.00  0.00    +0.000 OA
ATOM     15  C   UNL     1       2.577   6.445  19.610  0.00  0.00    +0.000 A 
ATOM     16  O   UNL     1       1.763   6.303  20.519  0.00  0.00    +0.000 OA
ENDBRANCH   3   6
BRANCH   1  17
ATOM     17  C   UNL     1      -0.219  10.668  21.353  0.00  0.00    +0.000 C 
ATOM     18  C   UNL     1      -0.945  11.793  21.177  0.00  0.00    +0.000 C 
BRANCH  18  19
ATOM     19  C   UNL     1      -1.580  12.553  22.265  0.00  0.00    +0.000 A 
ATOM     20  C   UNL     1      -2.874  12.225  22.695  0.00  0.00    +0.000 A 
ATOM     21  C   UNL     1      -3.480  12.947  23.728  0.00  0.00    +0.000 A 
ATOM     22  C   UNL     1      -2.797  13.995  24.340  0.00  0.00    +0.000 A 
ATOM     23  C   UNL     1      -1.509  14.306  23.919  0.00  0.00    +0.000 A 
ATOM     24  F   UNL     1      -0.848  15.311  24.512  0.00  0.00    +0.000 F 
ATOM     25  C   UNL     1      -0.894  13.598  22.892  0.00  0.00    +0.000 A 
ENDBRANCH  18  19
BRANCH  17  27
ATOM     26  N   UNL     1       0.139   9.700  23.733  0.00  0.00    +0.000 NA
ATOM     27  C   UNL     1      -0.024  10.132  22.668  0.00  0.00    +0.000 C 
ENDBRANCH  17  27
ENDBRANCH   1  17
TORSDOF 4
ENDMDL
MODEL 9
REMARK VINA RESULT:      -7.6      4.773     10.059
REMARK  Name = 
REMARK  4 active torsions:
REMARK  status: ('A' for Active; 'I' for Inactive)
REMARK    1  A    between atoms: C_2  and  C_3
REMARK    2  A    between atoms: C_3  and  C_12
REMARK    3  A    between atoms: C_4  and  C_5
REMARK    4  A    between atoms: C_14  and  C_15
REMARK                            x       y       z     vdW  Elec       q    Type
REMARK                         _______ _______ _______ _____ _____    ______ ____
ROOT
ATOM      1  C   UNL     1       2.176   8.066  18.752  0.00  0.00    +0.000 A 
ATOM      2  N   UNL     1       1.439   8.481  19.779  0.00  0.00    +0.000 NA
ATOM      3  C   UNL     1       1.025   9.803  19.607  0.00  0.00    +0.000 A 
ATOM      4  C   UNL     1       1.505  10.409  18.469  0.00  0.00    +0.000 A 
ATOM      5  S   UNL     1       2.442   9.315  17.563  0.00  0.00    +0.000 S 
ENDROOT
BRANCH   3   6
ATOM      6  C   UNL     1       0.198  10.442  20.603  0.00  0.00    +0.000 A 
ATOM      7  C   UNL     1      -0.866  11.200  20.277  0.00  0.00    +0.000 A 
ATOM      8  C   UNL     1      -1.730  11.789  21.292  0.00  0.00    +0.000 A 
ATOM      9  C   UNL     1      -2.826  12.594  20.976  0.00  0.00    +0.000 A 
ATOM     10  C   UNL     1      -3.640  13.107  21.995  0.00  0.00    +0.000 A 
ATOM     11  C   UNL     1      -3.366  12.812  23.332  0.00  0.00    +0.000 A 
ATOM     12  C   UNL     1      -2.275  12.011  23.655  0.00  0.00    +0.000 A 
ATOM     13  C   UNL     1      -1.471  11.517  22.629  0.00  0.00    +0.000 A 
ATOM     14  O   UNL     1      -0.369  10.735  22.997  0.00  0.00    +0.000 OA
ATOM     15  C   UNL     1       0.530  10.245  22.055  0.00  0.00    +0.000 A 
ATOM     16  O   UNL     1       1.544   9.663  22.431  0.00  0.00    +0.000 OA
ENDBRANCH   3   6
BRANCH   1  17
ATOM     17  C   UNL     1       2.737   6.749  18.554  0.00  0.00    +0.000 C 
ATOM     18  C   UNL     1       2.081   5.679  19.051  0.00  0.00    +0.000 C 
BRANCH  18  19
ATOM     19  C   UNL     1       2.536   4.287  18.913  0.00  0.00    +0.000 A 
ATOM     20  C   UNL     1       2.080   3.496  17.848  0.00  0.00    +0.000 A 
ATOM     21  C   UNL     1       2.509   2.172  17.716  0.00  0.00    +0.000 A 
ATOM     22  C   UNL     1       3.398   1.631  18.642  0.00  0.00    +0.000 A 
ATOM     23  C   UNL     1       3.857   2.424  19.687  0.00  0.00    +0.000 A 
ATOM     24  F   UNL     1       4.718   1.906  20.576  0.00  0.00    +0.000 F 
ATOM     25  C   UNL     1       3.438   3.742  19.832  0.00  0.00    +0.000 A 
ENDBRANCH  18  19
BRANCH  17  27
ATOM     26  N   UNL     1       4.953   6.433  17.242  0.00  0.00    +0.000 NA
ATOM     27  C   UNL     1       3.963   6.574  17.832  0.00  0.00    +0.000 C 
ENDBRANCH  17  27
ENDBRANCH   1  17
TORSDOF 4
ENDMDL
