MODEL 1
REMARK VINA RESULT:      -6.6      0.000      0.000
REMARK  Name = 
REMARK  9 active torsions:
REMARK  status: ('A' for Active; 'I' for Inactive)
REMARK    1  A    between atoms: C_2  and  C_3
REMARK    2  A    between atoms: C_3  and  N_4
REMARK    3  A    between atoms: N_4  and  C_5
REMARK    4  A    between atoms: C_5  and  C_6
REMARK    5  A    between atoms: C_6  and  O_7
REMARK    6  A    between atoms: C_6  and  C_8
REMARK    7  A    between atoms: C_8  and  O_9
REMARK    8  A    between atoms: O_9  and  C_10
REMARK    9  A    between atoms: C_13  and  C_14
REMARK                            x       y       z     vdW  Elec       q    Type
REMARK                         _______ _______ _______ _____ _____    ______ ____
ROOT
ATOM      1  O   UNL     1       5.199   5.232  16.280  0.00  0.00    +0.000 OA
ENDROOT
BRANCH   1   2
ATOM      2  C   UNL     1       4.162   4.635  16.938  0.00  0.00    +0.000 A 
ATOM      3  C   UNL     1       3.408   5.484  17.750  0.00  0.00    +0.000 A 
ATOM      4  C   UNL     1       2.355   4.984  18.520  0.00  0.00    +0.000 A 
ATOM      5  C   UNL     1       2.013   3.629  18.452  0.00  0.00    +0.000 A 
ATOM      6  C   UNL     1       2.763   2.783  17.621  0.00  0.00    +0.000 A 
ATOM      7  C   UNL     1       3.831   3.283  16.868  0.00  0.00    +0.000 A 
BRANCH   5   8
ATOM      8  C   UNL     1       0.880   3.028  19.217  0.00  0.00    +0.000 C 
ATOM      9  N   UNL     1       0.567   3.557  20.442  0.00  0.00    +0.000 N 
ATOM     10  O   UNL     1       0.231   2.097  18.772  0.00  0.00    +0.000 OA
ATOM     11  H   UNL     1       1.026   4.343  20.875  0.00  0.00    +0.000 HD
ATOM     12  H   UNL     1      -0.225   3.152  20.920  0.00  0.00    +0.000 HD
ENDBRANCH   5   8
ENDBRANCH   1   2
BRANCH   1  13
ATOM     13  C   UNL     1       6.455   4.541  16.345  0.00  0.00    +0.000 C 
BRANCH  13  14
ATOM     14  C   UNL     1       7.020   4.403  14.921  0.00  0.00    +0.000 C 
BRANCH  14  15
ATOM     15  O   UNL     1       7.677   5.614  14.509  0.00  0.00    +0.000 OA
ATOM     16  H   UNL     1       8.261   5.389  13.766  0.00  0.00    +0.000 HD
ENDBRANCH  14  15
BRANCH  14  17
ATOM     17  C   UNL     1       5.888   4.072  13.934  0.00  0.00    +0.000 C 
BRANCH  17  18
ATOM     18  N   UNL     1       6.433   3.739  12.615  0.00  0.00    +0.000 NA
ATOM     19  H   UNL     1       6.378   4.569  12.018  0.00  0.00    +0.000 HD
BRANCH  18  20
ATOM     20  C   UNL     1       5.695   2.642  12.018  0.00  0.00    +0.000 C 
BRANCH  20  22
ATOM     21  C   UNL     1       3.428   3.635  10.658  0.00  0.00    +0.000 C 
ATOM     22  C   UNL     1       4.475   3.176  11.286  0.00  0.00    +0.000 C 
ENDBRANCH  20  22
ENDBRANCH  18  20
ENDBRANCH  17  18
ENDBRANCH  14  17
ENDBRANCH  13  14
ENDBRANCH   1  13
TORSDOF 9
ENDMDL
MODEL 2
REMARK VINA RESULT:      -6.5      1.714      2.274
REMARK  Name = 
REMARK  9 active torsions:
REMARK  status: ('A' for Active; 'I' for Inactive)
REMARK    1  A    between atoms: C_2  and  C_3
REMARK    2  A    between atoms: C_3  and  N_4
REMARK    3  A    between atoms: N_4  and  C_5
REMARK    4  A    between atoms: C_5  and  C_6
REMARK    5  A    between atoms: C_6  and  O_7
REMARK    6  A    between atoms: C_6  and  C_8
REMARK    7  A    between atoms: C_8  and  O_9
REMARK    8  A    between atoms: O_9  and  C_10
REMARK    9  A    between atoms: C_13  and  C_14
REMARK                            x       y       z     vdW  Elec       q    Type
REMARK                         _______ _______ _______ _____ _____    ______ ____
ROOT
ATOM      1  O   UNL     1       5.392   6.352  17.856  0.00  0.00    +0.000 OA
ENDROOT
BRANCH   1   2
ATOM      2  C   UNL     1       4.397   5.537  18.317  0.00  0.00    +0.000 A 
ATOM      3  C   UNL     1       3.408   5.225  17.384  0.00  0.00    +0.000 A 
ATOM      4  C   UNL     1       2.305   4.446  17.747  0.00  0.00    +0.000 A 
ATOM      5  C   UNL     1       2.204   3.931  19.043  0.00  0.00    +0.000 A 
ATOM      6  C   UNL     1       3.210   4.233  19.973  0.00  0.00    +0.000 A 
ATOM      7  C   UNL     1       4.301   5.032  19.612  0.00  0.00    +0.000 A 
BRANCH   5   8
ATOM      8  C   UNL     1       1.076   3.063  19.496  0.00  0.00    +0.000 C 
ATOM      9  N   UNL     1       0.697   3.120  20.812  0.00  0.00    +0.000 N 
ATOM     10  O   UNL     1       0.488   2.324  18.725  0.00  0.00    +0.000 OA
ATOM     11  H   UNL     1       1.102   3.720  21.513  0.00  0.00    +0.000 HD
ATOM     12  H   UNL     1      -0.090   2.546  21.080  0.00  0.00    +0.000 HD
ENDBRANCH   5   8
ENDBRANCH   1   2
BRANCH   1  13
ATOM     13  C   UNL     1       6.729   5.931  18.159  0.00  0.00    +0.000 C 
BRANCH  13  14
ATOM     14  C   UNL     1       7.119   4.791  17.202  0.00  0.00    +0.000 C 
BRANCH  14  15
ATOM     15  O   UNL     1       8.252   4.062  17.705  0.00  0.00    +0.000 OA
ATOM     16  H   UNL     1       7.963   3.148  17.862  0.00  0.00    +0.000 HD
ENDBRANCH  14  15
BRANCH  14  17
ATOM     17  C   UNL     1       7.449   5.359  15.812  0.00  0.00    +0.000 C 
BRANCH  17  18
ATOM     18  N   UNL     1       6.238   5.459  14.993  0.00  0.00    +0.000 NA
ATOM     19  H   UNL     1       5.569   6.071  15.469  0.00  0.00    +0.000 HD
BRANCH  18  20
ATOM     20  C   UNL     1       5.655   4.148  14.778  0.00  0.00    +0.000 C 
BRANCH  20  22
ATOM     21  C   UNL     1       6.108   3.320  12.117  0.00  0.00    +0.000 C 
ATOM     22  C   UNL     1       5.899   3.702  13.345  0.00  0.00    +0.000 C 
ENDBRANCH  20  22
ENDBRANCH  18  20
ENDBRANCH  17  18
ENDBRANCH  14  17
ENDBRANCH  13  14
ENDBRANCH   1  13
TORSDOF 9
ENDMDL
MODEL 3
REMARK VINA RESULT:      -6.5      2.827      6.244
REMARK  Name = 
REMARK  9 active torsions:
REMARK  status: ('A' for Active; 'I' for Inactive)
REMARK    1  A    between atoms: C_2  and  C_3
REMARK    2  A    between atoms: C_3  and  N_4
REMARK    3  A    between atoms: N_4  and  C_5
REMARK    4  A    between atoms: C_5  and  C_6
REMARK    5  A    between atoms: C_6  and  O_7
REMARK    6  A    between atoms: C_6  and  C_8
REMARK    7  A    between atoms: C_8  and  O_9
REMARK    8  A    between atoms: O_9  and  C_10
REMARK    9  A    between atoms: C_13  and  C_14
REMARK                            x       y       z     vdW  Elec       q    Type
REMARK                         _______ _______ _______ _____ _____    ______ ____
ROOT
ATOM      1  O   UNL     1       7.514   5.963  15.620  0.00  0.00    +0.000 OA
ENDROOT
BRANCH   1   2
ATOM      2  C   UNL     1       6.921   5.123  14.720  0.00  0.00    +0.000 A 
ATOM      3  C   UNL     1       7.617   4.950  13.523  0.00  0.00    +0.000 A 
ATOM      4  C   UNL     1       7.088   4.161  12.498  0.00  0.00    +0.000 A 
ATOM      5  C   UNL     1       5.870   3.497  12.678  0.00  0.00    +0.000 A 
ATOM      6  C   UNL     1       5.182   3.661  13.889  0.00  0.00    +0.000 A 
ATOM      7  C   UNL     1       5.704   4.469  14.905  0.00  0.00    +0.000 A 
BRANCH   5   8
ATOM      8  C   UNL     1       5.259   2.610  11.644  0.00  0.00    +0.000 C 
ATOM      9  N   UNL     1       5.901   1.442  11.324  0.00  0.00    +0.000 N 
ATOM     10  O   UNL     1       4.208   2.896  11.095  0.00  0.00    +0.000 OA
ATOM     11  H   UNL     1       6.754   1.108  11.746  0.00  0.00    +0.000 HD
ATOM     12  H   UNL     1       5.446   0.847  10.647  0.00  0.00    +0.000 HD
ENDBRANCH   5   8
ENDBRANCH   1   2
BRANCH   1  13
ATOM     13  C   UNL     1       6.815   6.135  16.861  0.00  0.00    +0.000 C 
BRANCH  13  14
ATOM     14  C   UNL     1       7.598   5.420  17.975  0.00  0.00    +0.000 C 
BRANCH  14  15
ATOM     15  O   UNL     1       8.131   4.169  17.508  0.00  0.00    +0.000 OA
ATOM     16  H   UNL     1       8.814   4.373  16.847  0.00  0.00    +0.000 HD
ENDBRANCH  14  15
BRANCH  14  17
ATOM     17  C   UNL     1       6.683   5.169  19.186  0.00  0.00    +0.000 C 
BRANCH  17  18
ATOM     18  N   UNL     1       5.799   4.027  18.937  0.00  0.00    +0.000 NA
ATOM     19  H   UNL     1       5.915   3.726  17.966  0.00  0.00    +0.000 HD
BRANCH  18  20
ATOM     20  C   UNL     1       4.416   4.386  19.190  0.00  0.00    +0.000 C 
BRANCH  20  22
ATOM     21  C   UNL     1       2.759   3.300  17.177  0.00  0.00    +0.000 C 
ATOM     22  C   UNL     1       3.524   3.802  18.106  0.00  0.00    +0.000 C 
ENDBRANCH  20  22
ENDBRANCH  18  20
ENDBRANCH  17  18
ENDBRANCH  14  17
ENDBRANCH  13  14
ENDBRANCH   1  13
TORSDOF 9
ENDMDL
MODEL 4
REMARK VINA RESULT:      -6.5      1.746      1.809
REMARK  Name = 
REMARK  9 active torsions:
REMARK  status: ('A' for Active; 'I' for Inactive)
REMARK    1  A    between atoms: C_2  and  C_3
REMARK    2  A    between atoms: C_3  and  N_4
REMARK    3  A    between atoms: N_4  and  C_5
REMARK    4  A    between atoms: C_5  and  C_6
REMARK    5  A    between atoms: C_6  and  O_7
REMARK    6  A    between atoms: C_6  and  C_8
REMARK    7  A    between atoms: C_8  and  O_9
REMARK    8  A    between atoms: O_9  and  C_10
REMARK    9  A    between atoms: C_13  and  C_14
REMARK                            x       y       z     vdW  Elec       q    Type
REMARK                         _______ _______ _______ _____ _____    ______ ____
ROOT
ATOM      1  O   UNL     1       5.642   6.098  17.858  0.00  0.00    +0.000 OA
ENDROOT
BRANCH   1   2
ATOM      2  C   UNL     1       4.738   5.376  18.586  0.00  0.00    +0.000 A 
ATOM      3  C   UNL     1       3.588   6.071  18.961  0.00  0.00    +0.000 A 
ATOM      4  C   UNL     1       2.613   5.462  19.756  0.00  0.00    +0.000 A 
ATOM      5  C   UNL     1       2.759   4.127  20.148  0.00  0.00    +0.000 A 
ATOM      6  C   UNL     1       3.908   3.427  19.755  0.00  0.00    +0.000 A 
ATOM      7  C   UNL     1       4.893   4.048  18.977  0.00  0.00    +0.000 A 
BRANCH   5   8
ATOM      8  C   UNL     1       1.745   3.397  20.967  0.00  0.00    +0.000 C 
ATOM      9  N   UNL     1       0.505   3.178  20.425  0.00  0.00    +0.000 N 
ATOM     10  O   UNL     1       2.001   2.989  22.086  0.00  0.00    +0.000 OA
ATOM     11  H   UNL     1       0.214   3.450  19.500  0.00  0.00    +0.000 HD
ATOM     12  H   UNL     1      -0.148   2.652  20.989  0.00  0.00    +0.000 HD
ENDBRANCH   5   8
ENDBRANCH   1   2
BRANCH   1  13
ATOM     13  C   UNL     1       5.580   5.916  16.437  0.00  0.00    +0.000 C 
BRANCH  13  14
ATOM     14  C   UNL     1       6.758   5.029  16.000  0.00  0.00    +0.000 C 
BRANCH  14  15
ATOM     15  O   UNL     1       7.649   5.749  15.129  0.00  0.00    +0.000 OA
ATOM     16  H   UNL     1       8.554   5.459  15.336  0.00  0.00    +0.000 HD
ENDBRANCH  14  15
BRANCH  14  17
ATOM     17  C   UNL     1       6.236   3.776  15.276  0.00  0.00    +0.000 C 
BRANCH  17  18
ATOM     18  N   UNL     1       5.408   4.151  14.126  0.00  0.00    +0.000 NA
ATOM     19  H   UNL     1       4.458   3.802  14.278  0.00  0.00    +0.000 HD
BRANCH  18  20
ATOM     20  C   UNL     1       5.955   3.600  12.900  0.00  0.00    +0.000 C 
BRANCH  20  22
ATOM     21  C   UNL     1       3.884   3.184  11.026  0.00  0.00    +0.000 C 
ATOM     22  C   UNL     1       4.841   3.376  11.891  0.00  0.00    +0.000 C 
ENDBRANCH  20  22
ENDBRANCH  18  20
ENDBRANCH  17  18
ENDBRANCH  14  17
ENDBRANCH  13  14
ENDBRANCH   1  13
TORSDOF 9
ENDMDL
MODEL 5
REMARK VINA RESULT:      -6.5      1.244      1.352
REMARK  Name = 
REMARK  9 active torsions:
REMARK  status: ('A' for Active; 'I' for Inactive)
REMARK    1  A    between atoms: C_2  and  C_3
REMARK    2  A    between atoms: C_3  and  N_4
REMARK    3  A    between atoms: N_4  and  C_5
REMARK    4  A    between atoms: C_5  and  C_6
REMARK    5  A    between atoms: C_6  and  O_7
REMARK    6  A    between atoms: C_6  and  C_8
REMARK    7  A    between atoms: C_8  and  O_9
REMARK    8  A    between atoms: O_9  and  C_10
REMARK    9  A    between atoms: C_13  and  C_14
REMARK                            x       y       z     vdW  Elec       q    Type
REMARK                         _______ _______ _______ _____ _____    ______ ____
ROOT
ATOM      1  O   UNL     1       5.540   6.219  17.772  0.00  0.00    +0.000 OA
ENDROOT
BRANCH   1   2
ATOM      2  C   UNL     1       4.510   5.399  18.137  0.00  0.00    +0.000 A 
ATOM      3  C   UNL     1       3.248   5.805  17.702  0.00  0.00    +0.000 A 
ATOM      4  C   UNL     1       2.105   5.083  18.059  0.00  0.00    +0.000 A 
ATOM      5  C   UNL     1       2.219   3.916  18.821  0.00  0.00    +0.000 A 
ATOM      6  C   UNL     1       3.491   3.503  19.241  0.00  0.00    +0.000 A 
ATOM      7  C   UNL     1       4.632   4.240  18.901  0.00  0.00    +0.000 A 
BRANCH   5   8
ATOM      8  C   UNL     1       1.049   3.073  19.210  0.00  0.00    +0.000 C 
ATOM      9  N   UNL     1       0.519   3.233  20.464  0.00  0.00    +0.000 N 
ATOM     10  O   UNL     1       0.558   2.265  18.441  0.00  0.00    +0.000 OA
ATOM     11  H   UNL     1       0.837   3.894  21.155  0.00  0.00    +0.000 HD
ATOM     12  H   UNL     1      -0.292   2.673  20.687  0.00  0.00    +0.000 HD
ENDBRANCH   5   8
ENDBRANCH   1   2
BRANCH   1  13
ATOM     13  C   UNL     1       5.902   6.179  16.384  0.00  0.00    +0.000 C 
BRANCH  13  14
ATOM     14  C   UNL     1       6.548   4.817  16.079  0.00  0.00    +0.000 C 
BRANCH  14  15
ATOM     15  O   UNL     1       7.782   4.659  16.801  0.00  0.00    +0.000 OA
ATOM     16  H   UNL     1       7.752   3.792  17.240  0.00  0.00    +0.000 HD
ENDBRANCH  14  15
BRANCH  14  17
ATOM     17  C   UNL     1       6.817   4.686  14.570  0.00  0.00    +0.000 C 
BRANCH  17  18
ATOM     18  N   UNL     1       5.704   4.004  13.904  0.00  0.00    +0.000 NA
ATOM     19  H   UNL     1       5.411   3.211  14.481  0.00  0.00    +0.000 HD
BRANCH  18  20
ATOM     20  C   UNL     1       6.100   3.546  12.585  0.00  0.00    +0.000 C 
BRANCH  20  22
ATOM     21  C   UNL     1       3.808   3.086  11.000  0.00  0.00    +0.000 C 
ATOM     22  C   UNL     1       4.867   3.298  11.732  0.00  0.00    +0.000 C 
ENDBRANCH  20  22
ENDBRANCH  18  20
ENDBRANCH  17  18
ENDBRANCH  14  17
ENDBRANCH  13  14
ENDBRANCH   1  13
TORSDOF 9
ENDMDL
MODEL 6
REMARK VINA RESULT:      -6.4      2.831      6.248
REMARK  Name = 
REMARK  9 active torsions:
REMARK  status: ('A' for Active; 'I' for Inactive)
REMARK    1  A    between atoms: C_2  and  C_3
REMARK    2  A    between atoms: C_3  and  N_4
REMARK    3  A    between atoms: N_4  and  C_5
REMARK    4  A    between atoms: C_5  and  C_6
REMARK    5  A    between atoms: C_6  and  O_7
REMARK    6  A    between atoms: C_6  and  C_8
REMARK    7  A    between atoms: C_8  and  O_9
REMARK    8  A    between atoms: O_9  and  C_10
REMARK    9  A    between atoms: C_13  and  C_14
REMARK                            x       y       z     vdW  Elec       q    Type
REMARK                         _______ _______ _______ _____ _____    ______ ____
ROOT
ATOM      1  O   UNL     1       7.479   5.654  16.465  0.00  0.00    +0.000 OA
ENDROOT
BRANCH   1   2
ATOM      2  C   UNL     1       6.994   5.063  15.333  0.00  0.00    +0.000 A 
ATOM      3  C   UNL     1       5.779   4.393  15.489  0.00  0.00    +0.000 A 
ATOM      4  C   UNL     1       5.206   3.699  14.420  0.00  0.00    +0.000 A 
ATOM      5  C   UNL     1       5.822   3.705  13.165  0.00  0.00    +0.000 A 
ATOM      6  C   UNL     1       7.034   4.394  13.008  0.00  0.00    +0.000 A 
ATOM      7  C   UNL     1       7.617   5.070  14.087  0.00  0.00    +0.000 A 
BRANCH   5   8
ATOM      8  C   UNL     1       5.253   3.017  11.967  0.00  0.00    +0.000 C 
ATOM      9  N   UNL     1       5.823   1.839  11.559  0.00  0.00    +0.000 N 
ATOM     10  O   UNL     1       4.298   3.472  11.362  0.00  0.00    +0.000 OA
ATOM     11  H   UNL     1       6.592   1.372  12.014  0.00  0.00    +0.000 HD
ATOM     12  H   UNL     1       5.395   1.380  10.768  0.00  0.00    +0.000 HD
ENDBRANCH   5   8
ENDBRANCH   1   2
BRANCH   1  13
ATOM     13  C   UNL     1       7.582   4.802  17.614  0.00  0.00    +0.000 C 
BRANCH  13  14
ATOM     14  C   UNL     1       7.128   5.587  18.856  0.00  0.00    +0.000 C 
BRANCH  14  15
ATOM     15  O   UNL     1       8.092   5.473  19.918  0.00  0.00    +0.000 OA
ATOM     16  H   UNL     1       8.497   6.349  20.036  0.00  0.00    +0.000 HD
ENDBRANCH  14  15
BRANCH  14  17
ATOM     17  C   UNL     1       5.765   5.064  19.342  0.00  0.00    +0.000 C 
BRANCH  17  18
ATOM     18  N   UNL     1       5.602   3.649  18.997  0.00  0.00    +0.000 NA
ATOM     19  H   UNL     1       5.977   3.494  18.058  0.00  0.00    +0.000 HD
BRANCH  18  20
ATOM     20  C   UNL     1       4.202   3.268  19.049  0.00  0.00    +0.000 C 
BRANCH  20  22
ATOM     21  C   UNL     1       2.607   5.315  17.937  0.00  0.00    +0.000 C 
ATOM     22  C   UNL     1       3.344   4.370  18.450  0.00  0.00    +0.000 C 
ENDBRANCH  20  22
ENDBRANCH  18  20
ENDBRANCH  17  18
ENDBRANCH  14  17
ENDBRANCH  13  14
ENDBRANCH   1  13
TORSDOF 9
ENDMDL
MODEL 7
REMARK VINA RESULT:      -6.4      1.443      1.451
REMARK  Name = 
REMARK  9 active torsions:
REMARK  status: ('A' for Active; 'I' for Inactive)
REMARK    1  A    between atoms: C_2  and  C_3
REMARK    2  A    between atoms: C_3  and  N_4
REMARK    3  A    between atoms: N_4  and  C_5
REMARK    4  A    between atoms: C_5  and  C_6
REMARK    5  A    between atoms: C_6  and  O_7
REMARK    6  A    between atoms: C_6  and  C_8
REMARK    7  A    between atoms: C_8  and  O_9
REMARK    8  A    between atoms: O_9  and  C_10
REMARK    9  A    between atoms: C_13  and  C_14
REMARK                            x       y       z     vdW  Elec       q    Type
REMARK                         _______ _______ _______ _____ _____    ______ ____
ROOT
ATOM      1  O   UNL     1       4.679   4.377  16.291  0.00  0.00    +0.000 OA
ENDROOT
BRANCH   1   2
ATOM      2  C   UNL     1       4.053   3.935  17.422  0.00  0.00    +0.000 A 
ATOM      3  C   UNL     1       3.942   4.878  18.445  0.00  0.00    +0.000 A 
ATOM      4  C   UNL     1       3.373   4.533  19.674  0.00  0.00    +0.000 A 
ATOM      5  C   UNL     1       2.866   3.246  19.879  0.00  0.00    +0.000 A 
ATOM      6  C   UNL     1       2.965   2.306  18.842  0.00  0.00    +0.000 A 
ATOM      7  C   UNL     1       3.555   2.649  17.620  0.00  0.00    +0.000 A 
BRANCH   5   8
ATOM      8  C   UNL     1       2.213   2.813  21.150  0.00  0.00    +0.000 C 
ATOM      9  N   UNL     1       0.847   2.885  21.239  0.00  0.00    +0.000 N 
ATOM     10  O   UNL     1       2.863   2.393  22.092  0.00  0.00    +0.000 OA
ATOM     11  H   UNL     1       0.228   3.189  20.504  0.00  0.00    +0.000 HD
ATOM     12  H   UNL     1       0.432   2.554  22.098  0.00  0.00    +0.000 HD
ENDBRANCH   5   8
ENDBRANCH   1   2
BRANCH   1  13
ATOM     13  C   UNL     1       6.007   4.887  16.476  0.00  0.00    +0.000 C 
BRANCH  13  14
ATOM     14  C   UNL     1       6.878   4.445  15.288  0.00  0.00    +0.000 C 
BRANCH  14  15
ATOM     15  O   UNL     1       7.699   5.530  14.820  0.00  0.00    +0.000 OA
ATOM     16  H   UNL     1       8.613   5.202  14.773  0.00  0.00    +0.000 HD
ENDBRANCH  14  15
BRANCH  14  17
ATOM     17  C   UNL     1       5.988   3.943  14.139  0.00  0.00    +0.000 C 
BRANCH  17  18
ATOM     18  N   UNL     1       6.700   4.022  12.860  0.00  0.00    +0.000 NA
ATOM     19  H   UNL     1       6.472   4.913  12.412  0.00  0.00    +0.000 HD
BRANCH  18  20
ATOM     20  C   UNL     1       6.327   2.916  11.998  0.00  0.00    +0.000 C 
BRANCH  20  22
ATOM     21  C   UNL     1       3.679   3.263  11.081  0.00  0.00    +0.000 C 
ATOM     22  C   UNL     1       4.902   3.103  11.505  0.00  0.00    +0.000 C 
ENDBRANCH  20  22
ENDBRANCH  18  20
ENDBRANCH  17  18
ENDBRANCH  14  17
ENDBRANCH  13  14
ENDBRANCH   1  13
TORSDOF 9
ENDMDL
MODEL 8
REMARK VINA RESULT:      -6.4      2.921      6.563
REMARK  Name = 
REMARK  9 active torsions:
REMARK  status: ('A' for Active; 'I' for Inactive)
REMARK    1  A    between atoms: C_2  and  C_3
REMARK    2  A    between atoms: C_3  and  N_4
REMARK    3  A    between atoms: N_4  and  C_5
REMARK    4  A    between atoms: C_5  and  C_6
REMARK    5  A    between atoms: C_6  and  O_7
REMARK    6  A    between atoms: C_6  and  C_8
REMARK    7  A    between atoms: C_8  and  O_9
REMARK    8  A    between atoms: O_9  and  C_10
REMARK    9  A    between atoms: C_13  and  C_14
REMARK                            x       y       z     vdW  Elec       q    Type
REMARK                         _______ _______ _______ _____ _____    ______ ____
ROOT
ATOM      1  O   UNL     1       7.533   5.529  16.660  0.00  0.00    +0.000 OA
ENDROOT
BRANCH   1   2
ATOM      2  C   UNL     1       6.970   4.877  15.599  0.00  0.00    +0.000 A 
ATOM      3  C   UNL     1       7.564   5.135  14.363  0.00  0.00    +0.000 A 
ATOM      4  C   UNL     1       7.047   4.574  13.192  0.00  0.00    +0.000 A 
ATOM      5  C   UNL     1       5.950   3.709  13.251  0.00  0.00    +0.000 A 
ATOM      6  C   UNL     1       5.367   3.439  14.498  0.00  0.00    +0.000 A 
ATOM      7  C   UNL     1       5.874   4.019  15.666  0.00  0.00    +0.000 A 
BRANCH   5   8
ATOM      8  C   UNL     1       5.363   3.044  12.049  0.00  0.00    +0.000 C 
ATOM      9  N   UNL     1       5.944   1.889  11.594  0.00  0.00    +0.000 N 
ATOM     10  O   UNL     1       4.384   3.497  11.482  0.00  0.00    +0.000 OA
ATOM     11  H   UNL     1       6.733   1.424  12.015  0.00  0.00    +0.000 HD
ATOM     12  H   UNL     1       5.504   1.444  10.801  0.00  0.00    +0.000 HD
ENDBRANCH   5   8
ENDBRANCH   1   2
BRANCH   1  13
ATOM     13  C   UNL     1       7.615   4.775  17.878  0.00  0.00    +0.000 C 
BRANCH  13  14
ATOM     14  C   UNL     1       6.999   5.605  19.017  0.00  0.00    +0.000 C 
BRANCH  14  15
ATOM     15  O   UNL     1       7.791   5.504  20.214  0.00  0.00    +0.000 OA
ATOM     16  H   UNL     1       8.415   6.249  20.212  0.00  0.00    +0.000 HD
ENDBRANCH  14  15
BRANCH  14  17
ATOM     17  C   UNL     1       5.568   5.123  19.307  0.00  0.00    +0.000 C 
BRANCH  17  18
ATOM     18  N   UNL     1       5.484   3.663  19.211  0.00  0.00    +0.000 NA
ATOM     19  H   UNL     1       6.140   3.342  18.494  0.00  0.00    +0.000 HD
BRANCH  18  20
ATOM     20  C   UNL     1       4.134   3.248  18.879  0.00  0.00    +0.000 C 
BRANCH  20  22
ATOM     21  C   UNL     1       2.331   4.186  20.840  0.00  0.00    +0.000 C 
ATOM     22  C   UNL     1       3.163   3.753  19.934  0.00  0.00    +0.000 C 
ENDBRANCH  20  22
ENDBRANCH  18  20
ENDBRANCH  17  18
ENDBRANCH  14  17
ENDBRANCH  13  14
ENDBRANCH   1  13
TORSDOF 9
ENDMDL
MODEL 9
REMARK VINA RESULT:      -6.4      1.418      1.644
REMARK  Name = 
REMARK  9 active torsions:
REMARK  status: ('A' for Active; 'I' for Inactive)
REMARK    1  A    between atoms: C_2  and  C_3
REMARK    2  A    between atoms: C_3  and  N_4
REMARK    3  A    between atoms: N_4  and  C_5
REMARK    4  A    between atoms: C_5  and  C_6
REMARK    5  A    between atoms: C_6  and  O_7
REMARK    6  A    between atoms: C_6  and  C_8
REMARK    7  A    between atoms: C_8  and  O_9
REMARK    8  A    between atoms: O_9  and  C_10
REMARK    9  A    between atoms: C_13  and  C_14
REMARK                            x       y       z     vdW  Elec       q    Type
REMARK                         _______ _______ _______ _____ _____    ______ ____
ROOT
ATOM      1  O   UNL     1       4.937   3.859  16.185  0.00  0.00    +0.000 OA
ENDROOT
BRANCH   1   2
ATOM      2  C   UNL     1       4.229   3.656  17.336  0.00  0.00    +0.000 A 
ATOM      3  C   UNL     1       2.861   3.442  17.159  0.00  0.00    +0.000 A 
ATOM      4  C   UNL     1       2.017   3.278  18.261  0.00  0.00    +0.000 A 
ATOM      5  C   UNL     1       2.542   3.283  19.557  0.00  0.00    +0.000 A 
ATOM      6  C   UNL     1       3.920   3.481  19.729  0.00  0.00    +0.000 A 
ATOM      7  C   UNL     1       4.759   3.667  18.624  0.00  0.00    +0.000 A 
BRANCH   5   8
ATOM      8  C   UNL     1       1.710   3.079  20.781  0.00  0.00    +0.000 C 
ATOM      9  N   UNL     1       2.347   2.948  21.988  0.00  0.00    +0.000 N 
ATOM     10  O   UNL     1       0.493   3.039  20.728  0.00  0.00    +0.000 OA
ATOM     11  H   UNL     1       3.343   2.999  22.133  0.00  0.00    +0.000 HD
ATOM     12  H   UNL     1       1.757   2.846  22.801  0.00  0.00    +0.000 HD
ENDBRANCH   5   8
ENDBRANCH   1   2
BRANCH   1  13
ATOM     13  C   UNL     1       6.328   4.164  16.359  0.00  0.00    +0.000 C 
BRANCH  13  14
ATOM     14  C   UNL     1       6.698   5.337  15.435  0.00  0.00    +0.000 C 
BRANCH  14  15
ATOM     15  O   UNL     1       5.616   6.280  15.343  0.00  0.00    +0.000 OA
ATOM     16  H   UNL     1       4.787   5.777  15.395  0.00  0.00    +0.000 HD
ENDBRANCH  14  15
BRANCH  14  17
ATOM     17  C   UNL     1       7.043   4.813  14.031  0.00  0.00    +0.000 C 
BRANCH  17  18
ATOM     18  N   UNL     1       6.211   3.655  13.692  0.00  0.00    +0.000 NA
ATOM     19  H   UNL     1       6.503   2.860  14.267  0.00  0.00    +0.000 HD
BRANCH  18  20
ATOM     20  C   UNL     1       6.337   3.329  12.283  0.00  0.00    +0.000 C 
BRANCH  20  22
ATOM     21  C   UNL     1       3.775   3.123  11.113  0.00  0.00    +0.000 C 
ATOM     22  C   UNL     1       4.958   3.218  11.653  0.00  0.00    +0.000 C 
ENDBRANCH  20  22
ENDBRANCH  18  20
ENDBRANCH  17  18
ENDBRANCH  14  17
ENDBRANCH  13  14
ENDBRANCH   1  13
TORSDOF 9
ENDMDL
