MODEL 1
REMARK VINA RESULT:      -8.7      0.000      0.000
REMARK  Name = 
REMARK  3 active torsions:
REMARK  status: ('A' for Active; 'I' for Inactive)
REMARK    1  A    between atoms: C_2  and  O_3
REMARK    2  A    between atoms: C_2  and  C_4
REMARK    3  A    between atoms: N_6  and  C_7
REMARK                            x       y       z     vdW  Elec       q    Type
REMARK                         _______ _______ _______ _____ _____    ______ ____
ROOT
ATOM      1  C   UNL     1       4.852   5.094  16.624  0.00  0.00    +0.000 A 
ATOM      2  C   UNL     1       4.193   4.501  17.629  0.00  0.00    +0.000 A 
ATOM      3  N   UNL     1       3.305   5.092  18.533  0.00  0.00    +0.000 N 
ATOM      4  C   UNL     1       3.060   6.511  18.390  0.00  0.00    +0.000 A 
ATOM      5  N   UNL     1       2.212   7.168  19.231  0.00  0.00    +0.000 NA
ATOM      6  C   UNL     1       1.960   8.492  19.086  0.00  0.00    +0.000 A 
ATOM      7  N   UNL     1       1.140   9.087  19.993  0.00  0.00    +0.000 N 
ATOM      8  C   UNL     1       0.728  10.492  19.994  0.00  0.00    +0.000 C 
ATOM      9  C   UNL     1      -0.154  10.545  21.281  0.00  0.00    +0.000 C 
ATOM     10  C   UNL     1      -0.821   9.173  21.231  0.00  0.00    +0.000 C 
ATOM     11  C   UNL     1       0.523   8.442  21.166  0.00  0.00    +0.000 C 
ATOM     12  C   UNL     1       1.201   9.019  22.433  0.00  0.00    +0.000 C 
ATOM     13  N   UNL     1       0.681  10.420  22.516  0.00  0.00    +0.000 NA
ATOM     14  C   UNL     1       2.544   9.194  18.029  0.00  0.00    +0.000 A 
ATOM     15  F   UNL     1       2.296  10.496  17.826  0.00  0.00    +0.000 F 
ATOM     16  C   UNL     1       3.411   8.560  17.158  0.00  0.00    +0.000 A 
ATOM     17  C   UNL     1       3.683   7.211  17.352  0.00  0.00    +0.000 A 
ATOM     18  C   UNL     1       4.625   6.534  16.453  0.00  0.00    +0.000 A 
ATOM     19  O   UNL     1       5.225   7.152  15.572  0.00  0.00    +0.000 OA
ATOM     20  H   UNL     1       1.471  11.062  22.447  0.00  0.00    +0.000 HD
ENDROOT
BRANCH   3  21
ATOM     21  C   UNL     1       2.649   4.279  19.525  0.00  0.00    +0.000 A 
ATOM     22  C   UNL     1       3.132   4.211  20.848  0.00  0.00    +0.000 A 
ATOM     23  C   UNL     1       2.482   3.457  21.829  0.00  0.00    +0.000 A 
ATOM     24  C   UNL     1       1.358   2.720  21.489  0.00  0.00    +0.000 A 
ATOM     25  F   UNL     1       0.746   1.985  22.426  0.00  0.00    +0.000 F 
ATOM     26  C   UNL     1       0.862   2.730  20.199  0.00  0.00    +0.000 A 
ATOM     27  C   UNL     1       1.495   3.515  19.237  0.00  0.00    +0.000 A 
ATOM     28  F   UNL     1       0.933   3.544  18.019  0.00  0.00    +0.000 F 
ENDBRANCH   3  21
BRANCH   1  30
ATOM     29  O   UNL     1       5.543   4.060  14.596  0.00  0.00    +0.000 OA
ATOM     30  C   UNL     1       5.758   4.296  15.775  0.00  0.00    +0.000 C 
BRANCH  30  31
ATOM     31  O   UNL     1       6.860   3.839  16.411  0.00  0.00    +0.000 OA
ATOM     32  H   UNL     1       6.912   2.854  16.480  0.00  0.00    +0.000 HD
ENDBRANCH  30  31
ENDBRANCH   1  30
TORSDOF 3
ENDMDL
MODEL 2
REMARK VINA RESULT:      -8.5      1.005      1.196
REMARK  Name = 
REMARK  3 active torsions:
REMARK  status: ('A' for Active; 'I' for Inactive)
REMARK    1  A    between atoms: C_2  and  O_3
REMARK    2  A    between atoms: C_2  and  C_4
REMARK    3  A    between atoms: N_6  and  C_7
REMARK                            x       y       z     vdW  Elec       q    Type
REMARK                         _______ _______ _______ _____ _____    ______ ____
ROOT
ATOM      1  C   UNL     1       5.150   4.981  16.711  0.00  0.00    +0.000 A 
ATOM      2  C   UNL     1       4.511   4.394  17.733  0.00  0.00    +0.000 A 
ATOM      3  N   UNL     1       3.592   4.977  18.611  0.00  0.00    +0.000 N 
ATOM      4  C   UNL     1       3.283   6.377  18.416  0.00  0.00    +0.000 A 
ATOM      5  N   UNL     1       2.401   7.024  19.230  0.00  0.00    +0.000 NA
ATOM      6  C   UNL     1       2.090   8.329  19.036  0.00  0.00    +0.000 A 
ATOM      7  N   UNL     1       1.239   8.917  19.917  0.00  0.00    +0.000 N 
ATOM      8  C   UNL     1       0.763  10.302  19.865  0.00  0.00    +0.000 C 
ATOM      9  C   UNL     1      -0.129  10.360  21.145  0.00  0.00    +0.000 C 
ATOM     10  C   UNL     1      -0.732   8.959  21.142  0.00  0.00    +0.000 C 
ATOM     11  C   UNL     1       0.643   8.288  21.109  0.00  0.00    +0.000 C 
ATOM     12  C   UNL     1       1.286   8.939  22.358  0.00  0.00    +0.000 C 
ATOM     13  N   UNL     1       0.703  10.317  22.388  0.00  0.00    +0.000 NA
ATOM     14  C   UNL     1       2.648   9.018  17.957  0.00  0.00    +0.000 A 
ATOM     15  F   UNL     1       2.343  10.301  17.707  0.00  0.00    +0.000 F 
ATOM     16  C   UNL     1       3.549   8.394  17.113  0.00  0.00    +0.000 A 
ATOM     17  C   UNL     1       3.880   7.067  17.357  0.00  0.00    +0.000 A 
ATOM     18  C   UNL     1       4.858   6.402  16.487  0.00  0.00    +0.000 A 
ATOM     19  O   UNL     1       5.435   7.015  15.587  0.00  0.00    +0.000 OA
ATOM     20  H   UNL     1       1.463  10.992  22.300  0.00  0.00    +0.000 HD
ENDROOT
BRANCH   3  21
ATOM     21  C   UNL     1       2.967   4.170  19.629  0.00  0.00    +0.000 A 
ATOM     22  C   UNL     1       1.611   4.348  19.970  0.00  0.00    +0.000 A 
ATOM     23  C   UNL     1       0.983   3.546  20.927  0.00  0.00    +0.000 A 
ATOM     24  C   UNL     1       1.718   2.579  21.594  0.00  0.00    +0.000 A 
ATOM     25  F   UNL     1       1.119   1.823  22.523  0.00  0.00    +0.000 F 
ATOM     26  C   UNL     1       3.059   2.384  21.317  0.00  0.00    +0.000 A 
ATOM     27  C   UNL     1       3.665   3.163  20.334  0.00  0.00    +0.000 A 
ATOM     28  F   UNL     1       4.948   2.888  20.054  0.00  0.00    +0.000 F 
ENDBRANCH   3  21
BRANCH   1  30
ATOM     29  O   UNL     1       5.761   3.254  15.193  0.00  0.00    +0.000 OA
ATOM     30  C   UNL     1       6.096   4.195  15.895  0.00  0.00    +0.000 C 
BRANCH  30  31
ATOM     31  O   UNL     1       7.382   4.603  15.986  0.00  0.00    +0.000 OA
ATOM     32  H   UNL     1       7.664   4.861  16.898  0.00  0.00    +0.000 HD
ENDBRANCH  30  31
ENDBRANCH   1  30
TORSDOF 3
ENDMDL
MODEL 3
REMARK VINA RESULT:      -7.2      7.119      9.812
REMARK  Name = 
REMARK  3 active torsions:
REMARK  status: ('A' for Active; 'I' for Inactive)
REMARK    1  A    between atoms: C_2  and  O_3
REMARK    2  A    between atoms: C_2  and  C_4
REMARK    3  A    between atoms: N_6  and  C_7
REMARK                            x       y       z     vdW  Elec       q    Type
REMARK                         _______ _______ _______ _____ _____    ______ ____
ROOT
ATOM      1  C   UNL     1      -3.431  12.915  23.827  0.00  0.00    +0.000 A 
ATOM      2  C   UNL     1      -2.660  11.968  23.276  0.00  0.00    +0.000 A 
ATOM      3  N   UNL     1      -1.395  12.126  22.701  0.00  0.00    +0.000 N 
ATOM      4  C   UNL     1      -0.836  13.460  22.683  0.00  0.00    +0.000 A 
ATOM      5  N   UNL     1       0.389  13.703  22.138  0.00  0.00    +0.000 NA
ATOM      6  C   UNL     1       0.927  14.948  22.140  0.00  0.00    +0.000 A 
ATOM      7  N   UNL     1       2.133  15.120  21.536  0.00  0.00    +0.000 N 
ATOM      8  C   UNL     1       2.887  16.374  21.454  0.00  0.00    +0.000 C 
ATOM      9  C   UNL     1       4.129  15.922  20.623  0.00  0.00    +0.000 C 
ATOM     10  C   UNL     1       4.341  14.511  21.162  0.00  0.00    +0.000 C 
ATOM     11  C   UNL     1       2.909  14.089  20.824  0.00  0.00    +0.000 C 
ATOM     12  C   UNL     1       2.880  14.433  19.315  0.00  0.00    +0.000 C 
ATOM     13  N   UNL     1       3.757  15.640  19.202  0.00  0.00    +0.000 NA
ATOM     14  C   UNL     1       0.237  15.997  22.750  0.00  0.00    +0.000 A 
ATOM     15  F   UNL     1       0.746  17.237  22.806  0.00  0.00    +0.000 F 
ATOM     16  C   UNL     1      -1.010  15.787  23.310  0.00  0.00    +0.000 A 
ATOM     17  C   UNL     1      -1.556  14.510  23.260  0.00  0.00    +0.000 A 
ATOM     18  C   UNL     1      -2.892  14.281  23.824  0.00  0.00    +0.000 A 
ATOM     19  O   UNL     1      -3.561  15.208  24.282  0.00  0.00    +0.000 OA
ATOM     20  H   UNL     1       3.196  16.414  18.847  0.00  0.00    +0.000 HD
ENDROOT
BRANCH   3  21
ATOM     21  C   UNL     1      -0.691  10.974  22.197  0.00  0.00    +0.000 A 
ATOM     22  C   UNL     1      -0.156  10.006  23.071  0.00  0.00    +0.000 A 
ATOM     23  C   UNL     1       0.495   8.865  22.593  0.00  0.00    +0.000 A 
ATOM     24  C   UNL     1       0.661   8.696  21.227  0.00  0.00    +0.000 A 
ATOM     25  F   UNL     1       1.298   7.610  20.772  0.00  0.00    +0.000 F 
ATOM     26  C   UNL     1       0.179   9.631  20.330  0.00  0.00    +0.000 A 
ATOM     27  C   UNL     1      -0.501  10.746  20.815  0.00  0.00    +0.000 A 
ATOM     28  F   UNL     1      -1.008  11.586  19.900  0.00  0.00    +0.000 F 
ENDBRANCH   3  21
BRANCH   1  30
ATOM     29  O   UNL     1      -5.774  12.517  23.716  0.00  0.00    +0.000 OA
ATOM     30  C   UNL     1      -4.750  12.551  24.381  0.00  0.00    +0.000 C 
BRANCH  30  31
ATOM     31  O   UNL     1      -4.739  12.256  25.700  0.00  0.00    +0.000 OA
ATOM     32  H   UNL     1      -5.403  11.576  25.971  0.00  0.00    +0.000 HD
ENDBRANCH  30  31
ENDBRANCH   1  30
TORSDOF 3
ENDMDL
MODEL 4
REMARK VINA RESULT:      -7.1      6.931      9.827
REMARK  Name = 
REMARK  3 active torsions:
REMARK  status: ('A' for Active; 'I' for Inactive)
REMARK    1  A    between atoms: C_2  and  O_3
REMARK    2  A    between atoms: C_2  and  C_4
REMARK    3  A    between atoms: N_6  and  C_7
REMARK                            x       y       z     vdW  Elec       q    Type
REMARK                         _______ _______ _______ _____ _____    ______ ____
ROOT
ATOM      1  C   UNL     1      -3.135  12.896  23.751  0.00  0.00    +0.000 A 
ATOM      2  C   UNL     1      -2.393  12.003  23.082  0.00  0.00    +0.000 A 
ATOM      3  N   UNL     1      -1.142  12.205  22.491  0.00  0.00    +0.000 N 
ATOM      4  C   UNL     1      -0.564  13.528  22.598  0.00  0.00    +0.000 A 
ATOM      5  N   UNL     1       0.649  13.813  22.048  0.00  0.00    +0.000 NA
ATOM      6  C   UNL     1       1.206  15.044  22.166  0.00  0.00    +0.000 A 
ATOM      7  N   UNL     1       2.397  15.265  21.550  0.00  0.00    +0.000 N 
ATOM      8  C   UNL     1       3.167  16.511  21.580  0.00  0.00    +0.000 C 
ATOM      9  C   UNL     1       4.380  16.135  20.671  0.00  0.00    +0.000 C 
ATOM     10  C   UNL     1       4.585  14.672  21.053  0.00  0.00    +0.000 C 
ATOM     11  C   UNL     1       3.139  14.305  20.712  0.00  0.00    +0.000 C 
ATOM     12  C   UNL     1       3.074  14.806  19.249  0.00  0.00    +0.000 C 
ATOM     13  N   UNL     1       3.966  16.008  19.239  0.00  0.00    +0.000 NA
ATOM     14  C   UNL     1       0.547  16.031  22.902  0.00  0.00    +0.000 A 
ATOM     15  F   UNL     1       1.076  17.251  23.074  0.00  0.00    +0.000 F 
ATOM     16  C   UNL     1      -0.687  15.777  23.472  0.00  0.00    +0.000 A 
ATOM     17  C   UNL     1      -1.254  14.519  23.303  0.00  0.00    +0.000 A 
ATOM     18  C   UNL     1      -2.577  14.247  23.877  0.00  0.00    +0.000 A 
ATOM     19  O   UNL     1      -3.220  15.129  24.448  0.00  0.00    +0.000 OA
ATOM     20  H   UNL     1       3.407  16.823  18.983  0.00  0.00    +0.000 HD
ENDROOT
BRANCH   3  21
ATOM     21  C   UNL     1      -0.469  11.105  21.850  0.00  0.00    +0.000 A 
ATOM     22  C   UNL     1      -0.214  11.114  20.463  0.00  0.00    +0.000 A 
ATOM     23  C   UNL     1       0.473  10.071  19.836  0.00  0.00    +0.000 A 
ATOM     24  C   UNL     1       0.878   8.976  20.582  0.00  0.00    +0.000 A 
ATOM     25  F   UNL     1       1.521   7.970  19.976  0.00  0.00    +0.000 F 
ATOM     26  C   UNL     1       0.627   8.905  21.939  0.00  0.00    +0.000 A 
ATOM     27  C   UNL     1      -0.025   9.967  22.562  0.00  0.00    +0.000 A 
ATOM     28  F   UNL     1      -0.182   9.881  23.892  0.00  0.00    +0.000 F 
ENDBRANCH   3  21
BRANCH   1  30
ATOM     29  O   UNL     1      -5.397  12.171  23.606  0.00  0.00    +0.000 OA
ATOM     30  C   UNL     1      -4.445  12.491  24.300  0.00  0.00    +0.000 C 
BRANCH  30  31
ATOM     31  O   UNL     1      -4.511  12.503  25.650  0.00  0.00    +0.000 OA
ATOM     32  H   UNL     1      -4.232  13.356  26.064  0.00  0.00    +0.000 HD
ENDBRANCH  30  31
ENDBRANCH   1  30
TORSDOF 3
ENDMDL
MODEL 5
REMARK VINA RESULT:      -7.1      7.700     10.392
REMARK  Name = 
REMARK  3 active torsions:
REMARK  status: ('A' for Active; 'I' for Inactive)
REMARK    1  A    between atoms: C_2  and  O_3
REMARK    2  A    between atoms: C_2  and  C_4
REMARK    3  A    between atoms: N_6  and  C_7
REMARK                            x       y       z     vdW  Elec       q    Type
REMARK                         _______ _______ _______ _____ _____    ______ ____
ROOT
ATOM      1  C   UNL     1      -3.397  13.088  23.787  0.00  0.00    +0.000 A 
ATOM      2  C   UNL     1      -2.976  12.468  22.676  0.00  0.00    +0.000 A 
ATOM      3  N   UNL     1      -1.894  12.817  21.863  0.00  0.00    +0.000 N 
ATOM      4  C   UNL     1      -1.128  13.985  22.242  0.00  0.00    +0.000 A 
ATOM      5  N   UNL     1      -0.061  14.397  21.502  0.00  0.00    +0.000 NA
ATOM      6  C   UNL     1       0.675  15.477  21.867  0.00  0.00    +0.000 A 
ATOM      7  N   UNL     1       1.696  15.855  21.053  0.00  0.00    +0.000 N 
ATOM      8  C   UNL     1       2.616  16.971  21.283  0.00  0.00    +0.000 C 
ATOM      9  C   UNL     1       3.501  16.899  19.999  0.00  0.00    +0.000 C 
ATOM     10  C   UNL     1       3.588  15.390  19.791  0.00  0.00    +0.000 C 
ATOM     11  C   UNL     1       2.065  15.233  19.768  0.00  0.00    +0.000 C 
ATOM     12  C   UNL     1       1.712  16.233  18.640  0.00  0.00    +0.000 C 
ATOM     13  N   UNL     1       2.733  17.318  18.786  0.00  0.00    +0.000 NA
ATOM     14  C   UNL     1       0.364  16.157  23.045  0.00  0.00    +0.000 A 
ATOM     15  F   UNL     1       1.085  17.209  23.463  0.00  0.00    +0.000 F 
ATOM     16  C   UNL     1      -0.715  15.767  23.819  0.00  0.00    +0.000 A 
ATOM     17  C   UNL     1      -1.476  14.682  23.402  0.00  0.00    +0.000 A 
ATOM     18  C   UNL     1      -2.641  14.277  24.198  0.00  0.00    +0.000 A 
ATOM     19  O   UNL     1      -2.992  14.918  25.190  0.00  0.00    +0.000 OA
ATOM     20  H   UNL     1       2.248  18.192  18.988  0.00  0.00    +0.000 HD
ENDROOT
BRANCH   3  21
ATOM     21  C   UNL     1      -1.561  11.996  20.726  0.00  0.00    +0.000 A 
ATOM     22  C   UNL     1      -2.167  12.208  19.471  0.00  0.00    +0.000 A 
ATOM     23  C   UNL     1      -1.824  11.444  18.352  0.00  0.00    +0.000 A 
ATOM     24  C   UNL     1      -0.898  10.422  18.482  0.00  0.00    +0.000 A 
ATOM     25  F   UNL     1      -0.583   9.681  17.412  0.00  0.00    +0.000 F 
ATOM     26  C   UNL     1      -0.296  10.155  19.697  0.00  0.00    +0.000 A 
ATOM     27  C   UNL     1      -0.617  10.946  20.798  0.00  0.00    +0.000 A 
ATOM     28  F   UNL     1       0.046  10.691  21.936  0.00  0.00    +0.000 F 
ENDBRANCH   3  21
BRANCH   1  30
ATOM     29  O   UNL     1      -5.601  12.209  23.959  0.00  0.00    +0.000 OA
ATOM     30  C   UNL     1      -4.573  12.568  24.512  0.00  0.00    +0.000 C 
BRANCH  30  31
ATOM     31  O   UNL     1      -4.424  12.520  25.854  0.00  0.00    +0.000 OA
ATOM     32  H   UNL     1      -4.660  13.359  26.321  0.00  0.00    +0.000 HD
ENDBRANCH  30  31
ENDBRANCH   1  30
TORSDOF 3
ENDMDL
MODEL 6
REMARK VINA RESULT:      -7.0      5.881      9.082
REMARK  Name = 
REMARK  3 active torsions:
REMARK  status: ('A' for Active; 'I' for Inactive)
REMARK    1  A    between atoms: C_2  and  O_3
REMARK    2  A    between atoms: C_2  and  C_4
REMARK    3  A    between atoms: N_6  and  C_7
REMARK                            x       y       z     vdW  Elec       q    Type
REMARK                         _______ _______ _______ _____ _____    ______ ____
ROOT
ATOM      1  C   UNL     1       0.041  10.545  18.574  0.00  0.00    +0.000 A 
ATOM      2  C   UNL     1      -0.012  11.456  19.556  0.00  0.00    +0.000 A 
ATOM      3  N   UNL     1      -1.133  12.159  20.007  0.00  0.00    +0.000 N 
ATOM      4  C   UNL     1      -2.393  11.891  19.348  0.00  0.00    +0.000 A 
ATOM      5  N   UNL     1      -3.534  12.536  19.723  0.00  0.00    +0.000 NA
ATOM      6  C   UNL     1      -4.722  12.271  19.125  0.00  0.00    +0.000 A 
ATOM      7  N   UNL     1      -5.807  12.988  19.521  0.00  0.00    +0.000 N 
ATOM      8  C   UNL     1      -7.174  12.835  19.018  0.00  0.00    +0.000 C 
ATOM      9  C   UNL     1      -7.916  13.948  19.823  0.00  0.00    +0.000 C 
ATOM     10  C   UNL     1      -7.191  13.867  21.163  0.00  0.00    +0.000 C 
ATOM     11  C   UNL     1      -5.819  14.076  20.516  0.00  0.00    +0.000 C 
ATOM     12  C   UNL     1      -6.080  15.403  19.763  0.00  0.00    +0.000 C 
ATOM     13  N   UNL     1      -7.518  15.312  19.357  0.00  0.00    +0.000 NA
ATOM     14  C   UNL     1      -4.792  11.289  18.135  0.00  0.00    +0.000 A 
ATOM     15  F   UNL     1      -5.952  10.970  17.540  0.00  0.00    +0.000 F 
ATOM     16  C   UNL     1      -3.654  10.617  17.728  0.00  0.00    +0.000 A 
ATOM     17  C   UNL     1      -2.442  10.935  18.330  0.00  0.00    +0.000 A 
ATOM     18  C   UNL     1      -1.221  10.251  17.886  0.00  0.00    +0.000 A 
ATOM     19  O   UNL     1      -1.241   9.450  16.950  0.00  0.00    +0.000 OA
ATOM     20  H   UNL     1      -7.568  15.341  18.338  0.00  0.00    +0.000 HD
ENDROOT
BRANCH   3  21
ATOM     21  C   UNL     1      -1.005  13.071  21.115  0.00  0.00    +0.000 A 
ATOM     22  C   UNL     1      -0.517  14.381  20.928  0.00  0.00    +0.000 A 
ATOM     23  C   UNL     1      -0.426  15.288  21.988  0.00  0.00    +0.000 A 
ATOM     24  C   UNL     1      -0.780  14.883  23.265  0.00  0.00    +0.000 A 
ATOM     25  F   UNL     1      -0.676  15.748  24.281  0.00  0.00    +0.000 F 
ATOM     26  C   UNL     1      -1.236  13.600  23.505  0.00  0.00    +0.000 A 
ATOM     27  C   UNL     1      -1.360  12.715  22.436  0.00  0.00    +0.000 A 
ATOM     28  F   UNL     1      -1.873  11.507  22.711  0.00  0.00    +0.000 F 
ENDBRANCH   3  21
BRANCH   1  30
ATOM     29  O   UNL     1       1.649   8.792  18.606  0.00  0.00    +0.000 OA
ATOM     30  C   UNL     1       1.331   9.911  18.236  0.00  0.00    +0.000 C 
BRANCH  30  31
ATOM     31  O   UNL     1       2.145  10.676  17.475  0.00  0.00    +0.000 OA
ATOM     32  H   UNL     1       1.856  11.617  17.387  0.00  0.00    +0.000 HD
ENDBRANCH  30  31
ENDBRANCH   1  30
TORSDOF 3
ENDMDL
MODEL 7
REMARK VINA RESULT:      -7.0      5.965      9.109
REMARK  Name = 
REMARK  3 active torsions:
REMARK  status: ('A' for Active; 'I' for Inactive)
REMARK    1  A    between atoms: C_2  and  O_3
REMARK    2  A    between atoms: C_2  and  C_4
REMARK    3  A    between atoms: N_6  and  C_7
REMARK                            x       y       z     vdW  Elec       q    Type
REMARK                         _______ _______ _______ _____ _____    ______ ____
ROOT
ATOM      1  C   UNL     1      -0.127  10.353  18.837  0.00  0.00    +0.000 A 
ATOM      2  C   UNL     1      -0.249  11.176  19.888  0.00  0.00    +0.000 A 
ATOM      3  N   UNL     1      -1.368  11.928  20.257  0.00  0.00    +0.000 N 
ATOM      4  C   UNL     1      -2.542  11.827  19.417  0.00  0.00    +0.000 A 
ATOM      5  N   UNL     1      -3.675  12.529  19.702  0.00  0.00    +0.000 NA
ATOM      6  C   UNL     1      -4.785  12.419  18.931  0.00  0.00    +0.000 A 
ATOM      7  N   UNL     1      -5.860  13.187  19.252  0.00  0.00    +0.000 N 
ATOM      8  C   UNL     1      -7.153  13.194  18.563  0.00  0.00    +0.000 C 
ATOM      9  C   UNL     1      -7.917  14.290  19.370  0.00  0.00    +0.000 C 
ATOM     10  C   UNL     1      -7.390  14.032  20.779  0.00  0.00    +0.000 C 
ATOM     11  C   UNL     1      -5.931  14.180  20.339  0.00  0.00    +0.000 C 
ATOM     12  C   UNL     1      -5.990  15.585  19.692  0.00  0.00    +0.000 C 
ATOM     13  N   UNL     1      -7.362  15.652  19.096  0.00  0.00    +0.000 NA
ATOM     14  C   UNL     1      -4.789  11.537  17.849  0.00  0.00    +0.000 A 
ATOM     15  F   UNL     1      -5.876  11.369  17.081  0.00  0.00    +0.000 F 
ATOM     16  C   UNL     1      -3.657  10.810  17.530  0.00  0.00    +0.000 A 
ATOM     17  C   UNL     1      -2.519  10.971  18.312  0.00  0.00    +0.000 A 
ATOM     18  C   UNL     1      -1.302  10.228  17.965  0.00  0.00    +0.000 A 
ATOM     19  O   UNL     1      -1.250   9.517  16.960  0.00  0.00    +0.000 OA
ATOM     20  H   UNL     1      -7.269  15.774  18.087  0.00  0.00    +0.000 HD
ENDROOT
BRANCH   3  21
ATOM     21  C   UNL     1      -1.329  12.726  21.456  0.00  0.00    +0.000 A 
ATOM     22  C   UNL     1      -2.001  12.319  22.626  0.00  0.00    +0.000 A 
ATOM     23  C   UNL     1      -1.938  13.065  23.806  0.00  0.00    +0.000 A 
ATOM     24  C   UNL     1      -1.235  14.259  23.822  0.00  0.00    +0.000 A 
ATOM     25  F   UNL     1      -1.189  14.980  24.949  0.00  0.00    +0.000 F 
ATOM     26  C   UNL     1      -0.582  14.716  22.692  0.00  0.00    +0.000 A 
ATOM     27  C   UNL     1      -0.619  13.947  21.532  0.00  0.00    +0.000 A 
ATOM     28  F   UNL     1       0.088  14.401  20.486  0.00  0.00    +0.000 F 
ENDBRANCH   3  21
BRANCH   1  30
ATOM     29  O   UNL     1       1.619   8.835  19.391  0.00  0.00    +0.000 OA
ATOM     30  C   UNL     1       1.148   9.645  18.609  0.00  0.00    +0.000 C 
BRANCH  30  31
ATOM     31  O   UNL     1       1.764   9.968  17.449  0.00  0.00    +0.000 OA
ATOM     32  H   UNL     1       2.602  10.480  17.562  0.00  0.00    +0.000 HD
ENDBRANCH  30  31
ENDBRANCH   1  30
TORSDOF 3
ENDMDL
MODEL 8
REMARK VINA RESULT:      -6.8      7.446      9.765
REMARK  Name = 
REMARK  3 active torsions:
REMARK  status: ('A' for Active; 'I' for Inactive)
REMARK    1  A    between atoms: C_2  and  O_3
REMARK    2  A    between atoms: C_2  and  C_4
REMARK    3  A    between atoms: N_6  and  C_7
REMARK                            x       y       z     vdW  Elec       q    Type
REMARK                         _______ _______ _______ _____ _____    ______ ____
ROOT
ATOM      1  C   UNL     1       1.298  13.398  20.453  0.00  0.00    +0.000 A 
ATOM      2  C   UNL     1       0.377  13.910  21.280  0.00  0.00    +0.000 A 
ATOM      3  N   UNL     1      -1.010  13.737  21.225  0.00  0.00    +0.000 N 
ATOM      4  C   UNL     1      -1.534  12.919  20.153  0.00  0.00    +0.000 A 
ATOM      5  N   UNL     1      -2.874  12.702  20.023  0.00  0.00    +0.000 NA
ATOM      6  C   UNL     1      -3.368  11.916  19.035  0.00  0.00    +0.000 A 
ATOM      7  N   UNL     1      -4.718  11.786  18.942  0.00  0.00    +0.000 N 
ATOM      8  C   UNL     1      -5.441  10.967  17.966  0.00  0.00    +0.000 C 
ATOM      9  C   UNL     1      -6.921  11.274  18.356  0.00  0.00    +0.000 C 
ATOM     10  C   UNL     1      -6.805  11.381  19.874  0.00  0.00    +0.000 C 
ATOM     11  C   UNL     1      -5.721  12.459  19.787  0.00  0.00    +0.000 C 
ATOM     12  C   UNL     1      -6.454  13.503  18.909  0.00  0.00    +0.000 C 
ATOM     13  N   UNL     1      -7.299  12.675  17.992  0.00  0.00    +0.000 NA
ATOM     14  C   UNL     1      -2.490  11.278  18.157  0.00  0.00    +0.000 A 
ATOM     15  F   UNL     1      -2.932  10.464  17.187  0.00  0.00    +0.000 F 
ATOM     16  C   UNL     1      -1.125  11.477  18.259  0.00  0.00    +0.000 A 
ATOM     17  C   UNL     1      -0.647  12.318  19.255  0.00  0.00    +0.000 A 
ATOM     18  C   UNL     1       0.797  12.562  19.354  0.00  0.00    +0.000 A 
ATOM     19  O   UNL     1       1.584  12.087  18.534  0.00  0.00    +0.000 OA
ATOM     20  H   UNL     1      -7.007  12.857  17.032  0.00  0.00    +0.000 HD
ENDROOT
BRANCH   3  21
ATOM     21  C   UNL     1      -1.844  14.332  22.238  0.00  0.00    +0.000 A 
ATOM     22  C   UNL     1      -2.277  15.670  22.134  0.00  0.00    +0.000 A 
ATOM     23  C   UNL     1      -3.119  16.246  23.090  0.00  0.00    +0.000 A 
ATOM     24  C   UNL     1      -3.506  15.503  24.194  0.00  0.00    +0.000 A 
ATOM     25  F   UNL     1      -4.299  16.061  25.116  0.00  0.00    +0.000 F 
ATOM     26  C   UNL     1      -3.085  14.196  24.357  0.00  0.00    +0.000 A 
ATOM     27  C   UNL     1      -2.277  13.619  23.379  0.00  0.00    +0.000 A 
ATOM     28  F   UNL     1      -1.954  12.328  23.550  0.00  0.00    +0.000 F 
ENDBRANCH   3  21
BRANCH   1  30
ATOM     29  O   UNL     1       3.278  13.596  21.756  0.00  0.00    +0.000 OA
ATOM     30  C   UNL     1       2.726  13.702  20.672  0.00  0.00    +0.000 C 
BRANCH  30  31
ATOM     31  O   UNL     1       3.384  14.113  19.565  0.00  0.00    +0.000 OA
ATOM     32  H   UNL     1       4.025  14.849  19.722  0.00  0.00    +0.000 HD
ENDBRANCH  30  31
ENDBRANCH   1  30
TORSDOF 3
ENDMDL
MODEL 9
REMARK VINA RESULT:      -6.8      7.209      9.498
REMARK  Name = 
REMARK  3 active torsions:
REMARK  status: ('A' for Active; 'I' for Inactive)
REMARK    1  A    between atoms: C_2  and  O_3
REMARK    2  A    between atoms: C_2  and  C_4
REMARK    3  A    between atoms: N_6  and  C_7
REMARK                            x       y       z     vdW  Elec       q    Type
REMARK                         _______ _______ _______ _____ _____    ______ ____
ROOT
ATOM      1  C   UNL     1      -3.384  11.102  17.223  0.00  0.00    +0.000 A 
ATOM      2  C   UNL     1      -2.199  11.556  17.653  0.00  0.00    +0.000 A 
ATOM      3  N   UNL     1      -1.933  12.266  18.828  0.00  0.00    +0.000 N 
ATOM      4  C   UNL     1      -3.054  12.560  19.694  0.00  0.00    +0.000 A 
ATOM      5  N   UNL     1      -2.884  13.252  20.856  0.00  0.00    +0.000 NA
ATOM      6  C   UNL     1      -3.928  13.508  21.683  0.00  0.00    +0.000 A 
ATOM      7  N   UNL     1      -3.687  14.244  22.800  0.00  0.00    +0.000 N 
ATOM      8  C   UNL     1      -4.670  14.605  23.825  0.00  0.00    +0.000 C 
ATOM      9  C   UNL     1      -3.794  15.462  24.792  0.00  0.00    +0.000 C 
ATOM     10  C   UNL     1      -2.465  14.716  24.716  0.00  0.00    +0.000 C 
ATOM     11  C   UNL     1      -2.398  14.842  23.192  0.00  0.00    +0.000 C 
ATOM     12  C   UNL     1      -2.527  16.378  23.046  0.00  0.00    +0.000 C 
ATOM     13  N   UNL     1      -3.428  16.774  24.173  0.00  0.00    +0.000 NA
ATOM     14  C   UNL     1      -5.196  13.021  21.364  0.00  0.00    +0.000 A 
ATOM     15  F   UNL     1      -6.251  13.221  22.169  0.00  0.00    +0.000 F 
ATOM     16  C   UNL     1      -5.406  12.318  20.191  0.00  0.00    +0.000 A 
ATOM     17  C   UNL     1      -4.327  12.102  19.342  0.00  0.00    +0.000 A 
ATOM     18  C   UNL     1      -4.542  11.384  18.080  0.00  0.00    +0.000 A 
ATOM     19  O   UNL     1      -5.669  11.027  17.731  0.00  0.00    +0.000 OA
ATOM     20  H   UNL     1      -4.268  17.200  23.780  0.00  0.00    +0.000 HD
ENDROOT
BRANCH   3  21
ATOM     21  C   UNL     1      -0.577  12.634  19.148  0.00  0.00    +0.000 A 
ATOM     22  C   UNL     1       0.024  13.774  18.577  0.00  0.00    +0.000 A 
ATOM     23  C   UNL     1       1.324  14.163  18.910  0.00  0.00    +0.000 A 
ATOM     24  C   UNL     1       2.064  13.388  19.789  0.00  0.00    +0.000 A 
ATOM     25  F   UNL     1       3.315  13.754  20.094  0.00  0.00    +0.000 F 
ATOM     26  C   UNL     1       1.531  12.245  20.354  0.00  0.00    +0.000 A 
ATOM     27  C   UNL     1       0.220  11.887  20.045  0.00  0.00    +0.000 A 
ATOM     28  F   UNL     1      -0.273  10.808  20.673  0.00  0.00    +0.000 F 
ENDBRANCH   3  21
BRANCH   1  30
ATOM     29  O   UNL     1      -2.638   9.551  15.581  0.00  0.00    +0.000 OA
ATOM     30  C   UNL     1      -3.466  10.373  15.942  0.00  0.00    +0.000 C 
BRANCH  30  31
ATOM     31  O   UNL     1      -4.542  10.691  15.188  0.00  0.00    +0.000 OA
ATOM     32  H   UNL     1      -5.308  11.048  15.700  0.00  0.00    +0.000 HD
ENDBRANCH  30  31
ENDBRANCH   1  30
TORSDOF 3
ENDMDL
