MODEL 1
REMARK VINA RESULT:      -8.6      0.000      0.000
REMARK  Name = 
REMARK  9 active torsions:
REMARK  status: ('A' for Active; 'I' for Inactive)
REMARK    1  A    between atoms: C_1  and  O_2
REMARK    2  A    between atoms: O_2  and  C_3
REMARK    3  A    between atoms: C_5  and  C_6
REMARK    4  A    between atoms: C_20  and  O_21
REMARK    5  A    between atoms: O_21  and  C_22
REMARK    6  A    between atoms: C_22  and  C_23
REMARK    7  A    between atoms: C_23  and  C_24
REMARK    8  A    between atoms: C_24  and  N_25
REMARK    9  A    between atoms: N_28  and  C_29
REMARK                            x       y       z     vdW  Elec       q    Type
REMARK                         _______ _______ _______ _____ _____    ______ ____
ROOT
ATOM      1  C   UNL     1       2.386   6.995  19.783  0.00  0.00    +0.000 A 
ATOM      2  C   UNL     1       1.626   8.008  20.419  0.00  0.00    +0.000 A 
ATOM      3  C   UNL     1       1.220   9.124  19.723  0.00  0.00    +0.000 A 
ATOM      4  C   UNL     1       1.676   9.309  18.393  0.00  0.00    +0.000 A 
ATOM      5  C   UNL     1       2.341   8.274  17.735  0.00  0.00    +0.000 A 
ATOM      6  C   UNL     1       2.620   7.087  18.404  0.00  0.00    +0.000 A 
ENDROOT
BRANCH   3   7
ATOM      7  C   UNL     1      -0.058   9.768  20.012  0.00  0.00    +0.000 C 
ATOM      8  C   UNL     1      -1.095  10.321  19.348  0.00  0.00    +0.000 C 
ATOM      9  C   UNL     1      -1.434  11.575  20.160  0.00  0.00    +0.000 C 
ATOM     10  O   UNL     1      -0.655  12.214  20.849  0.00  0.00    +0.000 OA
ATOM     11  N   UNL     1      -2.631  12.001  19.705  0.00  0.00    +0.000 N 
ATOM     12  C   UNL     1      -2.863  11.449  18.454  0.00  0.00    +0.000 A 
ATOM     13  C   UNL     1      -3.842  11.916  17.605  0.00  0.00    +0.000 A 
ATOM     14  C   UNL     1      -3.883  11.370  16.336  0.00  0.00    +0.000 A 
ATOM     15  C   UNL     1      -2.981  10.326  15.997  0.00  0.00    +0.000 A 
ATOM     16 CL   UNL     1      -3.085   9.677  14.404  0.00  0.00    +0.000 Cl
ATOM     17  C   UNL     1      -2.015   9.845  16.897  0.00  0.00    +0.000 A 
ATOM     18  C   UNL     1      -1.909  10.456  18.126  0.00  0.00    +0.000 A 
ATOM     19  H   UNL     1      -3.388  11.941  20.389  0.00  0.00    +0.000 HD
ENDBRANCH   3   7
BRANCH   1  21
ATOM     20  C   UNL     1       1.668   5.075  20.973  0.00  0.00    +0.000 C 
ATOM     21  O   UNL     1       2.744   5.854  20.452  0.00  0.00    +0.000 OA
ENDBRANCH   1  21
BRANCH   6  22
ATOM     22  O   UNL     1       3.109   6.097  17.583  0.00  0.00    +0.000 OA
BRANCH  22  23
ATOM     23  C   UNL     1       2.434   4.838  17.678  0.00  0.00    +0.000 C 
BRANCH  23  24
ATOM     24  C   UNL     1       3.414   3.672  17.454  0.00  0.00    +0.000 C 
BRANCH  24  25
ATOM     25  C   UNL     1       4.325   3.536  18.684  0.00  0.00    +0.000 C 
BRANCH  25  26
ATOM     26  N   UNL     1       5.717   3.992  18.514  0.00  0.00    +0.000 NA
ATOM     27  C   UNL     1       6.027   5.191  19.321  0.00  0.00    +0.000 C 
ATOM     28  C   UNL     1       7.430   5.784  19.019  0.00  0.00    +0.000 C 
ATOM     29  N   UNL     1       7.706   6.064  17.595  0.00  0.00    +0.000 NA
ATOM     30  C   UNL     1       6.979   7.241  17.124  0.00  0.00    +0.000 C 
ATOM     31  C   UNL     1       7.371   4.863  16.807  0.00  0.00    +0.000 C 
ATOM     32  C   UNL     1       5.964   4.285  17.081  0.00  0.00    +0.000 C 
ENDBRANCH  25  26
ENDBRANCH  24  25
ENDBRANCH  23  24
ENDBRANCH  22  23
ENDBRANCH   6  22
TORSDOF 7
ENDMDL
MODEL 2
REMARK VINA RESULT:      -8.3      5.472      8.314
REMARK  Name = 
REMARK  9 active torsions:
REMARK  status: ('A' for Active; 'I' for Inactive)
REMARK    1  A    between atoms: C_1  and  O_2
REMARK    2  A    between atoms: O_2  and  C_3
REMARK    3  A    between atoms: C_5  and  C_6
REMARK    4  A    between atoms: C_20  and  O_21
REMARK    5  A    between atoms: O_21  and  C_22
REMARK    6  A    between atoms: C_22  and  C_23
REMARK    7  A    between atoms: C_23  and  C_24
REMARK    8  A    between atoms: C_24  and  N_25
REMARK    9  A    between atoms: N_28  and  C_29
REMARK                            x       y       z     vdW  Elec       q    Type
REMARK                         _______ _______ _______ _____ _____    ______ ____
ROOT
ATOM      1  C   UNL     1       7.260   5.267  15.639  0.00  0.00    +0.000 A 
ATOM      2  C   UNL     1       6.446   4.122  15.829  0.00  0.00    +0.000 A 
ATOM      3  C   UNL     1       5.935   3.820  17.070  0.00  0.00    +0.000 A 
ATOM      4  C   UNL     1       6.334   4.599  18.186  0.00  0.00    +0.000 A 
ATOM      5  C   UNL     1       7.054   5.778  17.990  0.00  0.00    +0.000 A 
ATOM      6  C   UNL     1       7.442   6.154  16.709  0.00  0.00    +0.000 A 
ENDROOT
BRANCH   3   7
ATOM      7  C   UNL     1       4.623   3.198  17.214  0.00  0.00    +0.000 C 
ATOM      8  C   UNL     1       3.531   3.289  18.003  0.00  0.00    +0.000 C 
ATOM      9  C   UNL     1       3.124   1.833  18.249  0.00  0.00    +0.000 C 
ATOM     10  O   UNL     1       3.873   0.869  18.241  0.00  0.00    +0.000 OA
ATOM     11  N   UNL     1       1.888   1.878  18.788  0.00  0.00    +0.000 N 
ATOM     12  C   UNL     1       1.663   3.147  19.300  0.00  0.00    +0.000 A 
ATOM     13  C   UNL     1       0.630   3.426  20.169  0.00  0.00    +0.000 A 
ATOM     14  C   UNL     1       0.594   4.697  20.712  0.00  0.00    +0.000 A 
ATOM     15  C   UNL     1       1.561   5.655  20.305  0.00  0.00    +0.000 A 
ATOM     16 CL   UNL     1       1.461   7.226  21.007  0.00  0.00    +0.000 Cl
ATOM     17  C   UNL     1       2.582   5.352  19.389  0.00  0.00    +0.000 A 
ATOM     18  C   UNL     1       2.677   4.059  18.924  0.00  0.00    +0.000 A 
ATOM     19  H   UNL     1       1.156   1.476  18.198  0.00  0.00    +0.000 HD
ENDBRANCH   3   7
BRANCH   1  21
ATOM     20  C   UNL     1       7.191   4.854  13.306  0.00  0.00    +0.000 C 
ATOM     21  O   UNL     1       7.724   5.607  14.395  0.00  0.00    +0.000 OA
ENDBRANCH   1  21
BRANCH   6  22
ATOM     22  O   UNL     1       7.978   7.420  16.648  0.00  0.00    +0.000 OA
BRANCH  22  23
ATOM     23  C   UNL     1       7.444   8.353  17.593  0.00  0.00    +0.000 C 
BRANCH  23  24
ATOM     24  C   UNL     1       8.566   8.979  18.442  0.00  0.00    +0.000 C 
BRANCH  24  25
ATOM     25  C   UNL     1       8.852  10.400  17.930  0.00  0.00    +0.000 C 
BRANCH  25  26
ATOM     26  N   UNL     1       9.811  11.193  18.722  0.00  0.00    +0.000 NA
ATOM     27  C   UNL     1       9.524  11.154  20.171  0.00  0.00    +0.000 C 
ATOM     28  C   UNL     1      10.415  12.122  20.996  0.00  0.00    +0.000 C 
ATOM     29  N   UNL     1      10.423  13.524  20.534  0.00  0.00    +0.000 NA
ATOM     30  C   UNL     1       9.174  14.210  20.861  0.00  0.00    +0.000 C 
ATOM     31  C   UNL     1      10.690  13.539  19.083  0.00  0.00    +0.000 C 
ATOM     32  C   UNL     1       9.786  12.599  18.252  0.00  0.00    +0.000 C 
ENDBRANCH  25  26
ENDBRANCH  24  25
ENDBRANCH  23  24
ENDBRANCH  22  23
ENDBRANCH   6  22
TORSDOF 7
ENDMDL
MODEL 3
REMARK VINA RESULT:      -8.3      2.612      3.772
REMARK  Name = 
REMARK  9 active torsions:
REMARK  status: ('A' for Active; 'I' for Inactive)
REMARK    1  A    between atoms: C_1  and  O_2
REMARK    2  A    between atoms: O_2  and  C_3
REMARK    3  A    between atoms: C_5  and  C_6
REMARK    4  A    between atoms: C_20  and  O_21
REMARK    5  A    between atoms: O_21  and  C_22
REMARK    6  A    between atoms: C_22  and  C_23
REMARK    7  A    between atoms: C_23  and  C_24
REMARK    8  A    between atoms: C_24  and  N_25
REMARK    9  A    between atoms: N_28  and  C_29
REMARK                            x       y       z     vdW  Elec       q    Type
REMARK                         _______ _______ _______ _____ _____    ______ ____
ROOT
ATOM      1  C   UNL     1      -0.069   9.703  20.974  0.00  0.00    +0.000 A 
ATOM      2  C   UNL     1      -0.808  10.647  20.217  0.00  0.00    +0.000 A 
ATOM      3  C   UNL     1      -0.499  10.888  18.898  0.00  0.00    +0.000 A 
ATOM      4  C   UNL     1       0.647  10.271  18.336  0.00  0.00    +0.000 A 
ATOM      5  C   UNL     1       1.317   9.273  19.044  0.00  0.00    +0.000 A 
ATOM      6  C   UNL     1       0.906   8.931  20.327  0.00  0.00    +0.000 A 
ENDROOT
BRANCH   3   7
ATOM      7  C   UNL     1      -1.541  11.211  17.927  0.00  0.00    +0.000 C 
ATOM      8  C   UNL     1      -2.877  11.396  17.889  0.00  0.00    +0.000 C 
ATOM      9  C   UNL     1      -3.317  10.686  16.604  0.00  0.00    +0.000 C 
ATOM     10  O   UNL     1      -2.751   9.741  16.079  0.00  0.00    +0.000 OA
ATOM     11  N   UNL     1      -4.586  11.084  16.375  0.00  0.00    +0.000 N 
ATOM     12  C   UNL     1      -5.123  11.584  17.551  0.00  0.00    +0.000 A 
ATOM     13  C   UNL     1      -6.475  11.789  17.723  0.00  0.00    +0.000 A 
ATOM     14  C   UNL     1      -6.896  12.164  18.985  0.00  0.00    +0.000 A 
ATOM     15  C   UNL     1      -5.932  12.384  20.004  0.00  0.00    +0.000 A 
ATOM     16 CL   UNL     1      -6.514  12.860  21.555  0.00  0.00    +0.000 Cl
ATOM     17  C   UNL     1      -4.556  12.202  19.790  0.00  0.00    +0.000 A 
ATOM     18  C   UNL     1      -4.144  11.733  18.562  0.00  0.00    +0.000 A 
ATOM     19  H   UNL     1      -4.705  11.647  15.530  0.00  0.00    +0.000 HD
ENDBRANCH   3   7
BRANCH   1  21
ATOM     20  C   UNL     1      -0.887  10.512  23.045  0.00  0.00    +0.000 C 
ATOM     21  O   UNL     1      -0.407   9.415  22.270  0.00  0.00    +0.000 OA
ENDBRANCH   1  21
BRANCH   6  22
ATOM     22  O   UNL     1       1.535   7.813  20.825  0.00  0.00    +0.000 OA
BRANCH  22  23
ATOM     23  C   UNL     1       2.242   7.029  19.857  0.00  0.00    +0.000 C 
BRANCH  23  24
ATOM     24  C   UNL     1       2.127   5.528  20.177  0.00  0.00    +0.000 C 
BRANCH  24  25
ATOM     25  C   UNL     1       3.300   4.782  19.520  0.00  0.00    +0.000 C 
BRANCH  25  26
ATOM     26  N   UNL     1       4.250   5.612  18.755  0.00  0.00    +0.000 NA
ATOM     27  C   UNL     1       4.112   5.437  17.294  0.00  0.00    +0.000 C 
ATOM     28  C   UNL     1       5.218   6.168  16.486  0.00  0.00    +0.000 C 
ATOM     29  N   UNL     1       6.605   5.861  16.890  0.00  0.00    +0.000 NA
ATOM     30  C   UNL     1       7.012   4.525  16.460  0.00  0.00    +0.000 C 
ATOM     31  C   UNL     1       6.715   6.022  18.352  0.00  0.00    +0.000 C 
ATOM     32  C   UNL     1       5.634   5.273  19.164  0.00  0.00    +0.000 C 
ENDBRANCH  25  26
ENDBRANCH  24  25
ENDBRANCH  23  24
ENDBRANCH  22  23
ENDBRANCH   6  22
TORSDOF 7
ENDMDL
MODEL 4
REMARK VINA RESULT:      -8.1      1.177      1.512
REMARK  Name = 
REMARK  9 active torsions:
REMARK  status: ('A' for Active; 'I' for Inactive)
REMARK    1  A    between atoms: C_1  and  O_2
REMARK    2  A    between atoms: O_2  and  C_3
REMARK    3  A    between atoms: C_5  and  C_6
REMARK    4  A    between atoms: C_20  and  O_21
REMARK    5  A    between atoms: O_21  and  C_22
REMARK    6  A    between atoms: C_22  and  C_23
REMARK    7  A    between atoms: C_23  and  C_24
REMARK    8  A    between atoms: C_24  and  N_25
REMARK    9  A    between atoms: N_28  and  C_29
REMARK                            x       y       z     vdW  Elec       q    Type
REMARK                         _______ _______ _______ _____ _____    ______ ____
ROOT
ATOM      1  C   UNL     1       1.838   5.297  19.987  0.00  0.00    +0.000 A 
ATOM      2  C   UNL     1       1.546   6.404  20.822  0.00  0.00    +0.000 A 
ATOM      3  C   UNL     1       1.714   7.692  20.368  0.00  0.00    +0.000 A 
ATOM      4  C   UNL     1       2.302   7.900  19.094  0.00  0.00    +0.000 A 
ATOM      5  C   UNL     1       2.501   6.820  18.234  0.00  0.00    +0.000 A 
ATOM      6  C   UNL     1       2.189   5.530  18.650  0.00  0.00    +0.000 A 
ENDROOT
BRANCH   3   7
ATOM      7  C   UNL     1       0.823   8.765  20.798  0.00  0.00    +0.000 C 
ATOM      8  C   UNL     1       0.001   9.688  20.255  0.00  0.00    +0.000 C 
ATOM      9  C   UNL     1       0.267  10.955  21.074  0.00  0.00    +0.000 C 
ATOM     10  O   UNL     1       1.308  11.232  21.646  0.00  0.00    +0.000 OA
ATOM     11  N   UNL     1      -0.725  11.815  20.761  0.00  0.00    +0.000 N 
ATOM     12  C   UNL     1      -1.301  11.425  19.562  0.00  0.00    +0.000 A 
ATOM     13  C   UNL     1      -2.126  12.251  18.829  0.00  0.00    +0.000 A 
ATOM     14  C   UNL     1      -2.528  11.795  17.588  0.00  0.00    +0.000 A 
ATOM     15  C   UNL     1      -2.139  10.496  17.165  0.00  0.00    +0.000 A 
ATOM     16 CL   UNL     1      -2.678   9.976  15.612  0.00  0.00    +0.000 Cl
ATOM     17  C   UNL     1      -1.326   9.661  17.948  0.00  0.00    +0.000 A 
ATOM     18  C   UNL     1      -0.844  10.154  19.141  0.00  0.00    +0.000 A 
ATOM     19  H   UNL     1      -1.357  12.029  21.535  0.00  0.00    +0.000 HD
ENDBRANCH   3   7
BRANCH   1  21
ATOM     20  C   UNL     1       2.196   3.667  21.670  0.00  0.00    +0.000 C 
ATOM     21  O   UNL     1       1.617   4.013  20.412  0.00  0.00    +0.000 OA
ENDBRANCH   1  21
BRANCH   6  22
ATOM     22  O   UNL     1       2.261   4.597  17.642  0.00  0.00    +0.000 OA
BRANCH  22  23
ATOM     23  C   UNL     1       2.484   3.250  18.073  0.00  0.00    +0.000 C 
BRANCH  23  24
ATOM     24  C   UNL     1       3.952   2.841  17.860  0.00  0.00    +0.000 C 
BRANCH  24  25
ATOM     25  C   UNL     1       4.813   3.456  18.975  0.00  0.00    +0.000 C 
BRANCH  25  26
ATOM     26  N   UNL     1       6.083   4.074  18.548  0.00  0.00    +0.000 NA
ATOM     27  C   UNL     1       6.441   5.257  19.357  0.00  0.00    +0.000 C 
ATOM     28  C   UNL     1       7.679   6.019  18.809  0.00  0.00    +0.000 C 
ATOM     29  N   UNL     1       7.608   6.400  17.384  0.00  0.00    +0.000 NA
ATOM     30  C   UNL     1       6.684   7.510  17.166  0.00  0.00    +0.000 C 
ATOM     31  C   UNL     1       7.229   5.211  16.598  0.00  0.00    +0.000 C 
ATOM     32  C   UNL     1       5.980   4.465  17.121  0.00  0.00    +0.000 C 
ENDBRANCH  25  26
ENDBRANCH  24  25
ENDBRANCH  23  24
ENDBRANCH  22  23
ENDBRANCH   6  22
TORSDOF 7
ENDMDL
MODEL 5
REMARK VINA RESULT:      -8.1      2.494      3.107
REMARK  Name = 
REMARK  9 active torsions:
REMARK  status: ('A' for Active; 'I' for Inactive)
REMARK    1  A    between atoms: C_1  and  O_2
REMARK    2  A    between atoms: O_2  and  C_3
REMARK    3  A    between atoms: C_5  and  C_6
REMARK    4  A    between atoms: C_20  and  O_21
REMARK    5  A    between atoms: O_21  and  C_22
REMARK    6  A    between atoms: C_22  and  C_23
REMARK    7  A    between atoms: C_23  and  C_24
REMARK    8  A    between atoms: C_24  and  N_25
REMARK    9  A    between atoms: N_28  and  C_29
REMARK                            x       y       z     vdW  Elec       q    Type
REMARK                         _______ _______ _______ _____ _____    ______ ____
ROOT
ATOM      1  C   UNL     1       1.207   8.767  20.477  0.00  0.00    +0.000 A 
ATOM      2  C   UNL     1       0.402   9.828  19.990  0.00  0.00    +0.000 A 
ATOM      3  C   UNL     1       0.427  10.176  18.660  0.00  0.00    +0.000 A 
ATOM      4  C   UNL     1       1.362   9.545  17.801  0.00  0.00    +0.000 A 
ATOM      5  C   UNL     1       2.087   8.441  18.252  0.00  0.00    +0.000 A 
ATOM      6  C   UNL     1       1.944   8.002  19.564  0.00  0.00    +0.000 A 
ENDROOT
BRANCH   3   7
ATOM      7  C   UNL     1      -0.774  10.659  17.984  0.00  0.00    +0.000 C 
ATOM      8  C   UNL     1      -1.983  11.171  18.295  0.00  0.00    +0.000 C 
ATOM      9  C   UNL     1      -2.944  10.478  17.324  0.00  0.00    +0.000 C 
ATOM     10  O   UNL     1      -2.786   9.376  16.824  0.00  0.00    +0.000 OA
ATOM     11  N   UNL     1      -4.107  11.159  17.401  0.00  0.00    +0.000 N 
ATOM     12  C   UNL     1      -4.128  11.886  18.581  0.00  0.00    +0.000 A 
ATOM     13  C   UNL     1      -5.282  12.440  19.092  0.00  0.00    +0.000 A 
ATOM     14  C   UNL     1      -5.195  13.026  20.342  0.00  0.00    +0.000 A 
ATOM     15  C   UNL     1      -3.936  13.090  20.995  0.00  0.00    +0.000 A 
ATOM     16 CL   UNL     1      -3.886  13.839  22.547  0.00  0.00    +0.000 Cl
ATOM     17  C   UNL     1      -2.768  12.547  20.433  0.00  0.00    +0.000 A 
ATOM     18  C   UNL     1      -2.873  11.877  19.234  0.00  0.00    +0.000 A 
ATOM     19  H   UNL     1      -4.364  11.653  16.543  0.00  0.00    +0.000 HD
ENDBRANCH   3   7
BRANCH   1  21
ATOM     20  C   UNL     1       0.577   9.323  22.693  0.00  0.00    +0.000 C 
ATOM     21  O   UNL     1       1.144   8.376  21.789  0.00  0.00    +0.000 OA
ENDBRANCH   1  21
BRANCH   6  22
ATOM     22  O   UNL     1       2.572   6.802  19.811  0.00  0.00    +0.000 OA
BRANCH  22  23
ATOM     23  C   UNL     1       2.315   5.771  18.851  0.00  0.00    +0.000 C 
BRANCH  23  24
ATOM     24  C   UNL     1       3.271   4.582  19.055  0.00  0.00    +0.000 C 
BRANCH  24  25
ATOM     25  C   UNL     1       3.610   3.967  17.687  0.00  0.00    +0.000 C 
BRANCH  25  26
ATOM     26  N   UNL     1       5.014   4.084  17.254  0.00  0.00    +0.000 NA
ATOM     27  C   UNL     1       5.925   4.444  18.360  0.00  0.00    +0.000 C 
ATOM     28  C   UNL     1       7.373   4.742  17.887  0.00  0.00    +0.000 C 
ATOM     29  N   UNL     1       7.494   5.740  16.805  0.00  0.00    +0.000 NA
ATOM     30  C   UNL     1       7.251   7.097  17.290  0.00  0.00    +0.000 C 
ATOM     31  C   UNL     1       6.563   5.372  15.721  0.00  0.00    +0.000 C 
ATOM     32  C   UNL     1       5.112   5.104  16.182  0.00  0.00    +0.000 C 
ENDBRANCH  25  26
ENDBRANCH  24  25
ENDBRANCH  23  24
ENDBRANCH  22  23
ENDBRANCH   6  22
TORSDOF 7
ENDMDL
MODEL 6
REMARK VINA RESULT:      -8.1      3.406     10.135
REMARK  Name = 
REMARK  9 active torsions:
REMARK  status: ('A' for Active; 'I' for Inactive)
REMARK    1  A    between atoms: C_1  and  O_2
REMARK    2  A    between atoms: O_2  and  C_3
REMARK    3  A    between atoms: C_5  and  C_6
REMARK    4  A    between atoms: C_20  and  O_21
REMARK    5  A    between atoms: O_21  and  C_22
REMARK    6  A    between atoms: C_22  and  C_23
REMARK    7  A    between atoms: C_23  and  C_24
REMARK    8  A    between atoms: C_24  and  N_25
REMARK    9  A    between atoms: N_28  and  C_29
REMARK                            x       y       z     vdW  Elec       q    Type
REMARK                         _______ _______ _______ _____ _____    ______ ____
ROOT
ATOM      1  C   UNL     1       0.179  10.317  19.052  0.00  0.00    +0.000 A 
ATOM      2  C   UNL     1       1.152   9.658  18.260  0.00  0.00    +0.000 A 
ATOM      3  C   UNL     1       1.943   8.668  18.796  0.00  0.00    +0.000 A 
ATOM      4  C   UNL     1       1.860   8.398  20.186  0.00  0.00    +0.000 A 
ATOM      5  C   UNL     1       0.842   8.974  20.947  0.00  0.00    +0.000 A 
ATOM      6  C   UNL     1      -0.048   9.866  20.360  0.00  0.00    +0.000 A 
ENDROOT
BRANCH   3   7
ATOM      7  C   UNL     1       2.373   7.528  17.991  0.00  0.00    +0.000 C 
ATOM      8  C   UNL     1       2.686   6.225  18.152  0.00  0.00    +0.000 C 
ATOM      9  C   UNL     1       3.918   6.023  17.264  0.00  0.00    +0.000 C 
ATOM     10  O   UNL     1       4.733   6.881  16.963  0.00  0.00    +0.000 OA
ATOM     11  N   UNL     1       4.093   4.688  17.169  0.00  0.00    +0.000 N 
ATOM     12  C   UNL     1       3.418   4.067  18.209  0.00  0.00    +0.000 A 
ATOM     13  C   UNL     1       3.643   2.755  18.563  0.00  0.00    +0.000 A 
ATOM     14  C   UNL     1       3.005   2.295  19.700  0.00  0.00    +0.000 A 
ATOM     15  C   UNL     1       2.113   3.155  20.394  0.00  0.00    +0.000 A 
ATOM     16 CL   UNL     1       1.339   2.524  21.799  0.00  0.00    +0.000 Cl
ATOM     17  C   UNL     1       1.876   4.479  19.989  0.00  0.00    +0.000 A 
ATOM     18  C   UNL     1       2.586   4.968  18.915  0.00  0.00    +0.000 A 
ATOM     19  H   UNL     1       3.953   4.311  16.229  0.00  0.00    +0.000 HD
ENDBRANCH   3   7
BRANCH   1  21
ATOM     20  C   UNL     1      -1.730  10.764  17.720  0.00  0.00    +0.000 C 
ATOM     21  O   UNL     1      -0.652  11.263  18.511  0.00  0.00    +0.000 OA
ENDBRANCH   1  21
BRANCH   6  22
ATOM     22  O   UNL     1      -1.101  10.207  21.177  0.00  0.00    +0.000 OA
BRANCH  22  23
ATOM     23  C   UNL     1      -0.744  10.923  22.365  0.00  0.00    +0.000 C 
BRANCH  23  24
ATOM     24  C   UNL     1      -1.336  12.344  22.348  0.00  0.00    +0.000 C 
BRANCH  24  25
ATOM     25  C   UNL     1      -2.362  12.476  23.485  0.00  0.00    +0.000 C 
BRANCH  25  26
ATOM     26  N   UNL     1      -3.773  12.257  23.115  0.00  0.00    +0.000 NA
ATOM     27  C   UNL     1      -4.092  12.759  21.762  0.00  0.00    +0.000 C 
ATOM     28  C   UNL     1      -5.607  12.695  21.429  0.00  0.00    +0.000 C 
ATOM     29  N   UNL     1      -6.501  13.334  22.416  0.00  0.00    +0.000 NA
ATOM     30  C   UNL     1      -6.429  14.792  22.346  0.00  0.00    +0.000 C 
ATOM     31  C   UNL     1      -6.151  12.835  23.759  0.00  0.00    +0.000 C 
ATOM     32  C   UNL     1      -4.648  12.924  24.108  0.00  0.00    +0.000 C 
ENDBRANCH  25  26
ENDBRANCH  24  25
ENDBRANCH  23  24
ENDBRANCH  22  23
ENDBRANCH   6  22
TORSDOF 7
ENDMDL
MODEL 7
REMARK VINA RESULT:      -8.0      2.816      4.398
REMARK  Name = 
REMARK  9 active torsions:
REMARK  status: ('A' for Active; 'I' for Inactive)
REMARK    1  A    between atoms: C_1  and  O_2
REMARK    2  A    between atoms: O_2  and  C_3
REMARK    3  A    between atoms: C_5  and  C_6
REMARK    4  A    between atoms: C_20  and  O_21
REMARK    5  A    between atoms: O_21  and  C_22
REMARK    6  A    between atoms: C_22  and  C_23
REMARK    7  A    between atoms: C_23  and  C_24
REMARK    8  A    between atoms: C_24  and  N_25
REMARK    9  A    between atoms: N_28  and  C_29
REMARK                            x       y       z     vdW  Elec       q    Type
REMARK                         _______ _______ _______ _____ _____    ______ ____
ROOT
ATOM      1  C   UNL     1      -0.081  10.167  21.109  0.00  0.00    +0.000 A 
ATOM      2  C   UNL     1      -0.800  11.054  20.268  0.00  0.00    +0.000 A 
ATOM      3  C   UNL     1      -0.556  11.092  18.915  0.00  0.00    +0.000 A 
ATOM      4  C   UNL     1       0.511  10.323  18.385  0.00  0.00    +0.000 A 
ATOM      5  C   UNL     1       1.156   9.382  19.189  0.00  0.00    +0.000 A 
ATOM      6  C   UNL     1       0.801   9.246  20.526  0.00  0.00    +0.000 A 
ENDROOT
BRANCH   3   7
ATOM      7  C   UNL     1      -1.631  11.358  17.963  0.00  0.00    +0.000 C 
ATOM      8  C   UNL     1      -2.975  11.486  17.951  0.00  0.00    +0.000 C 
ATOM      9  C   UNL     1      -3.411  10.741  16.685  0.00  0.00    +0.000 C 
ATOM     10  O   UNL     1      -2.816   9.814  16.159  0.00  0.00    +0.000 OA
ATOM     11  N   UNL     1      -4.700  11.081  16.479  0.00  0.00    +0.000 N 
ATOM     12  C   UNL     1      -5.234  11.574  17.660  0.00  0.00    +0.000 A 
ATOM     13  C   UNL     1      -6.589  11.724  17.859  0.00  0.00    +0.000 A 
ATOM     14  C   UNL     1      -6.999  12.098  19.125  0.00  0.00    +0.000 A 
ATOM     15  C   UNL     1      -6.023  12.372  20.120  0.00  0.00    +0.000 A 
ATOM     16 CL   UNL     1      -6.592  12.843  21.677  0.00  0.00    +0.000 Cl
ATOM     17  C   UNL     1      -4.645  12.245  19.878  0.00  0.00    +0.000 A 
ATOM     18  C   UNL     1      -4.240  11.777  18.647  0.00  0.00    +0.000 A 
ATOM     19  H   UNL     1      -4.861  11.627  15.630  0.00  0.00    +0.000 HD
ENDBRANCH   3   7
BRANCH   1  21
ATOM     20  C   UNL     1      -1.179  11.119  22.981  0.00  0.00    +0.000 C 
ATOM     21  O   UNL     1      -0.358  10.080  22.448  0.00  0.00    +0.000 OA
ENDBRANCH   1  21
BRANCH   6  22
ATOM     22  O   UNL     1       1.384   8.162  21.141  0.00  0.00    +0.000 OA
BRANCH  22  23
ATOM     23  C   UNL     1       1.757   7.093  20.264  0.00  0.00    +0.000 C 
BRANCH  23  24
ATOM     24  C   UNL     1       1.905   5.772  21.041  0.00  0.00    +0.000 C 
BRANCH  24  25
ATOM     25  C   UNL     1       1.098   4.675  20.328  0.00  0.00    +0.000 C 
BRANCH  25  26
ATOM     26  N   UNL     1       1.881   3.564  19.755  0.00  0.00    +0.000 NA
ATOM     27  C   UNL     1       3.336   3.728  19.954  0.00  0.00    +0.000 C 
ATOM     28  C   UNL     1       4.179   2.661  19.206  0.00  0.00    +0.000 C 
ATOM     29  N   UNL     1       3.892   2.524  17.764  0.00  0.00    +0.000 NA
ATOM     30  C   UNL     1       4.424   3.648  16.997  0.00  0.00    +0.000 C 
ATOM     31  C   UNL     1       2.435   2.382  17.586  0.00  0.00    +0.000 C 
ATOM     32  C   UNL     1       1.591   3.460  18.304  0.00  0.00    +0.000 C 
ENDBRANCH  25  26
ENDBRANCH  24  25
ENDBRANCH  23  24
ENDBRANCH  22  23
ENDBRANCH   6  22
TORSDOF 7
ENDMDL
MODEL 8
REMARK VINA RESULT:      -7.9      2.922      4.574
REMARK  Name = 
REMARK  9 active torsions:
REMARK  status: ('A' for Active; 'I' for Inactive)
REMARK    1  A    between atoms: C_1  and  O_2
REMARK    2  A    between atoms: O_2  and  C_3
REMARK    3  A    between atoms: C_5  and  C_6
REMARK    4  A    between atoms: C_20  and  O_21
REMARK    5  A    between atoms: O_21  and  C_22
REMARK    6  A    between atoms: C_22  and  C_23
REMARK    7  A    between atoms: C_23  and  C_24
REMARK    8  A    between atoms: C_24  and  N_25
REMARK    9  A    between atoms: N_28  and  C_29
REMARK                            x       y       z     vdW  Elec       q    Type
REMARK                         _______ _______ _______ _____ _____    ______ ____
ROOT
ATOM      1  C   UNL     1      -0.122   9.532  20.511  0.00  0.00    +0.000 A 
ATOM      2  C   UNL     1      -1.086  10.459  20.041  0.00  0.00    +0.000 A 
ATOM      3  C   UNL     1      -0.879  11.158  18.874  0.00  0.00    +0.000 A 
ATOM      4  C   UNL     1       0.368  11.034  18.210  0.00  0.00    +0.000 A 
ATOM      5  C   UNL     1       1.278  10.057  18.615  0.00  0.00    +0.000 A 
ATOM      6  C   UNL     1       0.994   9.250  19.711  0.00  0.00    +0.000 A 
ENDROOT
BRANCH   3   7
ATOM      7  C   UNL     1      -1.992  11.506  17.996  0.00  0.00    +0.000 C 
ATOM      8  C   UNL     1      -3.335  11.629  18.051  0.00  0.00    +0.000 C 
ATOM      9  C   UNL     1      -3.822  11.002  16.740  0.00  0.00    +0.000 C 
ATOM     10  O   UNL     1      -3.249  10.130  16.107  0.00  0.00    +0.000 OA
ATOM     11  N   UNL     1      -5.119  11.354  16.619  0.00  0.00    +0.000 N 
ATOM     12  C   UNL     1      -5.604  11.733  17.862  0.00  0.00    +0.000 A 
ATOM     13  C   UNL     1      -6.950  11.858  18.129  0.00  0.00    +0.000 A 
ATOM     14  C   UNL     1      -7.308  12.111  19.440  0.00  0.00    +0.000 A 
ATOM     15  C   UNL     1      -6.292  12.297  20.415  0.00  0.00    +0.000 A 
ATOM     16 CL   UNL     1      -6.797  12.619  22.032  0.00  0.00    +0.000 Cl
ATOM     17  C   UNL     1      -4.925  12.199  20.107  0.00  0.00    +0.000 A 
ATOM     18  C   UNL     1      -4.571  11.849  18.822  0.00  0.00    +0.000 A 
ATOM     19  H   UNL     1      -5.315  11.976  15.832  0.00  0.00    +0.000 HD
ENDBRANCH   3   7
BRANCH   1  21
ATOM     20  C   UNL     1      -0.243   9.492  22.878  0.00  0.00    +0.000 C 
ATOM     21  O   UNL     1      -0.347   8.789  21.640  0.00  0.00    +0.000 OA
ENDBRANCH   1  21
BRANCH   6  22
ATOM     22  O   UNL     1       1.887   8.217  19.877  0.00  0.00    +0.000 OA
BRANCH  22  23
ATOM     23  C   UNL     1       2.140   7.435  18.705  0.00  0.00    +0.000 C 
BRANCH  23  24
ATOM     24  C   UNL     1       3.455   6.648  18.843  0.00  0.00    +0.000 C 
BRANCH  24  25
ATOM     25  C   UNL     1       3.532   5.595  17.725  0.00  0.00    +0.000 C 
BRANCH  25  26
ATOM     26  N   UNL     1       3.241   4.205  18.123  0.00  0.00    +0.000 NA
ATOM     27  C   UNL     1       1.798   3.889  18.076  0.00  0.00    +0.000 C 
ATOM     28  C   UNL     1       1.460   2.490  18.657  0.00  0.00    +0.000 C 
ATOM     29  N   UNL     1       1.977   2.226  20.015  0.00  0.00    +0.000 NA
ATOM     30  C   UNL     1       1.226   2.959  21.033  0.00  0.00    +0.000 C 
ATOM     31  C   UNL     1       3.412   2.567  20.045  0.00  0.00    +0.000 C 
ATOM     32  C   UNL     1       3.752   3.971  19.495  0.00  0.00    +0.000 C 
ENDBRANCH  25  26
ENDBRANCH  24  25
ENDBRANCH  23  24
ENDBRANCH  22  23
ENDBRANCH   6  22
TORSDOF 7
ENDMDL
MODEL 9
REMARK VINA RESULT:      -7.9      5.456      8.350
REMARK  Name = 
REMARK  9 active torsions:
REMARK  status: ('A' for Active; 'I' for Inactive)
REMARK    1  A    between atoms: C_1  and  O_2
REMARK    2  A    between atoms: O_2  and  C_3
REMARK    3  A    between atoms: C_5  and  C_6
REMARK    4  A    between atoms: C_20  and  O_21
REMARK    5  A    between atoms: O_21  and  C_22
REMARK    6  A    between atoms: C_22  and  C_23
REMARK    7  A    between atoms: C_23  and  C_24
REMARK    8  A    between atoms: C_24  and  N_25
REMARK    9  A    between atoms: N_28  and  C_29
REMARK                            x       y       z     vdW  Elec       q    Type
REMARK                         _______ _______ _______ _____ _____    ______ ____
ROOT
ATOM      1  C   UNL     1       7.000   5.354  15.416  0.00  0.00    +0.000 A 
ATOM      2  C   UNL     1       6.179   4.207  15.561  0.00  0.00    +0.000 A 
ATOM      3  C   UNL     1       5.863   3.722  16.809  0.00  0.00    +0.000 A 
ATOM      4  C   UNL     1       6.472   4.306  17.949  0.00  0.00    +0.000 A 
ATOM      5  C   UNL     1       7.202   5.488  17.818  0.00  0.00    +0.000 A 
ATOM      6  C   UNL     1       7.392   6.056  16.564  0.00  0.00    +0.000 A 
ENDROOT
BRANCH   3   7
ATOM      7  C   UNL     1       4.565   3.108  17.073  0.00  0.00    +0.000 C 
ATOM      8  C   UNL     1       3.527   3.244  17.924  0.00  0.00    +0.000 C 
ATOM      9  C   UNL     1       3.143   1.804  18.280  0.00  0.00    +0.000 C 
ATOM     10  O   UNL     1       3.894   0.842  18.279  0.00  0.00    +0.000 OA
ATOM     11  N   UNL     1       1.944   1.880  18.894  0.00  0.00    +0.000 N 
ATOM     12  C   UNL     1       1.747   3.176  19.346  0.00  0.00    +0.000 A 
ATOM     13  C   UNL     1       0.771   3.504  20.262  0.00  0.00    +0.000 A 
ATOM     14  C   UNL     1       0.765   4.804  20.732  0.00  0.00    +0.000 A 
ATOM     15  C   UNL     1       1.698   5.738  20.208  0.00  0.00    +0.000 A 
ATOM     16 CL   UNL     1       1.637   7.347  20.825  0.00  0.00    +0.000 Cl
ATOM     17  C   UNL     1       2.660   5.383  19.248  0.00  0.00    +0.000 A 
ATOM     18  C   UNL     1       2.731   4.066  18.853  0.00  0.00    +0.000 A 
ATOM     19  H   UNL     1       1.177   1.444  18.377  0.00  0.00    +0.000 HD
ENDBRANCH   3   7
BRANCH   1  21
ATOM     20  C   UNL     1       7.692   4.944  13.186  0.00  0.00    +0.000 C 
ATOM     21  O   UNL     1       7.271   5.879  14.179  0.00  0.00    +0.000 OA
ENDBRANCH   1  21
BRANCH   6  22
ATOM     22  O   UNL     1       7.966   7.306  16.609  0.00  0.00    +0.000 OA
BRANCH  22  23
ATOM     23  C   UNL     1       7.406   8.198  17.580  0.00  0.00    +0.000 C 
BRANCH  23  24
ATOM     24  C   UNL     1       8.509   8.817  18.457  0.00  0.00    +0.000 C 
BRANCH  24  25
ATOM     25  C   UNL     1       8.911  10.181  17.874  0.00  0.00    +0.000 C 
BRANCH  25  26
ATOM     26  N   UNL     1       9.146  11.260  18.851  0.00  0.00    +0.000 NA
ATOM     27  C   UNL     1       8.817  12.597  18.314  0.00  0.00    +0.000 C 
ATOM     28  C   UNL     1       9.223  13.754  19.266  0.00  0.00    +0.000 C 
ATOM     29  N   UNL     1      10.628  13.738  19.720  0.00  0.00    +0.000 NA
ATOM     30  C   UNL     1      11.546  14.138  18.654  0.00  0.00    +0.000 C 
ATOM     31  C   UNL     1      10.941  12.391  20.232  0.00  0.00    +0.000 C 
ATOM     32  C   UNL     1      10.566  11.236  19.276  0.00  0.00    +0.000 C 
ENDBRANCH  25  26
ENDBRANCH  24  25
ENDBRANCH  23  24
ENDBRANCH  22  23
ENDBRANCH   6  22
TORSDOF 7
ENDMDL
