MODEL 1
REMARK VINA RESULT:      -7.9      0.000      0.000
REMARK  Name = 
REMARK  4 active torsions:
REMARK  status: ('A' for Active; 'I' for Inactive)
REMARK    1  A    between atoms: C_1  and  N_2
REMARK    2  A    between atoms: N_2  and  C_3
REMARK    3  A    between atoms: N_2  and  C_9
REMARK    4  A    between atoms: C_12  and  C_13
REMARK                            x       y       z     vdW  Elec       q    Type
REMARK                         _______ _______ _______ _____ _____    ______ ____
ROOT
ATOM      1  C   UNL     1       3.095   5.404  18.494  0.00  0.00    +0.000 A 
ATOM      2  C   UNL     1       3.038   6.731  18.015  0.00  0.00    +0.000 A 
ATOM      3  C   UNL     1       2.424   7.741  18.754  0.00  0.00    +0.000 A 
ATOM      4  C   UNL     1       1.836   7.476  20.000  0.00  0.00    +0.000 A 
ATOM      5  C   UNL     1       1.933   6.169  20.511  0.00  0.00    +0.000 A 
ATOM      6  C   UNL     1       2.568   5.162  19.784  0.00  0.00    +0.000 A 
ENDROOT
BRANCH   4   7
ATOM      7  C   UNL     1       1.116   8.564  20.731  0.00  0.00    +0.000 C 
ATOM      8  N   UNL     1       1.031   8.474  22.024  0.00  0.00    +0.000 NA
ATOM      9  N   UNL     1       0.524   9.485  22.818  0.00  0.00    +0.000 N 
ATOM     10  C   UNL     1      -0.122  10.546  22.277  0.00  0.00    +0.000 C 
ATOM     11  O   UNL     1      -0.469  11.483  22.976  0.00  0.00    +0.000 OA
ATOM     12  C   UNL     1      -0.436  10.515  20.815  0.00  0.00    +0.000 C 
ATOM     13  C   UNL     1       0.713   9.864  20.051  0.00  0.00    +0.000 C 
ATOM     14  H   UNL     1       0.693   9.447  23.838  0.00  0.00    +0.000 HD
ENDBRANCH   4   7
BRANCH   1  16
ATOM     15  C   UNL     1       2.820   3.229  17.352  0.00  0.00    +0.000 C 
ATOM     16  N   UNL     1       3.695   4.354  17.690  0.00  0.00    +0.000 N 
BRANCH  16  17
ATOM     17  C   UNL     1       5.082   4.416  17.217  0.00  0.00    +0.000 A 
ATOM     18  C   UNL     1       5.423   4.301  15.841  0.00  0.00    +0.000 A 
ATOM     19  C   UNL     1       6.754   4.388  15.420  0.00  0.00    +0.000 A 
ATOM     20  N   UNL     1       7.747   4.586  16.317  0.00  0.00    +0.000 NA
ATOM     21  C   UNL     1       7.490   4.670  17.640  0.00  0.00    +0.000 A 
ATOM     22  C   UNL     1       6.180   4.565  18.112  0.00  0.00    +0.000 A 
ENDBRANCH  16  17
ENDBRANCH   1  16
TORSDOF 3
ENDMDL
MODEL 2
REMARK VINA RESULT:      -7.9      0.127      1.047
REMARK  Name = 
REMARK  4 active torsions:
REMARK  status: ('A' for Active; 'I' for Inactive)
REMARK    1  A    between atoms: C_1  and  N_2
REMARK    2  A    between atoms: N_2  and  C_3
REMARK    3  A    between atoms: N_2  and  C_9
REMARK    4  A    between atoms: C_12  and  C_13
REMARK                            x       y       z     vdW  Elec       q    Type
REMARK                         _______ _______ _______ _____ _____    ______ ____
ROOT
ATOM      1  C   UNL     1       3.056   5.517  18.503  0.00  0.00    +0.000 A 
ATOM      2  C   UNL     1       2.956   6.840  18.016  0.00  0.00    +0.000 A 
ATOM      3  C   UNL     1       2.340   7.841  18.766  0.00  0.00    +0.000 A 
ATOM      4  C   UNL     1       1.794   7.573  20.030  0.00  0.00    +0.000 A 
ATOM      5  C   UNL     1       1.936   6.272  20.548  0.00  0.00    +0.000 A 
ATOM      6  C   UNL     1       2.573   5.273  19.810  0.00  0.00    +0.000 A 
ENDROOT
BRANCH   4   7
ATOM      7  C   UNL     1       1.072   8.650  20.774  0.00  0.00    +0.000 C 
ATOM      8  N   UNL     1       0.917   8.504  22.055  0.00  0.00    +0.000 NA
ATOM      9  N   UNL     1       0.401   9.494  22.870  0.00  0.00    +0.000 N 
ATOM     10  C   UNL     1      -0.184  10.599  22.346  0.00  0.00    +0.000 C 
ATOM     11  O   UNL     1      -0.538  11.515  23.070  0.00  0.00    +0.000 OA
ATOM     12  C   UNL     1      -0.423  10.645  20.871  0.00  0.00    +0.000 C 
ATOM     13  C   UNL     1       0.744   9.992  20.136  0.00  0.00    +0.000 C 
ATOM     14  H   UNL     1       0.515   9.405  23.894  0.00  0.00    +0.000 HD
ENDBRANCH   4   7
BRANCH   1  16
ATOM     15  C   UNL     1       2.766   3.382  17.292  0.00  0.00    +0.000 C 
ATOM     16  N   UNL     1       3.656   4.475  17.690  0.00  0.00    +0.000 N 
BRANCH  16  17
ATOM     17  C   UNL     1       5.060   4.516  17.263  0.00  0.00    +0.000 A 
ATOM     18  C   UNL     1       6.131   4.685  18.183  0.00  0.00    +0.000 A 
ATOM     19  C   UNL     1       7.460   4.697  17.748  0.00  0.00    +0.000 A 
ATOM     20  N   UNL     1       7.754   4.544  16.436  0.00  0.00    +0.000 NA
ATOM     21  C   UNL     1       6.780   4.411  15.510  0.00  0.00    +0.000 A 
ATOM     22  C   UNL     1       5.436   4.419  15.893  0.00  0.00    +0.000 A 
ENDBRANCH  16  17
ENDBRANCH   1  16
TORSDOF 3
ENDMDL
MODEL 3
REMARK VINA RESULT:      -7.7      0.889      1.488
REMARK  Name = 
REMARK  4 active torsions:
REMARK  status: ('A' for Active; 'I' for Inactive)
REMARK    1  A    between atoms: C_1  and  N_2
REMARK    2  A    between atoms: N_2  and  C_3
REMARK    3  A    between atoms: N_2  and  C_9
REMARK    4  A    between atoms: C_12  and  C_13
REMARK                            x       y       z     vdW  Elec       q    Type
REMARK                         _______ _______ _______ _____ _____    ______ ____
ROOT
ATOM      1  C   UNL     1       2.893   5.621  18.616  0.00  0.00    +0.000 A 
ATOM      2  C   UNL     1       2.839   6.960  18.168  0.00  0.00    +0.000 A 
ATOM      3  C   UNL     1       2.230   7.953  18.934  0.00  0.00    +0.000 A 
ATOM      4  C   UNL     1       1.647   7.661  20.176  0.00  0.00    +0.000 A 
ATOM      5  C   UNL     1       1.742   6.342  20.655  0.00  0.00    +0.000 A 
ATOM      6  C   UNL     1       2.371   5.350  19.902  0.00  0.00    +0.000 A 
ENDROOT
BRANCH   4   7
ATOM      7  C   UNL     1       0.934   8.733  20.935  0.00  0.00    +0.000 C 
ATOM      8  N   UNL     1       1.130   9.966  20.575  0.00  0.00    +0.000 NA
ATOM      9  N   UNL     1       0.418  11.027  21.100  0.00  0.00    +0.000 N 
ATOM     10  C   UNL     1      -0.378  10.870  22.185  0.00  0.00    +0.000 C 
ATOM     11  O   UNL     1      -1.085  11.785  22.574  0.00  0.00    +0.000 OA
ATOM     12  C   UNL     1      -0.331   9.567  22.917  0.00  0.00    +0.000 C 
ATOM     13  C   UNL     1      -0.180   8.419  21.924  0.00  0.00    +0.000 C 
ATOM     14  H   UNL     1       0.458  11.941  20.616  0.00  0.00    +0.000 HD
ENDBRANCH   4   7
BRANCH   1  16
ATOM     15  C   UNL     1       2.583   3.521  17.348  0.00  0.00    +0.000 C 
ATOM     16  N   UNL     1       3.486   4.588  17.785  0.00  0.00    +0.000 N 
BRANCH  16  17
ATOM     17  C   UNL     1       4.896   4.614  17.378  0.00  0.00    +0.000 A 
ATOM     18  C   UNL     1       5.954   4.788  18.312  0.00  0.00    +0.000 A 
ATOM     19  C   UNL     1       7.290   4.786  17.895  0.00  0.00    +0.000 A 
ATOM     20  N   UNL     1       7.602   4.615  16.590  0.00  0.00    +0.000 NA
ATOM     21  C   UNL     1       6.640   4.478  15.652  0.00  0.00    +0.000 A 
ATOM     22  C   UNL     1       5.291   4.499  16.015  0.00  0.00    +0.000 A 
ENDBRANCH  16  17
ENDBRANCH   1  16
TORSDOF 3
ENDMDL
MODEL 4
REMARK VINA RESULT:      -7.7      0.835      1.025
REMARK  Name = 
REMARK  4 active torsions:
REMARK  status: ('A' for Active; 'I' for Inactive)
REMARK    1  A    between atoms: C_1  and  N_2
REMARK    2  A    between atoms: N_2  and  C_3
REMARK    3  A    between atoms: N_2  and  C_9
REMARK    4  A    between atoms: C_12  and  C_13
REMARK                            x       y       z     vdW  Elec       q    Type
REMARK                         _______ _______ _______ _____ _____    ______ ____
ROOT
ATOM      1  C   UNL     1       3.009   5.436  18.529  0.00  0.00    +0.000 A 
ATOM      2  C   UNL     1       3.004   6.784  18.106  0.00  0.00    +0.000 A 
ATOM      3  C   UNL     1       2.393   7.778  18.868  0.00  0.00    +0.000 A 
ATOM      4  C   UNL     1       1.756   7.477  20.081  0.00  0.00    +0.000 A 
ATOM      5  C   UNL     1       1.800   6.147  20.538  0.00  0.00    +0.000 A 
ATOM      6  C   UNL     1       2.432   5.154  19.789  0.00  0.00    +0.000 A 
ENDROOT
BRANCH   4   7
ATOM      7  C   UNL     1       1.041   8.553  20.835  0.00  0.00    +0.000 C 
ATOM      8  N   UNL     1       1.220   9.782  20.455  0.00  0.00    +0.000 NA
ATOM      9  N   UNL     1       0.503  10.843  20.975  0.00  0.00    +0.000 N 
ATOM     10  C   UNL     1      -0.277  10.693  22.073  0.00  0.00    +0.000 C 
ATOM     11  O   UNL     1      -0.988  11.606  22.458  0.00  0.00    +0.000 OA
ATOM     12  C   UNL     1      -0.207   9.401  22.822  0.00  0.00    +0.000 C 
ATOM     13  C   UNL     1      -0.056   8.241  21.843  0.00  0.00    +0.000 C 
ATOM     14  H   UNL     1       0.527  11.750  20.477  0.00  0.00    +0.000 HD
ENDBRANCH   4   7
BRANCH   1  16
ATOM     15  C   UNL     1       2.721   3.306  17.307  0.00  0.00    +0.000 C 
ATOM     16  N   UNL     1       3.607   4.405  17.700  0.00  0.00    +0.000 N 
BRANCH  16  17
ATOM     17  C   UNL     1       5.003   4.461  17.254  0.00  0.00    +0.000 A 
ATOM     18  C   UNL     1       5.368   4.380  15.881  0.00  0.00    +0.000 A 
ATOM     19  C   UNL     1       6.708   4.460  15.486  0.00  0.00    +0.000 A 
ATOM     20  N   UNL     1       7.687   4.619  16.406  0.00  0.00    +0.000 NA
ATOM     21  C   UNL     1       7.406   4.671  17.726  0.00  0.00    +0.000 A 
ATOM     22  C   UNL     1       6.087   4.570  18.172  0.00  0.00    +0.000 A 
ENDBRANCH  16  17
ENDBRANCH   1  16
TORSDOF 3
ENDMDL
MODEL 5
REMARK VINA RESULT:      -7.6      0.325      1.099
REMARK  Name = 
REMARK  4 active torsions:
REMARK  status: ('A' for Active; 'I' for Inactive)
REMARK    1  A    between atoms: C_1  and  N_2
REMARK    2  A    between atoms: N_2  and  C_3
REMARK    3  A    between atoms: N_2  and  C_9
REMARK    4  A    between atoms: C_12  and  C_13
REMARK                            x       y       z     vdW  Elec       q    Type
REMARK                         _______ _______ _______ _____ _____    ______ ____
ROOT
ATOM      1  C   UNL     1       3.115   5.264  18.750  0.00  0.00    +0.000 A 
ATOM      2  C   UNL     1       2.430   5.113  19.976  0.00  0.00    +0.000 A 
ATOM      3  C   UNL     1       1.763   6.184  20.568  0.00  0.00    +0.000 A 
ATOM      4  C   UNL     1       1.749   7.453  19.971  0.00  0.00    +0.000 A 
ATOM      5  C   UNL     1       2.383   7.602  18.723  0.00  0.00    +0.000 A 
ATOM      6  C   UNL     1       3.031   6.526  18.117  0.00  0.00    +0.000 A 
ENDROOT
BRANCH   4   7
ATOM      7  C   UNL     1       1.092   8.599  20.670  0.00  0.00    +0.000 C 
ATOM      8  N   UNL     1       0.892   8.496  21.950  0.00  0.00    +0.000 NA
ATOM      9  N   UNL     1       0.432   9.541  22.728  0.00  0.00    +0.000 N 
ATOM     10  C   UNL     1      -0.051  10.676  22.165  0.00  0.00    +0.000 C 
ATOM     11  O   UNL     1      -0.353  11.633  22.858  0.00  0.00    +0.000 OA
ATOM     12  C   UNL     1      -0.246  10.706  20.683  0.00  0.00    +0.000 C 
ATOM     13  C   UNL     1       0.886   9.948  19.995  0.00  0.00    +0.000 C 
ATOM     14  H   UNL     1       0.511   9.468  23.757  0.00  0.00    +0.000 HD
ENDBRANCH   4   7
BRANCH   1  16
ATOM     15  C   UNL     1       3.168   2.854  18.204  0.00  0.00    +0.000 C 
ATOM     16  N   UNL     1       3.846   4.152  18.171  0.00  0.00    +0.000 N 
BRANCH  16  17
ATOM     17  C   UNL     1       5.172   4.309  17.562  0.00  0.00    +0.000 A 
ATOM     18  C   UNL     1       5.383   4.208  16.159  0.00  0.00    +0.000 A 
ATOM     19  C   UNL     1       6.656   4.386  15.607  0.00  0.00    +0.000 A 
ATOM     20  N   UNL     1       7.716   4.661  16.401  0.00  0.00    +0.000 NA
ATOM     21  C   UNL     1       7.586   4.738  17.743  0.00  0.00    +0.000 A 
ATOM     22  C   UNL     1       6.340   4.542  18.344  0.00  0.00    +0.000 A 
ENDBRANCH  16  17
ENDBRANCH   1  16
TORSDOF 3
ENDMDL
MODEL 6
REMARK VINA RESULT:      -7.6      1.212      1.713
REMARK  Name = 
REMARK  4 active torsions:
REMARK  status: ('A' for Active; 'I' for Inactive)
REMARK    1  A    between atoms: C_1  and  N_2
REMARK    2  A    between atoms: N_2  and  C_3
REMARK    3  A    between atoms: N_2  and  C_9
REMARK    4  A    between atoms: C_12  and  C_13
REMARK                            x       y       z     vdW  Elec       q    Type
REMARK                         _______ _______ _______ _____ _____    ______ ____
ROOT
ATOM      1  C   UNL     1       2.836   6.092  18.495  0.00  0.00    +0.000 A 
ATOM      2  C   UNL     1       2.345   5.753  19.776  0.00  0.00    +0.000 A 
ATOM      3  C   UNL     1       1.681   6.689  20.567  0.00  0.00    +0.000 A 
ATOM      4  C   UNL     1       1.477   8.004  20.123  0.00  0.00    +0.000 A 
ATOM      5  C   UNL     1       1.915   8.338  18.828  0.00  0.00    +0.000 A 
ATOM      6  C   UNL     1       2.559   7.396  18.024  0.00  0.00    +0.000 A 
ENDROOT
BRANCH   4   7
ATOM      7  C   UNL     1       0.832   9.005  21.026  0.00  0.00    +0.000 C 
ATOM      8  N   UNL     1       1.005  10.264  20.760  0.00  0.00    +0.000 NA
ATOM      9  N   UNL     1       0.342  11.275  21.430  0.00  0.00    +0.000 N 
ATOM     10  C   UNL     1      -0.366  11.022  22.557  0.00  0.00    +0.000 C 
ATOM     11  O   UNL     1      -1.036  11.898  23.078  0.00  0.00    +0.000 OA
ATOM     12  C   UNL     1      -0.268   9.661  23.167  0.00  0.00    +0.000 C 
ATOM     13  C   UNL     1      -0.201   8.604  22.069  0.00  0.00    +0.000 C 
ATOM     14  H   UNL     1       0.348  12.227  21.025  0.00  0.00    +0.000 HD
ENDBRANCH   4   7
BRANCH   1  16
ATOM     15  C   UNL     1       2.894   3.840  17.479  0.00  0.00    +0.000 C 
ATOM     16  N   UNL     1       3.569   5.120  17.705  0.00  0.00    +0.000 N 
BRANCH  16  17
ATOM     17  C   UNL     1       4.893   5.399  17.139  0.00  0.00    +0.000 A 
ATOM     18  C   UNL     1       5.309   4.881  15.881  0.00  0.00    +0.000 A 
ATOM     19  C   UNL     1       6.570   5.184  15.358  0.00  0.00    +0.000 A 
ATOM     20  N   UNL     1       7.423   5.983  16.041  0.00  0.00    +0.000 NA
ATOM     21  C   UNL     1       7.099   6.479  17.254  0.00  0.00    +0.000 A 
ATOM     22  C   UNL     1       5.861   6.184  17.830  0.00  0.00    +0.000 A 
ENDBRANCH  16  17
ENDBRANCH   1  16
TORSDOF 3
ENDMDL
MODEL 7
REMARK VINA RESULT:      -7.5      0.915      1.829
REMARK  Name = 
REMARK  4 active torsions:
REMARK  status: ('A' for Active; 'I' for Inactive)
REMARK    1  A    between atoms: C_1  and  N_2
REMARK    2  A    between atoms: N_2  and  C_3
REMARK    3  A    between atoms: N_2  and  C_9
REMARK    4  A    between atoms: C_12  and  C_13
REMARK                            x       y       z     vdW  Elec       q    Type
REMARK                         _______ _______ _______ _____ _____    ______ ____
ROOT
ATOM      1  C   UNL     1       3.018   5.388  18.806  0.00  0.00    +0.000 A 
ATOM      2  C   UNL     1       2.317   5.204  20.019  0.00  0.00    +0.000 A 
ATOM      3  C   UNL     1       1.658   6.264  20.640  0.00  0.00    +0.000 A 
ATOM      4  C   UNL     1       1.668   7.553  20.086  0.00  0.00    +0.000 A 
ATOM      5  C   UNL     1       2.318   7.735  18.851  0.00  0.00    +0.000 A 
ATOM      6  C   UNL     1       2.958   6.671  18.215  0.00  0.00    +0.000 A 
ENDROOT
BRANCH   4   7
ATOM      7  C   UNL     1       1.019   8.684  20.817  0.00  0.00    +0.000 C 
ATOM      8  N   UNL     1       1.224   9.889  20.376  0.00  0.00    +0.000 NA
ATOM      9  N   UNL     1       0.563  10.996  20.874  0.00  0.00    +0.000 N 
ATOM     10  C   UNL     1      -0.179  10.920  22.006  0.00  0.00    +0.000 C 
ATOM     11  O   UNL     1      -0.844  11.873  22.376  0.00  0.00    +0.000 OA
ATOM     12  C   UNL     1      -0.123   9.660  22.809  0.00  0.00    +0.000 C 
ATOM     13  C   UNL     1      -0.048   8.454  21.877  0.00  0.00    +0.000 C 
ATOM     14  H   UNL     1       0.598  11.879  20.337  0.00  0.00    +0.000 HD
ENDBRANCH   4   7
BRANCH   1  16
ATOM     15  C   UNL     1       3.048   2.994  18.189  0.00  0.00    +0.000 C 
ATOM     16  N   UNL     1       3.740   4.285  18.197  0.00  0.00    +0.000 N 
BRANCH  16  17
ATOM     17  C   UNL     1       5.070   4.446  17.600  0.00  0.00    +0.000 A 
ATOM     18  C   UNL     1       6.226   4.730  18.379  0.00  0.00    +0.000 A 
ATOM     19  C   UNL     1       7.485   4.856  17.782  0.00  0.00    +0.000 A 
ATOM     20  N   UNL     1       7.628   4.706  16.445  0.00  0.00    +0.000 NA
ATOM     21  C   UNL     1       6.565   4.468  15.648  0.00  0.00    +0.000 A 
ATOM     22  C   UNL     1       5.284   4.360  16.194  0.00  0.00    +0.000 A 
ENDBRANCH  16  17
ENDBRANCH   1  16
TORSDOF 3
ENDMDL
MODEL 8
REMARK VINA RESULT:      -7.5      0.562      1.567
REMARK  Name = 
REMARK  4 active torsions:
REMARK  status: ('A' for Active; 'I' for Inactive)
REMARK    1  A    between atoms: C_1  and  N_2
REMARK    2  A    between atoms: N_2  and  C_3
REMARK    3  A    between atoms: N_2  and  C_9
REMARK    4  A    between atoms: C_12  and  C_13
REMARK                            x       y       z     vdW  Elec       q    Type
REMARK                         _______ _______ _______ _____ _____    ______ ____
ROOT
ATOM      1  C   UNL     1       3.159   5.202  19.114  0.00  0.00    +0.000 A 
ATOM      2  C   UNL     1       2.339   5.041  20.253  0.00  0.00    +0.000 A 
ATOM      3  C   UNL     1       1.635   6.116  20.794  0.00  0.00    +0.000 A 
ATOM      4  C   UNL     1       1.716   7.398  20.230  0.00  0.00    +0.000 A 
ATOM      5  C   UNL     1       2.488   7.558  19.064  0.00  0.00    +0.000 A 
ATOM      6  C   UNL     1       3.175   6.479  18.506  0.00  0.00    +0.000 A 
ENDROOT
BRANCH   4   7
ATOM      7  C   UNL     1       1.012   8.545  20.880  0.00  0.00    +0.000 C 
ATOM      8  N   UNL     1       0.844   8.503  22.168  0.00  0.00    +0.000 NA
ATOM      9  N   UNL     1       0.344   9.565  22.897  0.00  0.00    +0.000 N 
ATOM     10  C   UNL     1      -0.212  10.638  22.284  0.00  0.00    +0.000 C 
ATOM     11  O   UNL     1      -0.551  11.615  22.930  0.00  0.00    +0.000 OA
ATOM     12  C   UNL     1      -0.439  10.573  20.808  0.00  0.00    +0.000 C 
ATOM     13  C   UNL     1       0.719   9.840  20.137  0.00  0.00    +0.000 C 
ATOM     14  H   UNL     1       0.448   9.554  23.927  0.00  0.00    +0.000 HD
ENDBRANCH   4   7
BRANCH   1  16
ATOM     15  C   UNL     1       3.388   2.752  18.879  0.00  0.00    +0.000 C 
ATOM     16  N   UNL     1       3.925   4.085  18.592  0.00  0.00    +0.000 N 
BRANCH  16  17
ATOM     17  C   UNL     1       5.148   4.265  17.802  0.00  0.00    +0.000 A 
ATOM     18  C   UNL     1       6.391   4.622  18.394  0.00  0.00    +0.000 A 
ATOM     19  C   UNL     1       7.545   4.764  17.616  0.00  0.00    +0.000 A 
ATOM     20  N   UNL     1       7.501   4.562  16.279  0.00  0.00    +0.000 NA
ATOM     21  C   UNL     1       6.344   4.254  15.655  0.00  0.00    +0.000 A 
ATOM     22  C   UNL     1       5.161   4.125  16.385  0.00  0.00    +0.000 A 
ENDBRANCH  16  17
ENDBRANCH   1  16
TORSDOF 3
ENDMDL
MODEL 9
REMARK VINA RESULT:      -7.5      3.750      8.013
REMARK  Name = 
REMARK  4 active torsions:
REMARK  status: ('A' for Active; 'I' for Inactive)
REMARK    1  A    between atoms: C_1  and  N_2
REMARK    2  A    between atoms: N_2  and  C_3
REMARK    3  A    between atoms: N_2  and  C_9
REMARK    4  A    between atoms: C_12  and  C_13
REMARK                            x       y       z     vdW  Elec       q    Type
REMARK                         _______ _______ _______ _____ _____    ______ ____
ROOT
ATOM      1  C   UNL     1       1.167   9.474  19.034  0.00  0.00    +0.000 A 
ATOM      2  C   UNL     1       1.084   8.798  20.272  0.00  0.00    +0.000 A 
ATOM      3  C   UNL     1       1.680   7.552  20.457  0.00  0.00    +0.000 A 
ATOM      4  C   UNL     1       2.382   6.919  19.420  0.00  0.00    +0.000 A 
ATOM      5  C   UNL     1       2.516   7.607  18.200  0.00  0.00    +0.000 A 
ATOM      6  C   UNL     1       1.941   8.865  18.019  0.00  0.00    +0.000 A 
ENDROOT
BRANCH   4   7
ATOM      7  C   UNL     1       2.941   5.548  19.626  0.00  0.00    +0.000 C 
ATOM      8  N   UNL     1       4.074   5.263  19.058  0.00  0.00    +0.000 NA
ATOM      9  N   UNL     1       4.761   4.087  19.295  0.00  0.00    +0.000 N 
ATOM     10  C   UNL     1       4.184   3.060  19.965  0.00  0.00    +0.000 C 
ATOM     11  O   UNL     1       4.833   2.072  20.263  0.00  0.00    +0.000 OA
ATOM     12  C   UNL     1       2.727   3.152  20.288  0.00  0.00    +0.000 C 
ATOM     13  C   UNL     1       2.367   4.588  20.658  0.00  0.00    +0.000 C 
ATOM     14  H   UNL     1       5.750   4.021  18.997  0.00  0.00    +0.000 HD
ENDBRANCH   4   7
BRANCH   1  16
ATOM     15  C   UNL     1       1.344  11.939  18.968  0.00  0.00    +0.000 C 
ATOM     16  N   UNL     1       0.499  10.749  18.843  0.00  0.00    +0.000 N 
BRANCH  16  17
ATOM     17  C   UNL     1      -0.927  10.852  18.517  0.00  0.00    +0.000 A 
ATOM     18  C   UNL     1      -1.553  10.006  17.559  0.00  0.00    +0.000 A 
ATOM     19  C   UNL     1      -2.921  10.114  17.287  0.00  0.00    +0.000 A 
ATOM     20  N   UNL     1      -3.680  11.028  17.935  0.00  0.00    +0.000 NA
ATOM     21  C   UNL     1      -3.138  11.881  18.831  0.00  0.00    +0.000 A 
ATOM     22  C   UNL     1      -1.772  11.829  19.118  0.00  0.00    +0.000 A 
ENDBRANCH  16  17
ENDBRANCH   1  16
TORSDOF 3
ENDMDL
