MODEL 1
REMARK VINA RESULT:      -6.2      0.000      0.000
REMARK  Name = 
REMARK  8 active torsions:
REMARK  status: ('A' for Active; 'I' for Inactive)
REMARK    1  A    between atoms: C_1  and  O_2
REMARK    2  A    between atoms: O_2  and  C_3
REMARK    3  A    between atoms: C_8  and  O_9
REMARK    4  A    between atoms: O_9  and  C_10
REMARK    5  A    between atoms: C_13  and  N_14
REMARK    6  A    between atoms: N_14  and  C_15
REMARK    7  A    between atoms: N_14  and  C_16
REMARK    8  A    between atoms: N_22  and  C_23
REMARK                            x       y       z     vdW  Elec       q    Type
REMARK                         _______ _______ _______ _____ _____    ______ ____
ROOT
ATOM      1  C   UNL     1      -3.289  10.805  17.159  0.00  0.00    +0.000 A 
ATOM      2  C   UNL     1      -4.670  10.736  17.274  0.00  0.00    +0.000 A 
ATOM      3  C   UNL     1      -5.309  11.317  18.358  0.00  0.00    +0.000 A 
ATOM      4  C   UNL     1      -4.582  12.000  19.363  0.00  0.00    +0.000 A 
ATOM      5  C   UNL     1      -3.167  12.118  19.293  0.00  0.00    +0.000 A 
ATOM      6  C   UNL     1      -2.530  11.486  18.160  0.00  0.00    +0.000 A 
ATOM      7  C   UNL     1      -2.453  12.895  20.382  0.00  0.00    +0.000 A 
ATOM      8  C   UNL     1      -1.045  13.080  20.480  0.00  0.00    +0.000 A 
ATOM      9  C   UNL     1      -0.378  13.804  21.494  0.00  0.00    +0.000 A 
ATOM     10  C   UNL     1      -1.182  14.377  22.474  0.00  0.00    +0.000 A 
ATOM     11  C   UNL     1      -2.560  14.217  22.448  0.00  0.00    +0.000 A 
ATOM     12  C   UNL     1      -3.191  13.480  21.427  0.00  0.00    +0.000 A 
ATOM     13  C   UNL     1      -4.664  13.266  21.603  0.00  0.00    +0.000 C 
ATOM     14  C   UNL     1      -5.449  12.624  20.454  0.00  0.00    +0.000 C 
ATOM     15  N   UNL     1      -6.445  11.645  20.989  0.00  0.00    +0.000 NA
ATOM     16  C   UNL     1      -7.407  12.208  21.931  0.00  0.00    +0.000 C 
ATOM     17  C   UNL     1      -7.129  10.846  19.960  0.00  0.00    +0.000 C 
ATOM     18  C   UNL     1      -6.803  11.219  18.513  0.00  0.00    +0.000 C 
ENDROOT
BRANCH   9  19
ATOM     19  N   UNL     1       1.002  13.983  21.525  0.00  0.00    +0.000 N 
ATOM     20  C   UNL     1       1.872  13.134  20.713  0.00  0.00    +0.000 C 
ATOM     21  C   UNL     1       1.603  15.230  21.982  0.00  0.00    +0.000 C 
ENDBRANCH   9  19
BRANCH   1  23
ATOM     22  C   UNL     1      -3.132  10.364  14.810  0.00  0.00    +0.000 C 
ATOM     23  O   UNL     1      -2.633  10.182  16.129  0.00  0.00    +0.000 OA
ENDBRANCH   1  23
BRANCH   6  24
ATOM     24  O   UNL     1      -1.166  11.628  18.094  0.00  0.00    +0.000 OA
ATOM     25  C   UNL     1      -0.273  10.566  18.385  0.00  0.00    +0.000 C 
ENDBRANCH   6  24
TORSDOF 3
ENDMDL
MODEL 2
REMARK VINA RESULT:      -6.1      1.749      5.138
REMARK  Name = 
REMARK  8 active torsions:
REMARK  status: ('A' for Active; 'I' for Inactive)
REMARK    1  A    between atoms: C_1  and  O_2
REMARK    2  A    between atoms: O_2  and  C_3
REMARK    3  A    between atoms: C_8  and  O_9
REMARK    4  A    between atoms: O_9  and  C_10
REMARK    5  A    between atoms: C_13  and  N_14
REMARK    6  A    between atoms: N_14  and  C_15
REMARK    7  A    between atoms: N_14  and  C_16
REMARK    8  A    between atoms: N_22  and  C_23
REMARK                            x       y       z     vdW  Elec       q    Type
REMARK                         _______ _______ _______ _____ _____    ______ ____
ROOT
ATOM      1  C   UNL     1      -3.310  10.640  16.827  0.00  0.00    +0.000 A 
ATOM      2  C   UNL     1      -2.014  10.172  16.987  0.00  0.00    +0.000 A 
ATOM      3  C   UNL     1      -1.280  10.522  18.110  0.00  0.00    +0.000 A 
ATOM      4  C   UNL     1      -1.828  11.349  19.119  0.00  0.00    +0.000 A 
ATOM      5  C   UNL     1      -3.155  11.847  19.020  0.00  0.00    +0.000 A 
ATOM      6  C   UNL     1      -3.887  11.478  17.829  0.00  0.00    +0.000 A 
ATOM      7  C   UNL     1      -3.694  12.696  20.155  0.00  0.00    +0.000 A 
ATOM      8  C   UNL     1      -4.984  13.298  20.200  0.00  0.00    +0.000 A 
ATOM      9  C   UNL     1      -5.488  14.090  21.256  0.00  0.00    +0.000 A 
ATOM     10  C   UNL     1      -4.636  14.289  22.338  0.00  0.00    +0.000 A 
ATOM     11  C   UNL     1      -3.359  13.748  22.349  0.00  0.00    +0.000 A 
ATOM     12  C   UNL     1      -2.885  12.972  21.273  0.00  0.00    +0.000 A 
ATOM     13  C   UNL     1      -1.442  12.574  21.351  0.00  0.00    +0.000 C 
ATOM     14  C   UNL     1      -0.901  11.590  20.309  0.00  0.00    +0.000 C 
ATOM     15  N   UNL     1       0.465  12.006  19.863  0.00  0.00    +0.000 NA
ATOM     16  C   UNL     1       1.450  12.112  20.934  0.00  0.00    +0.000 C 
ATOM     17  C   UNL     1       1.003  11.226  18.736  0.00  0.00    +0.000 C 
ATOM     18  C   UNL     1       0.140  10.051  18.278  0.00  0.00    +0.000 C 
ENDROOT
BRANCH   9  19
ATOM     19  N   UNL     1      -6.771  14.628  21.265  0.00  0.00    +0.000 N 
ATOM     20  C   UNL     1      -7.810  14.066  20.402  0.00  0.00    +0.000 C 
ATOM     21  C   UNL     1      -7.259  15.431  22.379  0.00  0.00    +0.000 C 
ENDBRANCH   9  19
BRANCH   1  23
ATOM     22  C   UNL     1      -3.319  10.181  14.476  0.00  0.00    +0.000 C 
ATOM     23  O   UNL     1      -4.030  10.357  15.695  0.00  0.00    +0.000 OA
ENDBRANCH   1  23
BRANCH   6  24
ATOM     24  O   UNL     1      -5.175  11.948  17.759  0.00  0.00    +0.000 OA
ATOM     25  C   UNL     1      -6.302  11.128  18.017  0.00  0.00    +0.000 C 
ENDBRANCH   6  24
TORSDOF 3
ENDMDL
MODEL 3
REMARK VINA RESULT:      -6.0      3.864      5.277
REMARK  Name = 
REMARK  8 active torsions:
REMARK  status: ('A' for Active; 'I' for Inactive)
REMARK    1  A    between atoms: C_1  and  O_2
REMARK    2  A    between atoms: O_2  and  C_3
REMARK    3  A    between atoms: C_8  and  O_9
REMARK    4  A    between atoms: O_9  and  C_10
REMARK    5  A    between atoms: C_13  and  N_14
REMARK    6  A    between atoms: N_14  and  C_15
REMARK    7  A    between atoms: N_14  and  C_16
REMARK    8  A    between atoms: N_22  and  C_23
REMARK                            x       y       z     vdW  Elec       q    Type
REMARK                         _______ _______ _______ _____ _____    ______ ____
ROOT
ATOM      1  C   UNL     1      -0.388  14.885  19.497  0.00  0.00    +0.000 A 
ATOM      2  C   UNL     1      -1.196  15.473  20.460  0.00  0.00    +0.000 A 
ATOM      3  C   UNL     1      -1.653  14.727  21.535  0.00  0.00    +0.000 A 
ATOM      4  C   UNL     1      -1.304  13.364  21.687  0.00  0.00    +0.000 A 
ATOM      5  C   UNL     1      -0.467  12.710  20.743  0.00  0.00    +0.000 A 
ATOM      6  C   UNL     1      -0.022  13.510  19.624  0.00  0.00    +0.000 A 
ATOM      7  C   UNL     1      -0.101  11.259  20.986  0.00  0.00    +0.000 A 
ATOM      8  C   UNL     1       0.697  10.451  20.127  0.00  0.00    +0.000 A 
ATOM      9  C   UNL     1       1.040   9.098  20.352  0.00  0.00    +0.000 A 
ATOM     10  C   UNL     1       0.545   8.522  21.518  0.00  0.00    +0.000 A 
ATOM     11  C   UNL     1      -0.256   9.248  22.387  0.00  0.00    +0.000 A 
ATOM     12  C   UNL     1      -0.586  10.593  22.126  0.00  0.00    +0.000 A 
ATOM     13  C   UNL     1      -1.573  11.209  23.071  0.00  0.00    +0.000 C 
ATOM     14  C   UNL     1      -1.850  12.711  22.956  0.00  0.00    +0.000 C 
ATOM     15  N   UNL     1      -3.311  12.983  23.126  0.00  0.00    +0.000 NA
ATOM     16  C   UNL     1      -3.875  12.518  24.388  0.00  0.00    +0.000 C 
ATOM     17  C   UNL     1      -3.708  14.376  22.860  0.00  0.00    +0.000 C 
ATOM     18  C   UNL     1      -2.560  15.342  22.567  0.00  0.00    +0.000 C 
ENDROOT
BRANCH   9  19
ATOM     19  N   UNL     1       1.852   8.362  19.495  0.00  0.00    +0.000 N 
ATOM     20  C   UNL     1       2.229   6.991  19.835  0.00  0.00    +0.000 C 
ATOM     21  C   UNL     1       2.001   8.715  18.088  0.00  0.00    +0.000 C 
ENDBRANCH   9  19
BRANCH   1  23
ATOM     22  C   UNL     1       0.751  16.791  18.598  0.00  0.00    +0.000 C 
ATOM     23  O   UNL     1       0.022  15.588  18.393  0.00  0.00    +0.000 OA
ENDBRANCH   1  23
BRANCH   6  24
ATOM     24  O   UNL     1       0.804  12.872  18.734  0.00  0.00    +0.000 OA
ATOM     25  C   UNL     1       2.180  13.189  18.606  0.00  0.00    +0.000 C 
ENDBRANCH   6  24
TORSDOF 3
ENDMDL
MODEL 4
REMARK VINA RESULT:      -6.0      1.613      5.288
REMARK  Name = 
REMARK  8 active torsions:
REMARK  status: ('A' for Active; 'I' for Inactive)
REMARK    1  A    between atoms: C_1  and  O_2
REMARK    2  A    between atoms: O_2  and  C_3
REMARK    3  A    between atoms: C_8  and  O_9
REMARK    4  A    between atoms: O_9  and  C_10
REMARK    5  A    between atoms: C_13  and  N_14
REMARK    6  A    between atoms: N_14  and  C_15
REMARK    7  A    between atoms: N_14  and  C_16
REMARK    8  A    between atoms: N_22  and  C_23
REMARK                            x       y       z     vdW  Elec       q    Type
REMARK                         _______ _______ _______ _____ _____    ______ ____
ROOT
ATOM      1  C   UNL     1      -2.659  10.244  17.232  0.00  0.00    +0.000 A 
ATOM      2  C   UNL     1      -1.297  10.046  17.400  0.00  0.00    +0.000 A 
ATOM      3  C   UNL     1      -0.619  10.694  18.421  0.00  0.00    +0.000 A 
ATOM      4  C   UNL     1      -1.290  11.558  19.318  0.00  0.00    +0.000 A 
ATOM      5  C   UNL     1      -2.688  11.790  19.208  0.00  0.00    +0.000 A 
ATOM      6  C   UNL     1      -3.362  11.113  18.122  0.00  0.00    +0.000 A 
ATOM      7  C   UNL     1      -3.352  12.697  20.225  0.00  0.00    +0.000 A 
ATOM      8  C   UNL     1      -4.729  13.059  20.239  0.00  0.00    +0.000 A 
ATOM      9  C   UNL     1      -5.350  13.904  21.186  0.00  0.00    +0.000 A 
ATOM     10  C   UNL     1      -4.529  14.420  22.184  0.00  0.00    +0.000 A 
ATOM     11  C   UNL     1      -3.174  14.124  22.216  0.00  0.00    +0.000 A 
ATOM     12  C   UNL     1      -2.586  13.285  21.248  0.00  0.00    +0.000 A 
ATOM     13  C   UNL     1      -1.093  13.168  21.318  0.00  0.00    +0.000 C 
ATOM     14  C   UNL     1      -0.400  12.144  20.412  0.00  0.00    +0.000 C 
ATOM     15  N   UNL     1       0.857  12.722  19.845  0.00  0.00    +0.000 NA
ATOM     16  C   UNL     1       1.826  13.170  20.840  0.00  0.00    +0.000 C 
ATOM     17  C   UNL     1       1.508  11.883  18.825  0.00  0.00    +0.000 C 
ATOM     18  C   UNL     1       0.867  10.515  18.591  0.00  0.00    +0.000 C 
ENDROOT
BRANCH   9  19
ATOM     19  N   UNL     1      -6.709  14.199  21.173  0.00  0.00    +0.000 N 
ATOM     20  C   UNL     1      -7.212  15.383  21.868  0.00  0.00    +0.000 C 
ATOM     21  C   UNL     1      -7.605  13.646  20.164  0.00  0.00    +0.000 C 
ENDBRANCH   9  19
BRANCH   1  23
ATOM     22  C   UNL     1      -3.018  10.080  14.870  0.00  0.00    +0.000 C 
ATOM     23  O   UNL     1      -3.336   9.663  16.191  0.00  0.00    +0.000 OA
ENDBRANCH   1  23
BRANCH   6  24
ATOM     24  O   UNL     1      -4.715  11.329  18.043  0.00  0.00    +0.000 OA
ATOM     25  C   UNL     1      -5.308  12.085  17.001  0.00  0.00    +0.000 C 
ENDBRANCH   6  24
TORSDOF 3
ENDMDL
MODEL 5
REMARK VINA RESULT:      -6.0      0.742      1.043
REMARK  Name = 
REMARK  8 active torsions:
REMARK  status: ('A' for Active; 'I' for Inactive)
REMARK    1  A    between atoms: C_1  and  O_2
REMARK    2  A    between atoms: O_2  and  C_3
REMARK    3  A    between atoms: C_8  and  O_9
REMARK    4  A    between atoms: O_9  and  C_10
REMARK    5  A    between atoms: C_13  and  N_14
REMARK    6  A    between atoms: N_14  and  C_15
REMARK    7  A    between atoms: N_14  and  C_16
REMARK    8  A    between atoms: N_22  and  C_23
REMARK                            x       y       z     vdW  Elec       q    Type
REMARK                         _______ _______ _______ _____ _____    ______ ____
ROOT
ATOM      1  C   UNL     1      -3.195  11.124  17.295  0.00  0.00    +0.000 A 
ATOM      2  C   UNL     1      -4.544  10.802  17.325  0.00  0.00    +0.000 A 
ATOM      3  C   UNL     1      -5.342  11.239  18.370  0.00  0.00    +0.000 A 
ATOM      4  C   UNL     1      -4.814  12.027  19.420  0.00  0.00    +0.000 A 
ATOM      5  C   UNL     1      -3.443  12.403  19.438  0.00  0.00    +0.000 A 
ATOM      6  C   UNL     1      -2.634  11.916  18.343  0.00  0.00    +0.000 A 
ATOM      7  C   UNL     1      -2.950  13.281  20.572  0.00  0.00    +0.000 A 
ATOM      8  C   UNL     1      -1.608  13.719  20.758  0.00  0.00    +0.000 A 
ATOM      9  C   UNL     1      -1.147  14.537  21.814  0.00  0.00    +0.000 A 
ATOM     10  C   UNL     1      -2.100  14.938  22.745  0.00  0.00    +0.000 A 
ATOM     11  C   UNL     1      -3.421  14.529  22.634  0.00  0.00    +0.000 A 
ATOM     12  C   UNL     1      -3.844  13.705  21.573  0.00  0.00    +0.000 A 
ATOM     13  C   UNL     1      -5.261  13.223  21.656  0.00  0.00    +0.000 C 
ATOM     14  C   UNL     1      -5.844  12.466  20.458  0.00  0.00    +0.000 C 
ATOM     15  N   UNL     1      -6.673  11.313  20.928  0.00  0.00    +0.000 NA
ATOM     16  C   UNL     1      -7.777  11.675  21.811  0.00  0.00    +0.000 C 
ATOM     17  C   UNL     1      -7.137  10.418  19.854  0.00  0.00    +0.000 C 
ATOM     18  C   UNL     1      -6.799  10.867  18.433  0.00  0.00    +0.000 C 
ENDROOT
BRANCH   9  19
ATOM     19  N   UNL     1       0.172  14.965  21.930  0.00  0.00    +0.000 N 
ATOM     20  C   UNL     1       0.524  16.014  22.885  0.00  0.00    +0.000 C 
ATOM     21  C   UNL     1       1.288  14.145  21.472  0.00  0.00    +0.000 C 
ENDBRANCH   9  19
BRANCH   1  23
ATOM     22  C   UNL     1      -2.978  10.157  15.114  0.00  0.00    +0.000 C 
ATOM     23  O   UNL     1      -2.375  10.648  16.304  0.00  0.00    +0.000 OA
ENDBRANCH   1  23
BRANCH   6  24
ATOM     24  O   UNL     1      -1.319  12.306  18.362  0.00  0.00    +0.000 OA
ATOM     25  C   UNL     1      -0.264  11.420  18.695  0.00  0.00    +0.000 C 
ENDBRANCH   6  24
TORSDOF 3
ENDMDL
MODEL 6
REMARK VINA RESULT:      -5.8      1.649      5.405
REMARK  Name = 
REMARK  8 active torsions:
REMARK  status: ('A' for Active; 'I' for Inactive)
REMARK    1  A    between atoms: C_1  and  O_2
REMARK    2  A    between atoms: O_2  and  C_3
REMARK    3  A    between atoms: C_8  and  O_9
REMARK    4  A    between atoms: O_9  and  C_10
REMARK    5  A    between atoms: C_13  and  N_14
REMARK    6  A    between atoms: N_14  and  C_15
REMARK    7  A    between atoms: N_14  and  C_16
REMARK    8  A    between atoms: N_22  and  C_23
REMARK                            x       y       z     vdW  Elec       q    Type
REMARK                         _______ _______ _______ _____ _____    ______ ____
ROOT
ATOM      1  C   UNL     1      -3.076  11.465  17.710  0.00  0.00    +0.000 A 
ATOM      2  C   UNL     1      -1.704  11.646  17.609  0.00  0.00    +0.000 A 
ATOM      3  C   UNL     1      -0.993  12.185  18.670  0.00  0.00    +0.000 A 
ATOM      4  C   UNL     1      -1.635  12.553  19.876  0.00  0.00    +0.000 A 
ATOM      5  C   UNL     1      -3.035  12.377  20.047  0.00  0.00    +0.000 A 
ATOM      6  C   UNL     1      -3.750  11.829  18.916  0.00  0.00    +0.000 A 
ATOM      7  C   UNL     1      -3.653  12.755  21.378  0.00  0.00    +0.000 A 
ATOM      8  C   UNL     1      -5.037  12.674  21.702  0.00  0.00    +0.000 A 
ATOM      9  C   UNL     1      -5.616  13.026  22.942  0.00  0.00    +0.000 A 
ATOM     10  C   UNL     1      -4.742  13.492  23.920  0.00  0.00    +0.000 A 
ATOM     11  C   UNL     1      -3.385  13.616  23.662  0.00  0.00    +0.000 A 
ATOM     12  C   UNL     1      -2.843  13.265  22.410  0.00  0.00    +0.000 A 
ATOM     13  C   UNL     1      -1.391  13.585  22.223  0.00  0.00    +0.000 C 
ATOM     14  C   UNL     1      -0.692  13.080  20.956  0.00  0.00    +0.000 C 
ATOM     15  N   UNL     1       0.226  14.130  20.417  0.00  0.00    +0.000 NA
ATOM     16  C   UNL     1       1.254  14.579  21.350  0.00  0.00    +0.000 C 
ATOM     17  C   UNL     1       0.815  13.812  19.106  0.00  0.00    +0.000 C 
ATOM     18  C   UNL     1       0.490  12.421  18.560  0.00  0.00    +0.000 C 
ENDROOT
BRANCH   9  19
ATOM     19  N   UNL     1      -6.973  12.895  23.218  0.00  0.00    +0.000 N 
ATOM     20  C   UNL     1      -7.582  13.667  24.299  0.00  0.00    +0.000 C 
ATOM     21  C   UNL     1      -7.908  12.363  22.234  0.00  0.00    +0.000 C 
ENDBRANCH   9  19
BRANCH   1  23
ATOM     22  C   UNL     1      -3.159  10.871  15.391  0.00  0.00    +0.000 C 
ATOM     23  O   UNL     1      -3.807  10.992  16.651  0.00  0.00    +0.000 OA
ENDBRANCH   1  23
BRANCH   6  24
ATOM     24  O   UNL     1      -5.097  11.643  19.104  0.00  0.00    +0.000 OA
ATOM     25  C   UNL     1      -6.075  12.431  18.446  0.00  0.00    +0.000 C 
ENDBRANCH   6  24
TORSDOF 3
ENDMDL
MODEL 7
REMARK VINA RESULT:      -5.7      2.626      5.027
REMARK  Name = 
REMARK  8 active torsions:
REMARK  status: ('A' for Active; 'I' for Inactive)
REMARK    1  A    between atoms: C_1  and  O_2
REMARK    2  A    between atoms: O_2  and  C_3
REMARK    3  A    between atoms: C_8  and  O_9
REMARK    4  A    between atoms: O_9  and  C_10
REMARK    5  A    between atoms: C_13  and  N_14
REMARK    6  A    between atoms: N_14  and  C_15
REMARK    7  A    between atoms: N_14  and  C_16
REMARK    8  A    between atoms: N_22  and  C_23
REMARK                            x       y       z     vdW  Elec       q    Type
REMARK                         _______ _______ _______ _____ _____    ______ ____
ROOT
ATOM      1  C   UNL     1      -3.682  14.094  22.425  0.00  0.00    +0.000 A 
ATOM      2  C   UNL     1      -4.992  14.407  22.092  0.00  0.00    +0.000 A 
ATOM      3  C   UNL     1      -5.551  13.914  20.924  0.00  0.00    +0.000 A 
ATOM      4  C   UNL     1      -4.815  13.078  20.051  0.00  0.00    +0.000 A 
ATOM      5  C   UNL     1      -3.474  12.708  20.345  0.00  0.00    +0.000 A 
ATOM      6  C   UNL     1      -2.915  13.254  21.561  0.00  0.00    +0.000 A 
ATOM      7  C   UNL     1      -2.756  11.779  19.387  0.00  0.00    +0.000 A 
ATOM      8  C   UNL     1      -1.408  11.339  19.514  0.00  0.00    +0.000 A 
ATOM      9  C   UNL     1      -0.736  10.472  18.622  0.00  0.00    +0.000 A 
ATOM     10  C   UNL     1      -1.471  10.020  17.530  0.00  0.00    +0.000 A 
ATOM     11  C   UNL     1      -2.782  10.427  17.337  0.00  0.00    +0.000 A 
ATOM     12  C   UNL     1      -3.418  11.301  18.241  0.00  0.00    +0.000 A 
ATOM     13  C   UNL     1      -4.781  11.771  17.833  0.00  0.00    +0.000 C 
ATOM     14  C   UNL     1      -5.603  12.583  18.840  0.00  0.00    +0.000 C 
ATOM     15  N   UNL     1      -6.307  13.707  18.148  0.00  0.00    +0.000 NA
ATOM     16  C   UNL     1      -7.198  13.296  17.068  0.00  0.00    +0.000 C 
ATOM     17  C   UNL     1      -6.984  14.652  19.052  0.00  0.00    +0.000 C 
ATOM     18  C   UNL     1      -6.959  14.276  20.533  0.00  0.00    +0.000 C 
ENDROOT
BRANCH   9  19
ATOM     19  N   UNL     1       0.575  10.046  18.811  0.00  0.00    +0.000 N 
ATOM     20  C   UNL     1       1.142   9.986  20.158  0.00  0.00    +0.000 C 
ATOM     21  C   UNL     1       1.276   9.254  17.808  0.00  0.00    +0.000 C 
ENDBRANCH   9  19
BRANCH   1  23
ATOM     22  C   UNL     1      -3.533  14.167  24.815  0.00  0.00    +0.000 C 
ATOM     23  O   UNL     1      -3.090  14.623  23.543  0.00  0.00    +0.000 OA
ENDBRANCH   1  23
BRANCH   6  24
ATOM     24  O   UNL     1      -1.628  12.870  21.843  0.00  0.00    +0.000 OA
ATOM     25  C   UNL     1      -1.321  11.874  22.803  0.00  0.00    +0.000 C 
ENDBRANCH   6  24
TORSDOF 3
ENDMDL
MODEL 8
REMARK VINA RESULT:      -5.7      2.126      3.456
REMARK  Name = 
REMARK  8 active torsions:
REMARK  status: ('A' for Active; 'I' for Inactive)
REMARK    1  A    between atoms: C_1  and  O_2
REMARK    2  A    between atoms: O_2  and  C_3
REMARK    3  A    between atoms: C_8  and  O_9
REMARK    4  A    between atoms: O_9  and  C_10
REMARK    5  A    between atoms: C_13  and  N_14
REMARK    6  A    between atoms: N_14  and  C_15
REMARK    7  A    between atoms: N_14  and  C_16
REMARK    8  A    between atoms: N_22  and  C_23
REMARK                            x       y       z     vdW  Elec       q    Type
REMARK                         _______ _______ _______ _____ _____    ______ ____
ROOT
ATOM      1  C   UNL     1      -5.448  12.479  18.509  0.00  0.00    +0.000 A 
ATOM      2  C   UNL     1      -6.187  12.926  19.595  0.00  0.00    +0.000 A 
ATOM      3  C   UNL     1      -5.594  13.040  20.842  0.00  0.00    +0.000 A 
ATOM      4  C   UNL     1      -4.230  12.719  21.042  0.00  0.00    +0.000 A 
ATOM      5  C   UNL     1      -3.416  12.271  19.966  0.00  0.00    +0.000 A 
ATOM      6  C   UNL     1      -4.069  12.145  18.683  0.00  0.00    +0.000 A 
ATOM      7  C   UNL     1      -1.954  11.981  20.240  0.00  0.00    +0.000 A 
ATOM      8  C   UNL     1      -1.013  11.496  19.288  0.00  0.00    +0.000 A 
ATOM      9  C   UNL     1       0.351  11.225  19.541  0.00  0.00    +0.000 A 
ATOM     10  C   UNL     1       0.795  11.456  20.840  0.00  0.00    +0.000 A 
ATOM     11  C   UNL     1      -0.075  11.908  21.820  0.00  0.00    +0.000 A 
ATOM     12  C   UNL     1      -1.432  12.159  21.535  0.00  0.00    +0.000 A 
ATOM     13  C   UNL     1      -2.287  12.503  22.717  0.00  0.00    +0.000 C 
ATOM     14  C   UNL     1      -3.729  12.954  22.465  0.00  0.00    +0.000 C 
ATOM     15  N   UNL     1      -4.647  12.344  23.477  0.00  0.00    +0.000 NA
ATOM     16  C   UNL     1      -4.316  12.651  24.864  0.00  0.00    +0.000 C 
ATOM     17  C   UNL     1      -6.078  12.575  23.219  0.00  0.00    +0.000 C 
ATOM     18  C   UNL     1      -6.395  13.489  22.036  0.00  0.00    +0.000 C 
ENDROOT
BRANCH   9  19
ATOM     19  N   UNL     1       1.238  10.783  18.564  0.00  0.00    +0.000 N 
ATOM     20  C   UNL     1       2.319  11.653  18.104  0.00  0.00    +0.000 C 
ATOM     21  C   UNL     1       1.419   9.365  18.278  0.00  0.00    +0.000 C 
ENDBRANCH   9  19
BRANCH   1  23
ATOM     22  C   UNL     1      -6.980  13.261  16.843  0.00  0.00    +0.000 C 
ATOM     23  O   UNL     1      -6.031  12.298  17.282  0.00  0.00    +0.000 OA
ENDBRANCH   1  23
BRANCH   6  24
ATOM     24  O   UNL     1      -3.265  11.734  17.649  0.00  0.00    +0.000 OA
ATOM     25  C   UNL     1      -3.395  10.460  17.041  0.00  0.00    +0.000 C 
ENDBRANCH   6  24
TORSDOF 3
ENDMDL
MODEL 9
REMARK VINA RESULT:      -5.7      2.209      5.586
REMARK  Name = 
REMARK  8 active torsions:
REMARK  status: ('A' for Active; 'I' for Inactive)
REMARK    1  A    between atoms: C_1  and  O_2
REMARK    2  A    between atoms: O_2  and  C_3
REMARK    3  A    between atoms: C_8  and  O_9
REMARK    4  A    between atoms: O_9  and  C_10
REMARK    5  A    between atoms: C_13  and  N_14
REMARK    6  A    between atoms: N_14  and  C_15
REMARK    7  A    between atoms: N_14  and  C_16
REMARK    8  A    between atoms: N_22  and  C_23
REMARK                            x       y       z     vdW  Elec       q    Type
REMARK                         _______ _______ _______ _____ _____    ______ ____
ROOT
ATOM      1  C   UNL     1      -0.522  13.698  22.363  0.00  0.00    +0.000 A 
ATOM      2  C   UNL     1      -1.245  14.158  23.454  0.00  0.00    +0.000 A 
ATOM      3  C   UNL     1      -2.629  14.084  23.454  0.00  0.00    +0.000 A 
ATOM      4  C   UNL     1      -3.337  13.533  22.359  0.00  0.00    +0.000 A 
ATOM      5  C   UNL     1      -2.652  13.030  21.220  0.00  0.00    +0.000 A 
ATOM      6  C   UNL     1      -1.211  13.139  21.243  0.00  0.00    +0.000 A 
ATOM      7  C   UNL     1      -3.469  12.419  20.099  0.00  0.00    +0.000 A 
ATOM      8  C   UNL     1      -2.947  11.901  18.879  0.00  0.00    +0.000 A 
ATOM      9  C   UNL     1      -3.706  11.331  17.833  0.00  0.00    +0.000 A 
ATOM     10  C   UNL     1      -5.083  11.279  18.028  0.00  0.00    +0.000 A 
ATOM     11  C   UNL     1      -5.659  11.785  19.184  0.00  0.00    +0.000 A 
ATOM     12  C   UNL     1      -4.871  12.357  20.203  0.00  0.00    +0.000 A 
ATOM     13  C   UNL     1      -5.633  12.992  21.327  0.00  0.00    +0.000 C 
ATOM     14  C   UNL     1      -4.851  13.481  22.551  0.00  0.00    +0.000 C 
ATOM     15  N   UNL     1      -5.390  14.796  23.017  0.00  0.00    +0.000 NA
ATOM     16  C   UNL     1      -6.807  14.786  23.364  0.00  0.00    +0.000 C 
ATOM     17  C   UNL     1      -4.598  15.437  24.081  0.00  0.00    +0.000 C 
ATOM     18  C   UNL     1      -3.427  14.613  24.616  0.00  0.00    +0.000 C 
ENDROOT
BRANCH   9  19
ATOM     19  N   UNL     1      -3.141  10.808  16.674  0.00  0.00    +0.000 N 
ATOM     20  C   UNL     1      -1.980   9.924  16.756  0.00  0.00    +0.000 C 
ATOM     21  C   UNL     1      -3.884  10.741  15.421  0.00  0.00    +0.000 C 
ENDBRANCH   9  19
BRANCH   1  23
ATOM     22  C   UNL     1       1.390  15.069  21.912  0.00  0.00    +0.000 C 
ATOM     23  O   UNL     1       0.843  13.820  22.316  0.00  0.00    +0.000 OA
ENDBRANCH   1  23
BRANCH   6  24
ATOM     24  O   UNL     1      -0.563  12.629  20.146  0.00  0.00    +0.000 OA
ATOM     25  C   UNL     1       0.262  11.478  20.214  0.00  0.00    +0.000 C 
ENDBRANCH   6  24
TORSDOF 3
ENDMDL
