MODEL 1
REMARK VINA RESULT:      -7.3      0.000      0.000
REMARK  Name = 
REMARK  6 active torsions:
REMARK  status: ('A' for Active; 'I' for Inactive)
REMARK    1  A    between atoms: C_2  and  C_3
REMARK    2  A    between atoms: N_10  and  C_11
REMARK    3  A    between atoms: C_11  and  C_12
REMARK    4  A    between atoms: C_12  and  C_13
REMARK    5  A    between atoms: C_13  and  C_14
REMARK    6  A    between atoms: C_14  and  C_15
REMARK                            x       y       z     vdW  Elec       q    Type
REMARK                         _______ _______ _______ _____ _____    ______ ____
ROOT
ATOM      1  C   UNL     1       4.024   5.591  17.268  0.00  0.00    +0.000 C 
ATOM      2  C   UNL     1       4.088   4.838  18.386  0.00  0.00    +0.000 C 
ATOM      3  C   UNL     1       5.278   5.039  19.306  0.00  0.00    +0.000 C 
ATOM      4  C   UNL     1       6.477   5.686  18.596  0.00  0.00    +0.000 C 
ATOM      5  N   UNL     1       6.080   6.897  17.866  0.00  0.00    +0.000 NA
ATOM      6  C   UNL     1       5.046   6.605  16.864  0.00  0.00    +0.000 C 
ENDROOT
BRANCH   2   7
ATOM      7  C   UNL     1       3.029   3.889  18.599  0.00  0.00    +0.000 A 
ATOM      8  C   UNL     1       1.660   4.034  18.413  0.00  0.00    +0.000 A 
ATOM      9  C   UNL     1       0.914   2.875  18.765  0.00  0.00    +0.000 A 
ATOM     10  C   UNL     1       1.730   1.858  19.194  0.00  0.00    +0.000 A 
ATOM     11  S   UNL     1       3.381   2.298  19.168  0.00  0.00    +0.000 S 
ENDBRANCH   2   7
BRANCH   5  12
ATOM     12  C   UNL     1       7.247   7.536  17.237  0.00  0.00    +0.000 C 
BRANCH  12  13
ATOM     13  C   UNL     1       8.252   8.102  18.256  0.00  0.00    +0.000 C 
BRANCH  13  14
ATOM     14  C   UNL     1       8.610   9.576  18.030  0.00  0.00    +0.000 C 
BRANCH  14  15
ATOM     15  C   UNL     1       9.255  10.201  19.266  0.00  0.00    +0.000 C 
BRANCH  15  16
ATOM     16  C   UNL     1      10.297  11.226  18.915  0.00  0.00    +0.000 A 
ATOM     17  C   UNL     1      10.157  12.007  17.765  0.00  0.00    +0.000 A 
ATOM     18  C   UNL     1      11.126  12.960  17.492  0.00  0.00    +0.000 A 
ATOM     19  N   UNL     1      12.208  13.175  18.268  0.00  0.00    +0.000 NA
ATOM     20  C   UNL     1      12.330  12.395  19.366  0.00  0.00    +0.000 A 
ATOM     21  C   UNL     1      11.415  11.418  19.725  0.00  0.00    +0.000 A 
ENDBRANCH  15  16
ENDBRANCH  14  15
ENDBRANCH  13  14
ENDBRANCH  12  13
ENDBRANCH   5  12
TORSDOF 6
ENDMDL
MODEL 2
REMARK VINA RESULT:      -7.3      1.080      1.800
REMARK  Name = 
REMARK  6 active torsions:
REMARK  status: ('A' for Active; 'I' for Inactive)
REMARK    1  A    between atoms: C_2  and  C_3
REMARK    2  A    between atoms: N_10  and  C_11
REMARK    3  A    between atoms: C_11  and  C_12
REMARK    4  A    between atoms: C_12  and  C_13
REMARK    5  A    between atoms: C_13  and  C_14
REMARK    6  A    between atoms: C_14  and  C_15
REMARK                            x       y       z     vdW  Elec       q    Type
REMARK                         _______ _______ _______ _____ _____    ______ ____
ROOT
ATOM      1  C   UNL     1       5.126   4.699  19.121  0.00  0.00    +0.000 C 
ATOM      2  C   UNL     1       3.954   4.992  18.520  0.00  0.00    +0.000 C 
ATOM      3  C   UNL     1       3.988   5.930  17.328  0.00  0.00    +0.000 C 
ATOM      4  C   UNL     1       5.252   6.802  17.291  0.00  0.00    +0.000 C 
ATOM      5  N   UNL     1       6.468   5.993  17.443  0.00  0.00    +0.000 NA
ATOM      6  C   UNL     1       6.456   5.239  18.704  0.00  0.00    +0.000 C 
ENDROOT
BRANCH   2   7
ATOM      7  C   UNL     1       2.765   4.405  19.076  0.00  0.00    +0.000 A 
ATOM      8  C   UNL     1       2.035   4.780  20.197  0.00  0.00    +0.000 A 
ATOM      9  C   UNL     1       0.925   3.931  20.460  0.00  0.00    +0.000 A 
ATOM     10  C   UNL     1       0.814   2.936  19.521  0.00  0.00    +0.000 A 
ATOM     11  S   UNL     1       2.038   3.028  18.334  0.00  0.00    +0.000 S 
ENDBRANCH   2   7
BRANCH   5  12
ATOM     12  C   UNL     1       7.673   6.833  17.352  0.00  0.00    +0.000 C 
BRANCH  12  13
ATOM     13  C   UNL     1       7.383   8.333  17.543  0.00  0.00    +0.000 C 
BRANCH  13  14
ATOM     14  C   UNL     1       8.445   9.075  18.362  0.00  0.00    +0.000 C 
BRANCH  14  15
ATOM     15  C   UNL     1       8.720  10.471  17.804  0.00  0.00    +0.000 C 
BRANCH  15  16
ATOM     16  C   UNL     1       9.816  11.182  18.547  0.00  0.00    +0.000 A 
ATOM     17  C   UNL     1       9.801  11.234  19.943  0.00  0.00    +0.000 A 
ATOM     18  C   UNL     1      10.845  11.877  20.591  0.00  0.00    +0.000 A 
ATOM     19  N   UNL     1      11.876  12.465  19.953  0.00  0.00    +0.000 NA
ATOM     20  C   UNL     1      11.860  12.416  18.602  0.00  0.00    +0.000 A 
ATOM     21  C   UNL     1      10.864  11.798  17.863  0.00  0.00    +0.000 A 
ENDBRANCH  15  16
ENDBRANCH  14  15
ENDBRANCH  13  14
ENDBRANCH  12  13
ENDBRANCH   5  12
TORSDOF 6
ENDMDL
MODEL 3
REMARK VINA RESULT:      -7.3      0.944      1.364
REMARK  Name = 
REMARK  6 active torsions:
REMARK  status: ('A' for Active; 'I' for Inactive)
REMARK    1  A    between atoms: C_2  and  C_3
REMARK    2  A    between atoms: N_10  and  C_11
REMARK    3  A    between atoms: C_11  and  C_12
REMARK    4  A    between atoms: C_12  and  C_13
REMARK    5  A    between atoms: C_13  and  C_14
REMARK    6  A    between atoms: C_14  and  C_15
REMARK                            x       y       z     vdW  Elec       q    Type
REMARK                         _______ _______ _______ _____ _____    ______ ____
ROOT
ATOM      1  C   UNL     1       4.001   5.288  17.235  0.00  0.00    +0.000 C 
ATOM      2  C   UNL     1       3.882   4.785  18.481  0.00  0.00    +0.000 C 
ATOM      3  C   UNL     1       4.969   5.122  19.486  0.00  0.00    +0.000 C 
ATOM      4  C   UNL     1       6.284   5.552  18.819  0.00  0.00    +0.000 C 
ATOM      5  N   UNL     1       6.060   6.599  17.813  0.00  0.00    +0.000 NA
ATOM      6  C   UNL     1       5.132   6.148  16.768  0.00  0.00    +0.000 C 
ENDROOT
BRANCH   2   7
ATOM      7  C   UNL     1       2.743   3.949  18.746  0.00  0.00    +0.000 A 
ATOM      8  C   UNL     1       2.296   2.821  18.067  0.00  0.00    +0.000 A 
ATOM      9  C   UNL     1       1.100   2.272  18.607  0.00  0.00    +0.000 A 
ATOM     10  C   UNL     1       0.667   2.978  19.703  0.00  0.00    +0.000 A 
ATOM     11  S   UNL     1       1.697   4.289  20.075  0.00  0.00    +0.000 S 
ENDBRANCH   2   7
BRANCH   5  12
ATOM     12  C   UNL     1       7.334   7.040  17.222  0.00  0.00    +0.000 C 
BRANCH  12  13
ATOM     13  C   UNL     1       8.247   7.770  18.223  0.00  0.00    +0.000 C 
BRANCH  13  14
ATOM     14  C   UNL     1       8.337   9.284  17.996  0.00  0.00    +0.000 C 
BRANCH  14  15
ATOM     15  C   UNL     1       9.114   9.981  19.113  0.00  0.00    +0.000 C 
BRANCH  15  16
ATOM     16  C   UNL     1       9.844  11.203  18.629  0.00  0.00    +0.000 A 
ATOM     17  C   UNL     1      11.216  11.340  18.856  0.00  0.00    +0.000 A 
ATOM     18  C   UNL     1      11.856  12.469  18.370  0.00  0.00    +0.000 A 
ATOM     19  N   UNL     1      11.231  13.455  17.696  0.00  0.00    +0.000 NA
ATOM     20  C   UNL     1       9.900  13.308  17.504  0.00  0.00    +0.000 A 
ATOM     21  C   UNL     1       9.172  12.217  17.949  0.00  0.00    +0.000 A 
ENDBRANCH  15  16
ENDBRANCH  14  15
ENDBRANCH  13  14
ENDBRANCH  12  13
ENDBRANCH   5  12
TORSDOF 6
ENDMDL
MODEL 4
REMARK VINA RESULT:      -7.2      0.845      1.570
REMARK  Name = 
REMARK  6 active torsions:
REMARK  status: ('A' for Active; 'I' for Inactive)
REMARK    1  A    between atoms: C_2  and  C_3
REMARK    2  A    between atoms: N_10  and  C_11
REMARK    3  A    between atoms: C_11  and  C_12
REMARK    4  A    between atoms: C_12  and  C_13
REMARK    5  A    between atoms: C_13  and  C_14
REMARK    6  A    between atoms: C_14  and  C_15
REMARK                            x       y       z     vdW  Elec       q    Type
REMARK                         _______ _______ _______ _____ _____    ______ ____
ROOT
ATOM      1  C   UNL     1       4.772   5.340  18.968  0.00  0.00    +0.000 C 
ATOM      2  C   UNL     1       4.063   4.633  18.063  0.00  0.00    +0.000 C 
ATOM      3  C   UNL     1       4.543   4.647  16.624  0.00  0.00    +0.000 C 
ATOM      4  C   UNL     1       5.445   5.850  16.308  0.00  0.00    +0.000 C 
ATOM      5  N   UNL     1       6.525   5.986  17.294  0.00  0.00    +0.000 NA
ATOM      6  C   UNL     1       5.992   6.145  18.654  0.00  0.00    +0.000 C 
ENDROOT
BRANCH   2   7
ATOM      7  C   UNL     1       2.896   3.942  18.539  0.00  0.00    +0.000 A 
ATOM      8  C   UNL     1       1.942   4.349  19.464  0.00  0.00    +0.000 A 
ATOM      9  C   UNL     1       0.938   3.372  19.709  0.00  0.00    +0.000 A 
ATOM     10  C   UNL     1       1.130   2.245  18.949  0.00  0.00    +0.000 A 
ATOM     11  S   UNL     1       2.510   2.367  17.949  0.00  0.00    +0.000 S 
ENDBRANCH   2   7
BRANCH   5  12
ATOM     12  C   UNL     1       7.413   7.108  16.949  0.00  0.00    +0.000 C 
BRANCH  12  13
ATOM     13  C   UNL     1       8.137   7.705  18.168  0.00  0.00    +0.000 C 
BRANCH  13  14
ATOM     14  C   UNL     1       8.426   9.207  18.049  0.00  0.00    +0.000 C 
BRANCH  14  15
ATOM     15  C   UNL     1       8.983   9.784  19.350  0.00  0.00    +0.000 C 
BRANCH  15  16
ATOM     16  C   UNL     1       9.943  10.916  19.113  0.00  0.00    +0.000 A 
ATOM     17  C   UNL     1      10.506  11.600  20.194  0.00  0.00    +0.000 A 
ATOM     18  C   UNL     1      11.408  12.619  19.933  0.00  0.00    +0.000 A 
ATOM     19  N   UNL     1      11.772  13.001  18.692  0.00  0.00    +0.000 NA
ATOM     20  C   UNL     1      11.201  12.335  17.662  0.00  0.00    +0.000 A 
ATOM     21  C   UNL     1      10.291  11.302  17.820  0.00  0.00    +0.000 A 
ENDBRANCH  15  16
ENDBRANCH  14  15
ENDBRANCH  13  14
ENDBRANCH  12  13
ENDBRANCH   5  12
TORSDOF 6
ENDMDL
MODEL 5
REMARK VINA RESULT:      -7.1      1.116      1.635
REMARK  Name = 
REMARK  6 active torsions:
REMARK  status: ('A' for Active; 'I' for Inactive)
REMARK    1  A    between atoms: C_2  and  C_3
REMARK    2  A    between atoms: N_10  and  C_11
REMARK    3  A    between atoms: C_11  and  C_12
REMARK    4  A    between atoms: C_12  and  C_13
REMARK    5  A    between atoms: C_13  and  C_14
REMARK    6  A    between atoms: C_14  and  C_15
REMARK                            x       y       z     vdW  Elec       q    Type
REMARK                         _______ _______ _______ _____ _____    ______ ____
ROOT
ATOM      1  C   UNL     1       5.248   4.935  18.961  0.00  0.00    +0.000 C 
ATOM      2  C   UNL     1       4.325   4.458  18.102  0.00  0.00    +0.000 C 
ATOM      3  C   UNL     1       4.507   4.765  16.627  0.00  0.00    +0.000 C 
ATOM      4  C   UNL     1       5.412   5.982  16.379  0.00  0.00    +0.000 C 
ATOM      5  N   UNL     1       6.674   5.873  17.123  0.00  0.00    +0.000 NA
ATOM      6  C   UNL     1       6.436   5.754  18.567  0.00  0.00    +0.000 C 
ENDROOT
BRANCH   2   7
ATOM      7  C   UNL     1       3.229   3.714  18.662  0.00  0.00    +0.000 A 
ATOM      8  C   UNL     1       3.008   2.342  18.678  0.00  0.00    +0.000 A 
ATOM      9  C   UNL     1       1.783   1.974  19.301  0.00  0.00    +0.000 A 
ATOM     10  C   UNL     1       1.101   3.070  19.768  0.00  0.00    +0.000 A 
ATOM     11  S   UNL     1       1.934   4.529  19.459  0.00  0.00    +0.000 S 
ENDBRANCH   2   7
BRANCH   5  12
ATOM     12  C   UNL     1       7.553   7.017  16.833  0.00  0.00    +0.000 C 
BRANCH  12  13
ATOM     13  C   UNL     1       8.047   7.739  18.100  0.00  0.00    +0.000 C 
BRANCH  13  14
ATOM     14  C   UNL     1       8.145   9.262  17.952  0.00  0.00    +0.000 C 
BRANCH  14  15
ATOM     15  C   UNL     1       9.131   9.867  18.951  0.00  0.00    +0.000 C 
BRANCH  15  16
ATOM     16  C   UNL     1       9.714  11.167  18.469  0.00  0.00    +0.000 A 
ATOM     17  C   UNL     1       8.875  12.204  18.055  0.00  0.00    +0.000 A 
ATOM     18  C   UNL     1       9.452  13.396  17.644  0.00  0.00    +0.000 A 
ATOM     19  N   UNL     1      10.783  13.613  17.610  0.00  0.00    +0.000 NA
ATOM     20  C   UNL     1      11.574  12.588  17.999  0.00  0.00    +0.000 A 
ATOM     21  C   UNL     1      11.093  11.361  18.428  0.00  0.00    +0.000 A 
ENDBRANCH  15  16
ENDBRANCH  14  15
ENDBRANCH  13  14
ENDBRANCH  12  13
ENDBRANCH   5  12
TORSDOF 6
ENDMDL
MODEL 6
REMARK VINA RESULT:      -7.0      0.803      1.669
REMARK  Name = 
REMARK  6 active torsions:
REMARK  status: ('A' for Active; 'I' for Inactive)
REMARK    1  A    between atoms: C_2  and  C_3
REMARK    2  A    between atoms: N_10  and  C_11
REMARK    3  A    between atoms: C_11  and  C_12
REMARK    4  A    between atoms: C_12  and  C_13
REMARK    5  A    between atoms: C_13  and  C_14
REMARK    6  A    between atoms: C_14  and  C_15
REMARK                            x       y       z     vdW  Elec       q    Type
REMARK                         _______ _______ _______ _____ _____    ______ ____
ROOT
ATOM      1  C   UNL     1       5.328   4.633  19.304  0.00  0.00    +0.000 C 
ATOM      2  C   UNL     1       4.356   4.672  18.369  0.00  0.00    +0.000 C 
ATOM      3  C   UNL     1       4.588   5.539  17.145  0.00  0.00    +0.000 C 
ATOM      4  C   UNL     1       5.647   6.628  17.379  0.00  0.00    +0.000 C 
ATOM      5  N   UNL     1       6.878   6.067  17.951  0.00  0.00    +0.000 NA
ATOM      6  C   UNL     1       6.615   5.389  19.227  0.00  0.00    +0.000 C 
ENDROOT
BRANCH   2   7
ATOM      7  C   UNL     1       3.168   3.903  18.624  0.00  0.00    +0.000 A 
ATOM      8  C   UNL     1       2.021   3.764  17.851  0.00  0.00    +0.000 A 
ATOM      9  C   UNL     1       1.031   2.938  18.450  0.00  0.00    +0.000 A 
ATOM     10  C   UNL     1       1.448   2.442  19.661  0.00  0.00    +0.000 A 
ATOM     11  S   UNL     1       3.022   2.969  20.066  0.00  0.00    +0.000 S 
ENDBRANCH   2   7
BRANCH   5  12
ATOM     12  C   UNL     1       7.901   7.111  18.118  0.00  0.00    +0.000 C 
BRANCH  12  13
ATOM     13  C   UNL     1       7.404   8.516  17.732  0.00  0.00    +0.000 C 
BRANCH  13  14
ATOM     14  C   UNL     1       8.515   9.569  17.641  0.00  0.00    +0.000 C 
BRANCH  14  15
ATOM     15  C   UNL     1       9.084   9.915  19.016  0.00  0.00    +0.000 C 
BRANCH  15  16
ATOM     16  C   UNL     1       9.840  11.214  19.016  0.00  0.00    +0.000 A 
ATOM     17  C   UNL     1      10.623  11.573  20.116  0.00  0.00    +0.000 A 
ATOM     18  C   UNL     1      11.326  12.767  20.064  0.00  0.00    +0.000 A 
ATOM     19  N   UNL     1      11.294  13.613  19.015  0.00  0.00    +0.000 NA
ATOM     20  C   UNL     1      10.516  13.251  17.969  0.00  0.00    +0.000 A 
ATOM     21  C   UNL     1       9.778  12.079  17.925  0.00  0.00    +0.000 A 
ENDBRANCH  15  16
ENDBRANCH  14  15
ENDBRANCH  13  14
ENDBRANCH  12  13
ENDBRANCH   5  12
TORSDOF 6
ENDMDL
MODEL 7
REMARK VINA RESULT:      -7.0      0.975      1.349
REMARK  Name = 
REMARK  6 active torsions:
REMARK  status: ('A' for Active; 'I' for Inactive)
REMARK    1  A    between atoms: C_2  and  C_3
REMARK    2  A    between atoms: N_10  and  C_11
REMARK    3  A    between atoms: C_11  and  C_12
REMARK    4  A    between atoms: C_12  and  C_13
REMARK    5  A    between atoms: C_13  and  C_14
REMARK    6  A    between atoms: C_14  and  C_15
REMARK                            x       y       z     vdW  Elec       q    Type
REMARK                         _______ _______ _______ _____ _____    ______ ____
ROOT
ATOM      1  C   UNL     1       4.906   5.164  18.718  0.00  0.00    +0.000 C 
ATOM      2  C   UNL     1       4.316   4.433  17.749  0.00  0.00    +0.000 C 
ATOM      3  C   UNL     1       4.882   4.536  16.345  0.00  0.00    +0.000 C 
ATOM      4  C   UNL     1       5.700   5.817  16.123  0.00  0.00    +0.000 C 
ATOM      5  N   UNL     1       6.701   6.005  17.181  0.00  0.00    +0.000 NA
ATOM      6  C   UNL     1       6.073   6.074  18.507  0.00  0.00    +0.000 C 
ENDROOT
BRANCH   2   7
ATOM      7  C   UNL     1       3.182   3.635  18.127  0.00  0.00    +0.000 A 
ATOM      8  C   UNL     1       1.826   3.923  18.032  0.00  0.00    +0.000 A 
ATOM      9  C   UNL     1       0.991   2.892  18.544  0.00  0.00    +0.000 A 
ATOM     10  C   UNL     1       1.724   1.824  19.000  0.00  0.00    +0.000 A 
ATOM     11  S   UNL     1       3.404   2.066  18.810  0.00  0.00    +0.000 S 
ENDBRANCH   2   7
BRANCH   5  12
ATOM     12  C   UNL     1       7.513   7.206  16.927  0.00  0.00    +0.000 C 
BRANCH  12  13
ATOM     13  C   UNL     1       8.104   7.821  18.208  0.00  0.00    +0.000 C 
BRANCH  13  14
ATOM     14  C   UNL     1       8.427   9.316  18.092  0.00  0.00    +0.000 C 
BRANCH  14  15
ATOM     15  C   UNL     1       9.182   9.831  19.317  0.00  0.00    +0.000 C 
BRANCH  15  16
ATOM     16  C   UNL     1       9.717  11.222  19.120  0.00  0.00    +0.000 A 
ATOM     17  C   UNL     1       9.958  11.708  17.832  0.00  0.00    +0.000 A 
ATOM     18  C   UNL     1      10.425  13.006  17.693  0.00  0.00    +0.000 A 
ATOM     19  N   UNL     1      10.672  13.830  18.730  0.00  0.00    +0.000 NA
ATOM     20  C   UNL     1      10.447  13.332  19.967  0.00  0.00    +0.000 A 
ATOM     21  C   UNL     1       9.979  12.050  20.210  0.00  0.00    +0.000 A 
ENDBRANCH  15  16
ENDBRANCH  14  15
ENDBRANCH  13  14
ENDBRANCH  12  13
ENDBRANCH   5  12
TORSDOF 6
ENDMDL
MODEL 8
REMARK VINA RESULT:      -7.0      5.998      8.941
REMARK  Name = 
REMARK  6 active torsions:
REMARK  status: ('A' for Active; 'I' for Inactive)
REMARK    1  A    between atoms: C_2  and  C_3
REMARK    2  A    between atoms: N_10  and  C_11
REMARK    3  A    between atoms: C_11  and  C_12
REMARK    4  A    between atoms: C_12  and  C_13
REMARK    5  A    between atoms: C_13  and  C_14
REMARK    6  A    between atoms: C_14  and  C_15
REMARK                            x       y       z     vdW  Elec       q    Type
REMARK                         _______ _______ _______ _____ _____    ______ ____
ROOT
ATOM      1  C   UNL     1       2.380   6.923  20.150  0.00  0.00    +0.000 C 
ATOM      2  C   UNL     1       1.850   8.007  19.548  0.00  0.00    +0.000 C 
ATOM      3  C   UNL     1       2.145   8.211  18.074  0.00  0.00    +0.000 C 
ATOM      4  C   UNL     1       3.398   7.454  17.607  0.00  0.00    +0.000 C 
ATOM      5  N   UNL     1       3.357   6.043  18.014  0.00  0.00    +0.000 NA
ATOM      6  C   UNL     1       3.247   5.910  19.472  0.00  0.00    +0.000 C 
ENDROOT
BRANCH   2   7
ATOM      7  C   UNL     1       1.065   8.893  20.364  0.00  0.00    +0.000 A 
ATOM      8  C   UNL     1       0.502   8.677  21.616  0.00  0.00    +0.000 A 
ATOM      9  C   UNL     1      -0.243   9.787  22.101  0.00  0.00    +0.000 A 
ATOM     10  C   UNL     1      -0.218  10.840  21.220  0.00  0.00    +0.000 A 
ATOM     11  S   UNL     1       0.700  10.490  19.822  0.00  0.00    +0.000 S 
ENDBRANCH   2   7
BRANCH   5  12
ATOM     12  C   UNL     1       4.535   5.319  17.513  0.00  0.00    +0.000 C 
BRANCH  12  13
ATOM     13  C   UNL     1       4.182   3.986  16.828  0.00  0.00    +0.000 C 
BRANCH  13  14
ATOM     14  C   UNL     1       2.700   3.607  16.926  0.00  0.00    +0.000 C 
BRANCH  14  15
ATOM     15  C   UNL     1       2.500   2.286  17.670  0.00  0.00    +0.000 C 
BRANCH  15  16
ATOM     16  C   UNL     1       2.371   2.477  19.156  0.00  0.00    +0.000 A 
ATOM     17  C   UNL     1       1.141   2.832  19.716  0.00  0.00    +0.000 A 
ATOM     18  C   UNL     1       1.059   2.971  21.094  0.00  0.00    +0.000 A 
ATOM     19  N   UNL     1       2.101   2.792  21.930  0.00  0.00    +0.000 NA
ATOM     20  C   UNL     1       3.284   2.465  21.362  0.00  0.00    +0.000 A 
ATOM     21  C   UNL     1       3.468   2.302  19.998  0.00  0.00    +0.000 A 
ENDBRANCH  15  16
ENDBRANCH  14  15
ENDBRANCH  13  14
ENDBRANCH  12  13
ENDBRANCH   5  12
TORSDOF 6
ENDMDL
MODEL 9
REMARK VINA RESULT:      -7.0      6.117      9.074
REMARK  Name = 
REMARK  6 active torsions:
REMARK  status: ('A' for Active; 'I' for Inactive)
REMARK    1  A    between atoms: C_2  and  C_3
REMARK    2  A    between atoms: N_10  and  C_11
REMARK    3  A    between atoms: C_11  and  C_12
REMARK    4  A    between atoms: C_12  and  C_13
REMARK    5  A    between atoms: C_13  and  C_14
REMARK    6  A    between atoms: C_14  and  C_15
REMARK                            x       y       z     vdW  Elec       q    Type
REMARK                         _______ _______ _______ _____ _____    ______ ____
ROOT
ATOM      1  C   UNL     1       1.867   7.490  20.397  0.00  0.00    +0.000 C 
ATOM      2  C   UNL     1       1.283   8.649  20.028  0.00  0.00    +0.000 C 
ATOM      3  C   UNL     1       1.472   9.109  18.594  0.00  0.00    +0.000 C 
ATOM      4  C   UNL     1       2.698   8.473  17.920  0.00  0.00    +0.000 C 
ATOM      5  N   UNL     1       2.701   7.013  18.080  0.00  0.00    +0.000 NA
ATOM      6  C   UNL     1       2.696   6.629  19.497  0.00  0.00    +0.000 C 
ENDROOT
BRANCH   2   7
ATOM      7  C   UNL     1       0.548   9.363  21.036  0.00  0.00    +0.000 A 
ATOM      8  C   UNL     1       0.069   8.920  22.263  0.00  0.00    +0.000 A 
ATOM      9  C   UNL     1      -0.650   9.914  22.982  0.00  0.00    +0.000 A 
ATOM     10  C   UNL     1      -0.688  11.105  22.302  0.00  0.00    +0.000 A 
ATOM     11  S   UNL     1       0.139  11.024  20.809  0.00  0.00    +0.000 S 
ENDBRANCH   2   7
BRANCH   5  12
ATOM     12  C   UNL     1       3.850   6.413  17.383  0.00  0.00    +0.000 C 
BRANCH  12  13
ATOM     13  C   UNL     1       4.224   5.020  17.919  0.00  0.00    +0.000 C 
BRANCH  13  14
ATOM     14  C   UNL     1       3.760   3.862  17.027  0.00  0.00    +0.000 C 
BRANCH  14  15
ATOM     15  C   UNL     1       3.585   2.568  17.820  0.00  0.00    +0.000 C 
BRANCH  15  16
ATOM     16  C   UNL     1       2.776   2.765  19.072  0.00  0.00    +0.000 A 
ATOM     17  C   UNL     1       3.359   2.564  20.326  0.00  0.00    +0.000 A 
ATOM     18  C   UNL     1       2.587   2.784  21.456  0.00  0.00    +0.000 A 
ATOM     19  N   UNL     1       1.297   3.174  21.420  0.00  0.00    +0.000 NA
ATOM     20  C   UNL     1       0.751   3.346  20.195  0.00  0.00    +0.000 A 
ATOM     21  C   UNL     1       1.439   3.153  19.008  0.00  0.00    +0.000 A 
ENDBRANCH  15  16
ENDBRANCH  14  15
ENDBRANCH  13  14
ENDBRANCH  12  13
ENDBRANCH   5  12
TORSDOF 6
ENDMDL
