MODEL 1
REMARK VINA RESULT:      -6.6      0.000      0.000
REMARK  Name = 
REMARK  10 active torsions:
REMARK  status: ('A' for Active; 'I' for Inactive)
REMARK    1  A    between atoms: C_1  and  C_2
REMARK    2  A    between atoms: C_2  and  O_3
REMARK    3  A    between atoms: O_3  and  C_4
REMARK    4  A    between atoms: C_4  and  C_6
REMARK    5  A    between atoms: C_6  and  S_7
REMARK    6  A    between atoms: S_7  and  C_8
REMARK    7  A    between atoms: C_13  and  C_14
REMARK    8  A    between atoms: C_14  and  O_16
REMARK    9  A    between atoms: O_16  and  C_17
REMARK   10  A    between atoms: C_17  and  C_18
REMARK                            x       y       z     vdW  Elec       q    Type
REMARK                         _______ _______ _______ _____ _____    ______ ____
ROOT
ATOM      1  C   UNL     1       5.155   4.962  16.166  0.00  0.00    +0.000 A 
ATOM      2  N   UNL     1       5.548   6.194  15.796  0.00  0.00    +0.000 NA
ATOM      3  C   UNL     1       5.078   7.239  16.499  0.00  0.00    +0.000 A 
ATOM      4  N   UNL     1       4.221   7.234  17.529  0.00  0.00    +0.000 NA
ATOM      5  C   UNL     1       3.805   5.998  17.891  0.00  0.00    +0.000 A 
ATOM      6  C   UNL     1       2.910   5.609  18.956  0.00  0.00    +0.000 A 
ATOM      7  C   UNL     1       2.865   4.230  18.882  0.00  0.00    +0.000 A 
ATOM      8  N   UNL     1       3.689   3.813  17.877  0.00  0.00    +0.000 N 
ATOM      9  C   UNL     1       4.261   4.849  17.226  0.00  0.00    +0.000 A 
ATOM     10  C   UNL     1       3.764   2.367  17.763  0.00  0.00    +0.000 C 
ATOM     11  C   UNL     1       2.541   1.915  18.570  0.00  0.00    +0.000 C 
ATOM     12  C   UNL     1       2.241   3.066  19.560  0.00  0.00    +0.000 C 
ENDROOT
BRANCH   6  13
ATOM     13  C   UNL     1       2.156   6.425  19.910  0.00  0.00    +0.000 C 
ATOM     14  O   UNL     1       1.564   5.937  20.865  0.00  0.00    +0.000 OA
BRANCH  13  15
ATOM     15  O   UNL     1       2.084   7.753  19.575  0.00  0.00    +0.000 OA
BRANCH  15  16
ATOM     16  C   UNL     1       1.369   8.574  20.513  0.00  0.00    +0.000 C 
ATOM     17  C   UNL     1       0.683   9.695  19.747  0.00  0.00    +0.000 C 
ENDBRANCH  15  16
ENDBRANCH  13  15
ENDBRANCH   6  13
BRANCH   1  18
ATOM     18  S   UNL     1       5.850   3.555  15.337  0.00  0.00    +0.000 S 
BRANCH  18  19
ATOM     19  C   UNL     1       6.478   4.349  13.807  0.00  0.00    +0.000 C 
BRANCH  19  20
ATOM     20  C   UNL     1       6.041   3.596  12.577  0.00  0.00    +0.000 C 
ATOM     21  O   UNL     1       6.796   2.913  11.876  0.00  0.00    +0.000 OA
BRANCH  20  22
ATOM     22  O   UNL     1       4.701   3.705  12.367  0.00  0.00    +0.000 OA
BRANCH  22  24
ATOM     23  C   UNL     1       3.402   3.806  10.309  0.00  0.00    +0.000 C 
ATOM     24  C   UNL     1       4.225   2.940  11.245  0.00  0.00    +0.000 C 
ENDBRANCH  22  24
ENDBRANCH  20  22
ENDBRANCH  19  20
ENDBRANCH  18  19
ENDBRANCH   1  18
TORSDOF 8
ENDMDL
MODEL 2
REMARK VINA RESULT:      -6.4      1.449      1.967
REMARK  Name = 
REMARK  10 active torsions:
REMARK  status: ('A' for Active; 'I' for Inactive)
REMARK    1  A    between atoms: C_1  and  C_2
REMARK    2  A    between atoms: C_2  and  O_3
REMARK    3  A    between atoms: O_3  and  C_4
REMARK    4  A    between atoms: C_4  and  C_6
REMARK    5  A    between atoms: C_6  and  S_7
REMARK    6  A    between atoms: S_7  and  C_8
REMARK    7  A    between atoms: C_13  and  C_14
REMARK    8  A    between atoms: C_14  and  O_16
REMARK    9  A    between atoms: O_16  and  C_17
REMARK   10  A    between atoms: C_17  and  C_18
REMARK                            x       y       z     vdW  Elec       q    Type
REMARK                         _______ _______ _______ _____ _____    ______ ____
ROOT
ATOM      1  C   UNL     1       4.424   5.348  16.972  0.00  0.00    +0.000 A 
ATOM      2  N   UNL     1       4.932   6.396  16.299  0.00  0.00    +0.000 NA
ATOM      3  C   UNL     1       4.565   7.629  16.688  0.00  0.00    +0.000 A 
ATOM      4  N   UNL     1       3.712   7.976  17.662  0.00  0.00    +0.000 NA
ATOM      5  C   UNL     1       3.181   6.925  18.328  0.00  0.00    +0.000 A 
ATOM      6  C   UNL     1       2.253   6.918  19.436  0.00  0.00    +0.000 A 
ATOM      7  C   UNL     1       2.077   5.578  19.729  0.00  0.00    +0.000 A 
ATOM      8  N   UNL     1       2.857   4.835  18.890  0.00  0.00    +0.000 N 
ATOM      9  C   UNL     1       3.524   5.604  18.002  0.00  0.00    +0.000 A 
ATOM     10  C   UNL     1       2.795   3.410  19.166  0.00  0.00    +0.000 C 
ATOM     11  C   UNL     1       1.535   3.304  20.033  0.00  0.00    +0.000 C 
ATOM     12  C   UNL     1       1.347   4.699  20.675  0.00  0.00    +0.000 C 
ENDROOT
BRANCH   6  13
ATOM     13  C   UNL     1       1.582   8.023  20.121  0.00  0.00    +0.000 C 
ATOM     14  O   UNL     1       1.240   9.045  19.537  0.00  0.00    +0.000 OA
BRANCH  13  15
ATOM     15  O   UNL     1       1.474   7.857  21.478  0.00  0.00    +0.000 OA
BRANCH  15  16
ATOM     16  C   UNL     1       1.244   9.067  22.218  0.00  0.00    +0.000 C 
ATOM     17  C   UNL     1      -0.220   9.106  22.634  0.00  0.00    +0.000 C 
ENDBRANCH  15  16
ENDBRANCH  13  15
ENDBRANCH   6  13
BRANCH   1  18
ATOM     18  S   UNL     1       4.981   3.714  16.562  0.00  0.00    +0.000 S 
BRANCH  18  19
ATOM     19  C   UNL     1       6.650   4.090  15.898  0.00  0.00    +0.000 C 
BRANCH  19  20
ATOM     20  C   UNL     1       6.582   4.534  14.460  0.00  0.00    +0.000 C 
ATOM     21  O   UNL     1       7.389   5.307  13.932  0.00  0.00    +0.000 OA
BRANCH  20  22
ATOM     22  O   UNL     1       5.560   3.932  13.792  0.00  0.00    +0.000 OA
BRANCH  22  24
ATOM     23  C   UNL     1       4.737   3.191  11.622  0.00  0.00    +0.000 C 
ATOM     24  C   UNL     1       5.945   3.373  12.524  0.00  0.00    +0.000 C 
ENDBRANCH  22  24
ENDBRANCH  20  22
ENDBRANCH  19  20
ENDBRANCH  18  19
ENDBRANCH   1  18
TORSDOF 8
ENDMDL
MODEL 3
REMARK VINA RESULT:      -6.4      3.717      6.957
REMARK  Name = 
REMARK  10 active torsions:
REMARK  status: ('A' for Active; 'I' for Inactive)
REMARK    1  A    between atoms: C_1  and  C_2
REMARK    2  A    between atoms: C_2  and  O_3
REMARK    3  A    between atoms: O_3  and  C_4
REMARK    4  A    between atoms: C_4  and  C_6
REMARK    5  A    between atoms: C_6  and  S_7
REMARK    6  A    between atoms: S_7  and  C_8
REMARK    7  A    between atoms: C_13  and  C_14
REMARK    8  A    between atoms: C_14  and  O_16
REMARK    9  A    between atoms: O_16  and  C_17
REMARK   10  A    between atoms: C_17  and  C_18
REMARK                            x       y       z     vdW  Elec       q    Type
REMARK                         _______ _______ _______ _____ _____    ______ ____
ROOT
ATOM      1  C   UNL     1       2.156   7.782  19.019  0.00  0.00    +0.000 A 
ATOM      2  N   UNL     1       1.359   7.786  20.104  0.00  0.00    +0.000 NA
ATOM      3  C   UNL     1       1.380   6.704  20.901  0.00  0.00    +0.000 A 
ATOM      4  N   UNL     1       2.077   5.570  20.750  0.00  0.00    +0.000 NA
ATOM      5  C   UNL     1       2.864   5.552  19.649  0.00  0.00    +0.000 A 
ATOM      6  C   UNL     1       3.759   4.518  19.181  0.00  0.00    +0.000 A 
ATOM      7  C   UNL     1       4.318   5.043  18.030  0.00  0.00    +0.000 A 
ATOM      8  N   UNL     1       3.828   6.301  17.833  0.00  0.00    +0.000 N 
ATOM      9  C   UNL     1       2.920   6.646  18.772  0.00  0.00    +0.000 A 
ATOM     10  C   UNL     1       4.411   6.967  16.681  0.00  0.00    +0.000 C 
ATOM     11  C   UNL     1       5.040   5.796  15.916  0.00  0.00    +0.000 C 
ATOM     12  C   UNL     1       5.296   4.693  16.971  0.00  0.00    +0.000 C 
ENDROOT
BRANCH   6  13
ATOM     13  C   UNL     1       4.037   3.186  19.719  0.00  0.00    +0.000 C 
ATOM     14  O   UNL     1       5.178   2.775  19.892  0.00  0.00    +0.000 OA
BRANCH  13  15
ATOM     15  O   UNL     1       2.920   2.413  19.904  0.00  0.00    +0.000 OA
BRANCH  15  16
ATOM     16  C   UNL     1       2.238   2.038  18.696  0.00  0.00    +0.000 C 
ATOM     17  C   UNL     1       0.768   2.406  18.838  0.00  0.00    +0.000 C 
ENDBRANCH  15  16
ENDBRANCH  13  15
ENDBRANCH   6  13
BRANCH   1  18
ATOM     18  S   UNL     1       2.243   9.241  18.013  0.00  0.00    +0.000 S 
BRANCH  18  19
ATOM     19  C   UNL     1       1.474  10.467  19.141  0.00  0.00    +0.000 C 
BRANCH  19  20
ATOM     20  C   UNL     1       0.113  10.888  18.650  0.00  0.00    +0.000 C 
ATOM     21  O   UNL     1      -0.401  11.988  18.882  0.00  0.00    +0.000 OA
BRANCH  20  22
ATOM     22  O   UNL     1      -0.458   9.935  17.862  0.00  0.00    +0.000 OA
BRANCH  22  24
ATOM     23  C   UNL     1      -2.360   9.973  16.341  0.00  0.00    +0.000 C 
ATOM     24  C   UNL     1      -1.892  10.030  17.784  0.00  0.00    +0.000 C 
ENDBRANCH  22  24
ENDBRANCH  20  22
ENDBRANCH  19  20
ENDBRANCH  18  19
ENDBRANCH   1  18
TORSDOF 8
ENDMDL
MODEL 4
REMARK VINA RESULT:      -6.3      3.619      7.373
REMARK  Name = 
REMARK  10 active torsions:
REMARK  status: ('A' for Active; 'I' for Inactive)
REMARK    1  A    between atoms: C_1  and  C_2
REMARK    2  A    between atoms: C_2  and  O_3
REMARK    3  A    between atoms: O_3  and  C_4
REMARK    4  A    between atoms: C_4  and  C_6
REMARK    5  A    between atoms: C_6  and  S_7
REMARK    6  A    between atoms: S_7  and  C_8
REMARK    7  A    between atoms: C_13  and  C_14
REMARK    8  A    between atoms: C_14  and  O_16
REMARK    9  A    between atoms: O_16  and  C_17
REMARK   10  A    between atoms: C_17  and  C_18
REMARK                            x       y       z     vdW  Elec       q    Type
REMARK                         _______ _______ _______ _____ _____    ______ ____
ROOT
ATOM      1  C   UNL     1       2.411   7.551  18.930  0.00  0.00    +0.000 A 
ATOM      2  N   UNL     1       1.619   7.533  20.018  0.00  0.00    +0.000 NA
ATOM      3  C   UNL     1       1.603   6.414  20.763  0.00  0.00    +0.000 A 
ATOM      4  N   UNL     1       2.257   5.264  20.554  0.00  0.00    +0.000 NA
ATOM      5  C   UNL     1       3.038   5.268  19.448  0.00  0.00    +0.000 A 
ATOM      6  C   UNL     1       3.892   4.226  18.927  0.00  0.00    +0.000 A 
ATOM      7  C   UNL     1       4.467   4.784  17.799  0.00  0.00    +0.000 A 
ATOM      8  N   UNL     1       4.023   6.068  17.665  0.00  0.00    +0.000 N 
ATOM      9  C   UNL     1       3.132   6.401  18.625  0.00  0.00    +0.000 A 
ATOM     10  C   UNL     1       4.626   6.766  16.543  0.00  0.00    +0.000 C 
ATOM     11  C   UNL     1       5.207   5.611  15.719  0.00  0.00    +0.000 C 
ATOM     12  C   UNL     1       5.427   4.450  16.719  0.00  0.00    +0.000 C 
ENDROOT
BRANCH   6  13
ATOM     13  C   UNL     1       4.123   2.861  19.400  0.00  0.00    +0.000 C 
ATOM     14  O   UNL     1       5.080   2.565  20.105  0.00  0.00    +0.000 OA
BRANCH  13  15
ATOM     15  O   UNL     1       3.244   1.938  18.894  0.00  0.00    +0.000 OA
BRANCH  15  16
ATOM     16  C   UNL     1       2.000   1.836  19.604  0.00  0.00    +0.000 C 
ATOM     17  C   UNL     1       0.881   2.310  18.688  0.00  0.00    +0.000 C 
ENDBRANCH  15  16
ENDBRANCH  13  15
ENDBRANCH   6  13
BRANCH   1  18
ATOM     18  S   UNL     1       2.548   9.052  17.994  0.00  0.00    +0.000 S 
BRANCH  18  19
ATOM     19  C   UNL     1       0.927   9.825  18.368  0.00  0.00    +0.000 C 
BRANCH  19  20
ATOM     20  C   UNL     1       1.097  11.183  18.997  0.00  0.00    +0.000 C 
ATOM     21  O   UNL     1       1.936  12.016  18.637  0.00  0.00    +0.000 OA
BRANCH  20  22
ATOM     22  O   UNL     1       0.171  11.410  19.969  0.00  0.00    +0.000 OA
BRANCH  22  24
ATOM     23  C   UNL     1      -0.524  11.140  22.288  0.00  0.00    +0.000 C 
ATOM     24  C   UNL     1       0.422  10.690  21.189  0.00  0.00    +0.000 C 
ENDBRANCH  22  24
ENDBRANCH  20  22
ENDBRANCH  19  20
ENDBRANCH  18  19
ENDBRANCH   1  18
TORSDOF 8
ENDMDL
MODEL 5
REMARK VINA RESULT:      -6.3      3.670      8.131
REMARK  Name = 
REMARK  10 active torsions:
REMARK  status: ('A' for Active; 'I' for Inactive)
REMARK    1  A    between atoms: C_1  and  C_2
REMARK    2  A    between atoms: C_2  and  O_3
REMARK    3  A    between atoms: O_3  and  C_4
REMARK    4  A    between atoms: C_4  and  C_6
REMARK    5  A    between atoms: C_6  and  S_7
REMARK    6  A    between atoms: S_7  and  C_8
REMARK    7  A    between atoms: C_13  and  C_14
REMARK    8  A    between atoms: C_14  and  O_16
REMARK    9  A    between atoms: O_16  and  C_17
REMARK   10  A    between atoms: C_17  and  C_18
REMARK                            x       y       z     vdW  Elec       q    Type
REMARK                         _______ _______ _______ _____ _____    ______ ____
ROOT
ATOM      1  C   UNL     1       1.911   7.501  19.759  0.00  0.00    +0.000 A 
ATOM      2  N   UNL     1       2.108   8.558  18.950  0.00  0.00    +0.000 NA
ATOM      3  C   UNL     1       2.915   8.393  17.888  0.00  0.00    +0.000 A 
ATOM      4  N   UNL     1       3.600   7.300  17.523  0.00  0.00    +0.000 NA
ATOM      5  C   UNL     1       3.422   6.240  18.345  0.00  0.00    +0.000 A 
ATOM      6  C   UNL     1       3.977   4.909  18.256  0.00  0.00    +0.000 A 
ATOM      7  C   UNL     1       3.440   4.239  19.339  0.00  0.00    +0.000 A 
ATOM      8  N   UNL     1       2.605   5.082  20.012  0.00  0.00    +0.000 N 
ATOM      9  C   UNL     1       2.581   6.317  19.466  0.00  0.00    +0.000 A 
ATOM     10  C   UNL     1       1.935   4.447  21.134  0.00  0.00    +0.000 C 
ATOM     11  C   UNL     1       2.780   3.185  21.342  0.00  0.00    +0.000 C 
ATOM     12  C   UNL     1       3.455   2.900  19.978  0.00  0.00    +0.000 C 
ENDROOT
BRANCH   6  13
ATOM     13  C   UNL     1       4.922   4.336  17.296  0.00  0.00    +0.000 C 
ATOM     14  O   UNL     1       4.567   3.901  16.207  0.00  0.00    +0.000 OA
BRANCH  13  15
ATOM     15  O   UNL     1       6.204   4.230  17.769  0.00  0.00    +0.000 OA
BRANCH  15  16
ATOM     16  C   UNL     1       7.144   5.143  17.179  0.00  0.00    +0.000 C 
ATOM     17  C   UNL     1       7.503   6.201  18.212  0.00  0.00    +0.000 C 
ENDBRANCH  15  16
ENDBRANCH  13  15
ENDBRANCH   6  13
BRANCH   1  18
ATOM     18  S   UNL     1       0.758   7.650  21.100  0.00  0.00    +0.000 S 
BRANCH  18  19
ATOM     19  C   UNL     1       0.402   9.449  21.031  0.00  0.00    +0.000 C 
BRANCH  19  20
ATOM     20  C   UNL     1       0.422  10.066  22.405  0.00  0.00    +0.000 C 
ATOM     21  O   UNL     1       1.004   9.575  23.380  0.00  0.00    +0.000 OA
BRANCH  20  22
ATOM     22  O   UNL     1      -0.222  11.265  22.431  0.00  0.00    +0.000 OA
BRANCH  22  24
ATOM     23  C   UNL     1      -2.171  12.584  23.063  0.00  0.00    +0.000 C 
ATOM     24  C   UNL     1      -1.487  11.230  23.115  0.00  0.00    +0.000 C 
ENDBRANCH  22  24
ENDBRANCH  20  22
ENDBRANCH  19  20
ENDBRANCH  18  19
ENDBRANCH   1  18
TORSDOF 8
ENDMDL
MODEL 6
REMARK VINA RESULT:      -6.3      2.228      2.770
REMARK  Name = 
REMARK  10 active torsions:
REMARK  status: ('A' for Active; 'I' for Inactive)
REMARK    1  A    between atoms: C_1  and  C_2
REMARK    2  A    between atoms: C_2  and  O_3
REMARK    3  A    between atoms: O_3  and  C_4
REMARK    4  A    between atoms: C_4  and  C_6
REMARK    5  A    between atoms: C_6  and  S_7
REMARK    6  A    between atoms: S_7  and  C_8
REMARK    7  A    between atoms: C_13  and  C_14
REMARK    8  A    between atoms: C_14  and  O_16
REMARK    9  A    between atoms: O_16  and  C_17
REMARK   10  A    between atoms: C_17  and  C_18
REMARK                            x       y       z     vdW  Elec       q    Type
REMARK                         _______ _______ _______ _____ _____    ______ ____
ROOT
ATOM      1  C   UNL     1       4.357   5.206  17.186  0.00  0.00    +0.000 A 
ATOM      2  N   UNL     1       4.812   6.201  16.402  0.00  0.00    +0.000 NA
ATOM      3  C   UNL     1       4.421   7.455  16.691  0.00  0.00    +0.000 A 
ATOM      4  N   UNL     1       3.591   7.867  17.659  0.00  0.00    +0.000 NA
ATOM      5  C   UNL     1       3.114   6.868  18.437  0.00  0.00    +0.000 A 
ATOM      6  C   UNL     1       2.224   6.938  19.573  0.00  0.00    +0.000 A 
ATOM      7  C   UNL     1       2.097   5.626  19.992  0.00  0.00    +0.000 A 
ATOM      8  N   UNL     1       2.870   4.830  19.197  0.00  0.00    +0.000 N 
ATOM      9  C   UNL     1       3.485   5.532  18.220  0.00  0.00    +0.000 A 
ATOM     10  C   UNL     1       2.859   3.435  19.602  0.00  0.00    +0.000 C 
ATOM     11  C   UNL     1       1.632   3.376  20.520  0.00  0.00    +0.000 C 
ATOM     12  C   UNL     1       1.424   4.819  21.039  0.00  0.00    +0.000 C 
ENDROOT
BRANCH   6  13
ATOM     13  C   UNL     1       1.543   8.083  20.178  0.00  0.00    +0.000 C 
ATOM     14  O   UNL     1       1.197   9.060  19.525  0.00  0.00    +0.000 OA
BRANCH  13  15
ATOM     15  O   UNL     1       1.432   8.010  21.543  0.00  0.00    +0.000 OA
BRANCH  15  16
ATOM     16  C   UNL     1       1.281   9.276  22.205  0.00  0.00    +0.000 C 
ATOM     17  C   UNL     1      -0.066   9.292  22.913  0.00  0.00    +0.000 C 
ENDBRANCH  15  16
ENDBRANCH  13  15
ENDBRANCH   6  13
BRANCH   1  18
ATOM     18  S   UNL     1       4.948   3.556  16.906  0.00  0.00    +0.000 S 
BRANCH  18  19
ATOM     19  C   UNL     1       6.031   3.835  15.451  0.00  0.00    +0.000 C 
BRANCH  19  20
ATOM     20  C   UNL     1       7.308   4.533  15.842  0.00  0.00    +0.000 C 
ATOM     21  O   UNL     1       7.890   4.367  16.919  0.00  0.00    +0.000 OA
BRANCH  20  22
ATOM     22  O   UNL     1       7.781   5.322  14.838  0.00  0.00    +0.000 OA
BRANCH  22  24
ATOM     23  C   UNL     1       8.103   5.647  12.445  0.00  0.00    +0.000 C 
ATOM     24  C   UNL     1       7.310   4.943  13.532  0.00  0.00    +0.000 C 
ENDBRANCH  22  24
ENDBRANCH  20  22
ENDBRANCH  19  20
ENDBRANCH  18  19
ENDBRANCH   1  18
TORSDOF 8
ENDMDL
MODEL 7
REMARK VINA RESULT:      -6.2      3.858      5.569
REMARK  Name = 
REMARK  10 active torsions:
REMARK  status: ('A' for Active; 'I' for Inactive)
REMARK    1  A    between atoms: C_1  and  C_2
REMARK    2  A    between atoms: C_2  and  O_3
REMARK    3  A    between atoms: O_3  and  C_4
REMARK    4  A    between atoms: C_4  and  C_6
REMARK    5  A    between atoms: C_6  and  S_7
REMARK    6  A    between atoms: S_7  and  C_8
REMARK    7  A    between atoms: C_13  and  C_14
REMARK    8  A    between atoms: C_14  and  O_16
REMARK    9  A    between atoms: O_16  and  C_17
REMARK   10  A    between atoms: C_17  and  C_18
REMARK                            x       y       z     vdW  Elec       q    Type
REMARK                         _______ _______ _______ _____ _____    ______ ____
ROOT
ATOM      1  C   UNL     1       3.268   5.709  18.894  0.00  0.00    +0.000 A 
ATOM      2  N   UNL     1       3.272   4.617  19.680  0.00  0.00    +0.000 NA
ATOM      3  C   UNL     1       2.508   4.637  20.785  0.00  0.00    +0.000 A 
ATOM      4  N   UNL     1       1.742   5.634  21.251  0.00  0.00    +0.000 NA
ATOM      5  C   UNL     1       1.752   6.743  20.476  0.00  0.00    +0.000 A 
ATOM      6  C   UNL     1       1.040   7.988  20.651  0.00  0.00    +0.000 A 
ATOM      7  C   UNL     1       1.402   8.749  19.554  0.00  0.00    +0.000 A 
ATOM      8  N   UNL     1       2.239   8.015  18.763  0.00  0.00    +0.000 N 
ATOM      9  C   UNL     1       2.505   6.801  19.293  0.00  0.00    +0.000 A 
ATOM     10  C   UNL     1       2.622   8.706  17.544  0.00  0.00    +0.000 C 
ATOM     11  C   UNL     1       2.249  10.158  17.864  0.00  0.00    +0.000 C 
ATOM     12  C   UNL     1       1.149  10.080  18.951  0.00  0.00    +0.000 C 
ENDROOT
BRANCH   6  13
ATOM     13  C   UNL     1       0.154   8.433  21.727  0.00  0.00    +0.000 C 
ATOM     14  O   UNL     1      -0.953   7.942  21.910  0.00  0.00    +0.000 OA
BRANCH  13  15
ATOM     15  O   UNL     1       0.626   9.512  22.430  0.00  0.00    +0.000 OA
BRANCH  15  16
ATOM     16  C   UNL     1      -0.390  10.366  22.980  0.00  0.00    +0.000 C 
ATOM     17  C   UNL     1      -0.515  11.598  22.095  0.00  0.00    +0.000 C 
ENDBRANCH  15  16
ENDBRANCH  13  15
ENDBRANCH   6  13
BRANCH   1  18
ATOM     18  S   UNL     1       4.171   5.669  17.366  0.00  0.00    +0.000 S 
BRANCH  18  19
ATOM     19  C   UNL     1       5.557   4.561  17.830  0.00  0.00    +0.000 C 
BRANCH  19  20
ATOM     20  C   UNL     1       6.598   5.290  18.640  0.00  0.00    +0.000 C 
ATOM     21  O   UNL     1       6.656   5.273  19.875  0.00  0.00    +0.000 OA
BRANCH  20  22
ATOM     22  O   UNL     1       7.507   5.919  17.846  0.00  0.00    +0.000 OA
BRANCH  22  24
ATOM     23  C   UNL     1       7.759   8.332  17.619  0.00  0.00    +0.000 C 
ATOM     24  C   UNL     1       8.081   7.097  18.441  0.00  0.00    +0.000 C 
ENDBRANCH  22  24
ENDBRANCH  20  22
ENDBRANCH  19  20
ENDBRANCH  18  19
ENDBRANCH   1  18
TORSDOF 8
ENDMDL
MODEL 8
REMARK VINA RESULT:      -6.2      4.019      8.517
REMARK  Name = 
REMARK  10 active torsions:
REMARK  status: ('A' for Active; 'I' for Inactive)
REMARK    1  A    between atoms: C_1  and  C_2
REMARK    2  A    between atoms: C_2  and  O_3
REMARK    3  A    between atoms: O_3  and  C_4
REMARK    4  A    between atoms: C_4  and  C_6
REMARK    5  A    between atoms: C_6  and  S_7
REMARK    6  A    between atoms: S_7  and  C_8
REMARK    7  A    between atoms: C_13  and  C_14
REMARK    8  A    between atoms: C_14  and  O_16
REMARK    9  A    between atoms: O_16  and  C_17
REMARK   10  A    between atoms: C_17  and  C_18
REMARK                            x       y       z     vdW  Elec       q    Type
REMARK                         _______ _______ _______ _____ _____    ______ ____
ROOT
ATOM      1  C   UNL     1       1.187   8.655  19.716  0.00  0.00    +0.000 A 
ATOM      2  N   UNL     1       1.214   9.806  19.019  0.00  0.00    +0.000 NA
ATOM      3  C   UNL     1       2.038   9.877  17.959  0.00  0.00    +0.000 A 
ATOM      4  N   UNL     1       2.888   8.949  17.501  0.00  0.00    +0.000 NA
ATOM      5  C   UNL     1       2.881   7.797  18.211  0.00  0.00    +0.000 A 
ATOM      6  C   UNL     1       3.640   6.587  18.000  0.00  0.00    +0.000 A 
ATOM      7  C   UNL     1       3.216   5.735  19.003  0.00  0.00    +0.000 A 
ATOM      8  N   UNL     1       2.257   6.364  19.742  0.00  0.00    +0.000 N 
ATOM      9  C   UNL     1       2.037   7.628  19.320  0.00  0.00    +0.000 A 
ATOM     10  C   UNL     1       1.695   5.521  20.784  0.00  0.00    +0.000 C 
ATOM     11  C   UNL     1       2.730   4.395  20.881  0.00  0.00    +0.000 C 
ATOM     12  C   UNL     1       3.443   4.358  19.507  0.00  0.00    +0.000 C 
ENDROOT
BRANCH   6  13
ATOM     13  C   UNL     1       4.665   6.269  17.004  0.00  0.00    +0.000 C 
ATOM     14  O   UNL     1       4.578   5.299  16.262  0.00  0.00    +0.000 OA
BRANCH  13  15
ATOM     15  O   UNL     1       5.767   7.082  17.057  0.00  0.00    +0.000 OA
BRANCH  15  16
ATOM     16  C   UNL     1       7.028   6.393  17.046  0.00  0.00    +0.000 C 
ATOM     17  C   UNL     1       7.392   6.030  18.478  0.00  0.00    +0.000 C 
ENDBRANCH  15  16
ENDBRANCH  13  15
ENDBRANCH   6  13
BRANCH   1  18
ATOM     18  S   UNL     1       0.024   8.486  21.046  0.00  0.00    +0.000 S 
BRANCH  18  19
ATOM     19  C   UNL     1      -0.176  10.242  21.537  0.00  0.00    +0.000 C 
BRANCH  19  20
ATOM     20  C   UNL     1      -0.337  10.381  23.029  0.00  0.00    +0.000 C 
ATOM     21  O   UNL     1       0.276   9.702  23.861  0.00  0.00    +0.000 OA
BRANCH  20  22
ATOM     22  O   UNL     1      -1.190  11.390  23.355  0.00  0.00    +0.000 OA
BRANCH  22  24
ATOM     23  C   UNL     1      -3.235  12.499  22.628  0.00  0.00    +0.000 C 
ATOM     24  C   UNL     1      -1.875  11.959  22.224  0.00  0.00    +0.000 C 
ENDBRANCH  22  24
ENDBRANCH  20  22
ENDBRANCH  19  20
ENDBRANCH  18  19
ENDBRANCH   1  18
TORSDOF 8
ENDMDL
MODEL 9
REMARK VINA RESULT:      -6.2      3.614      7.198
REMARK  Name = 
REMARK  10 active torsions:
REMARK  status: ('A' for Active; 'I' for Inactive)
REMARK    1  A    between atoms: C_1  and  C_2
REMARK    2  A    between atoms: C_2  and  O_3
REMARK    3  A    between atoms: O_3  and  C_4
REMARK    4  A    between atoms: C_4  and  C_6
REMARK    5  A    between atoms: C_6  and  S_7
REMARK    6  A    between atoms: S_7  and  C_8
REMARK    7  A    between atoms: C_13  and  C_14
REMARK    8  A    between atoms: C_14  and  O_16
REMARK    9  A    between atoms: O_16  and  C_17
REMARK   10  A    between atoms: C_17  and  C_18
REMARK                            x       y       z     vdW  Elec       q    Type
REMARK                         _______ _______ _______ _____ _____    ______ ____
ROOT
ATOM      1  C   UNL     1       2.360   7.495  19.050  0.00  0.00    +0.000 A 
ATOM      2  N   UNL     1       1.583   7.435  20.147  0.00  0.00    +0.000 NA
ATOM      3  C   UNL     1       1.603   6.300  20.867  0.00  0.00    +0.000 A 
ATOM      4  N   UNL     1       2.283   5.171  20.624  0.00  0.00    +0.000 NA
ATOM      5  C   UNL     1       3.049   5.218  19.510  0.00  0.00    +0.000 A 
ATOM      6  C   UNL     1       3.921   4.209  18.955  0.00  0.00    +0.000 A 
ATOM      7  C   UNL     1       4.468   4.805  17.834  0.00  0.00    +0.000 A 
ATOM      8  N   UNL     1       3.991   6.080  17.733  0.00  0.00    +0.000 N 
ATOM      9  C   UNL     1       3.105   6.370  18.711  0.00  0.00    +0.000 A 
ATOM     10  C   UNL     1       4.563   6.817  16.619  0.00  0.00    +0.000 C 
ATOM     11  C   UNL     1       5.162   5.695  15.764  0.00  0.00    +0.000 C 
ATOM     12  C   UNL     1       5.422   4.517  16.735  0.00  0.00    +0.000 C 
ENDROOT
BRANCH   6  13
ATOM     13  C   UNL     1       4.191   2.840  19.395  0.00  0.00    +0.000 C 
ATOM     14  O   UNL     1       5.165   2.551  20.080  0.00  0.00    +0.000 OA
BRANCH  13  15
ATOM     15  O   UNL     1       3.327   1.907  18.883  0.00  0.00    +0.000 OA
BRANCH  15  16
ATOM     16  C   UNL     1       2.077   1.792  19.582  0.00  0.00    +0.000 C 
ATOM     17  C   UNL     1       0.965   2.287  18.669  0.00  0.00    +0.000 C 
ENDBRANCH  15  16
ENDBRANCH  13  15
ENDBRANCH   6  13
BRANCH   1  18
ATOM     18  S   UNL     1       2.449   9.020  18.146  0.00  0.00    +0.000 S 
BRANCH  18  19
ATOM     19  C   UNL     1       1.400  10.093  19.201  0.00  0.00    +0.000 C 
BRANCH  19  20
ATOM     20  C   UNL     1       0.049  10.326  18.576  0.00  0.00    +0.000 C 
ATOM     21  O   UNL     1      -0.390   9.690  17.611  0.00  0.00    +0.000 OA
BRANCH  20  22
ATOM     22  O   UNL     1      -0.659  11.278  19.244  0.00  0.00    +0.000 OA
BRANCH  22  24
ATOM     23  C   UNL     1      -0.350  13.538  18.388  0.00  0.00    +0.000 C 
ATOM     24  C   UNL     1      -1.218  12.292  18.389  0.00  0.00    +0.000 C 
ENDBRANCH  22  24
ENDBRANCH  20  22
ENDBRANCH  19  20
ENDBRANCH  18  19
ENDBRANCH   1  18
TORSDOF 8
ENDMDL
