MODEL 1
REMARK VINA RESULT:      -8.5      0.000      0.000
REMARK  Name = 
REMARK  5 active torsions:
REMARK  status: ('A' for Active; 'I' for Inactive)
REMARK    1  A    between atoms: C_1  and  O_2
REMARK    2  A    between atoms: O_2  and  C_3
REMARK    3  A    between atoms: C_6  and  C_7
REMARK    4  A    between atoms: C_7  and  N_8
REMARK    5  A    between atoms: C_13  and  C_14
REMARK                            x       y       z     vdW  Elec       q    Type
REMARK                         _______ _______ _______ _____ _____    ______ ____
ROOT
ATOM      1  N   UNL     1       5.637   5.125  16.807  0.00  0.00    +0.000 N 
ATOM      2  N   UNL     1       6.504   4.879  17.862  0.00  0.00    +0.000 NA
ATOM      3  C   UNL     1       7.107   6.017  18.028  0.00  0.00    +0.000 A 
ATOM      4  C   UNL     1       8.127   6.335  19.027  0.00  0.00    +0.000 A 
ATOM      5  C   UNL     1       8.607   7.581  19.057  0.00  0.00    +0.000 A 
ATOM      6  C   UNL     1       8.058   8.577  18.085  0.00  0.00    +0.000 A 
ATOM      7  N   UNL     1       7.169   8.291  17.178  0.00  0.00    +0.000 NA
ATOM      8  N   UNL     1       6.728   7.001  17.180  0.00  0.00    +0.000 N 
ATOM      9  C   UNL     1       5.744   6.464  16.370  0.00  0.00    +0.000 A 
ATOM     10  O   UNL     1       5.078   7.000  15.497  0.00  0.00    +0.000 OA
ENDROOT
BRANCH   6  11
ATOM     11  C   UNL     1       8.592   9.971  18.177  0.00  0.00    +0.000 A 
ATOM     12  C   UNL     1       9.725  10.216  18.967  0.00  0.00    +0.000 A 
ATOM     13  C   UNL     1      10.254  11.507  19.063  0.00  0.00    +0.000 A 
ATOM     14  C   UNL     1       9.659  12.555  18.366  0.00  0.00    +0.000 A 
ATOM     15 CL   UNL     1      10.313  14.142  18.471  0.00  0.00    +0.000 Cl
ATOM     16  C   UNL     1       8.538  12.323  17.570  0.00  0.00    +0.000 A 
ATOM     17  C   UNL     1       8.009  11.033  17.469  0.00  0.00    +0.000 A 
ENDBRANCH   6  11
BRANCH   1  18
ATOM     18  C   UNL     1       4.680   4.157  16.335  0.00  0.00    +0.000 C 
BRANCH  18  22
ATOM     19  C   UNL     1       1.850   2.941  19.389  0.00  0.00    +0.000 A 
ATOM     20  C   UNL     1       2.596   1.990  18.685  0.00  0.00    +0.000 A 
ATOM     21  C   UNL     1       3.516   2.380  17.706  0.00  0.00    +0.000 A 
ATOM     22  C   UNL     1       3.700   3.734  17.402  0.00  0.00    +0.000 A 
ATOM     23  C   UNL     1       2.964   4.688  18.117  0.00  0.00    +0.000 A 
ATOM     24  C   UNL     1       2.049   4.292  19.094  0.00  0.00    +0.000 A 
ATOM     25  F   UNL     1       1.369   5.257  19.731  0.00  0.00    +0.000 F 
BRANCH  19  27
ATOM     26  C   UNL     1       1.343   2.552  21.681  0.00  0.00    +0.000 C 
ATOM     27  O   UNL     1       0.990   2.409  20.311  0.00  0.00    +0.000 OA
ENDBRANCH  19  27
ENDBRANCH  18  22
ENDBRANCH   1  18
TORSDOF 4
ENDMDL
MODEL 2
REMARK VINA RESULT:      -8.4      5.671      7.809
REMARK  Name = 
REMARK  5 active torsions:
REMARK  status: ('A' for Active; 'I' for Inactive)
REMARK    1  A    between atoms: C_1  and  O_2
REMARK    2  A    between atoms: O_2  and  C_3
REMARK    3  A    between atoms: C_6  and  C_7
REMARK    4  A    between atoms: C_7  and  N_8
REMARK    5  A    between atoms: C_13  and  C_14
REMARK                            x       y       z     vdW  Elec       q    Type
REMARK                         _______ _______ _______ _____ _____    ______ ____
ROOT
ATOM      1  N   UNL     1       3.076   5.802  18.889  0.00  0.00    +0.000 N 
ATOM      2  N   UNL     1       3.030   6.859  17.991  0.00  0.00    +0.000 NA
ATOM      3  C   UNL     1       2.281   7.732  18.594  0.00  0.00    +0.000 A 
ATOM      4  C   UNL     1       1.905   9.057  18.102  0.00  0.00    +0.000 A 
ATOM      5  C   UNL     1       1.146   9.826  18.889  0.00  0.00    +0.000 A 
ATOM      6  C   UNL     1       0.746   9.293  20.228  0.00  0.00    +0.000 A 
ATOM      7  N   UNL     1       1.058   8.104  20.658  0.00  0.00    +0.000 NA
ATOM      8  N   UNL     1       1.817   7.356  19.808  0.00  0.00    +0.000 N 
ATOM      9  C   UNL     1       2.334   6.097  20.053  0.00  0.00    +0.000 A 
ATOM     10  O   UNL     1       2.226   5.393  21.046  0.00  0.00    +0.000 OA
ENDROOT
BRANCH   6  11
ATOM     11  C   UNL     1      -0.069  10.198  21.095  0.00  0.00    +0.000 A 
ATOM     12  C   UNL     1      -0.569  11.391  20.554  0.00  0.00    +0.000 A 
ATOM     13  C   UNL     1      -1.345  12.252  21.337  0.00  0.00    +0.000 A 
ATOM     14  C   UNL     1      -1.630  11.921  22.660  0.00  0.00    +0.000 A 
ATOM     15 CL   UNL     1      -2.594  12.970  23.623  0.00  0.00    +0.000 Cl
ATOM     16  C   UNL     1      -1.146  10.733  23.207  0.00  0.00    +0.000 A 
ATOM     17  C   UNL     1      -0.373   9.869  22.426  0.00  0.00    +0.000 A 
ENDBRANCH   6  11
BRANCH   1  18
ATOM     18  C   UNL     1       3.888   4.629  18.680  0.00  0.00    +0.000 C 
BRANCH  18  22
ATOM     19  C   UNL     1       6.930   5.192  15.640  0.00  0.00    +0.000 A 
ATOM     20  C   UNL     1       5.903   4.260  15.460  0.00  0.00    +0.000 A 
ATOM     21  C   UNL     1       4.916   4.083  16.435  0.00  0.00    +0.000 A 
ATOM     22  C   UNL     1       4.943   4.829  17.620  0.00  0.00    +0.000 A 
ATOM     23  C   UNL     1       5.964   5.774  17.794  0.00  0.00    +0.000 A 
ATOM     24  C   UNL     1       6.945   5.946  16.816  0.00  0.00    +0.000 A 
ATOM     25  F   UNL     1       7.899   6.859  17.053  0.00  0.00    +0.000 F 
BRANCH  19  27
ATOM     26  C   UNL     1       7.349   4.861  13.321  0.00  0.00    +0.000 C 
ATOM     27  O   UNL     1       7.824   5.250  14.604  0.00  0.00    +0.000 OA
ENDBRANCH  19  27
ENDBRANCH  18  22
ENDBRANCH   1  18
TORSDOF 4
ENDMDL
MODEL 3
REMARK VINA RESULT:      -8.2      5.516      7.778
REMARK  Name = 
REMARK  5 active torsions:
REMARK  status: ('A' for Active; 'I' for Inactive)
REMARK    1  A    between atoms: C_1  and  O_2
REMARK    2  A    between atoms: O_2  and  C_3
REMARK    3  A    between atoms: C_6  and  C_7
REMARK    4  A    between atoms: C_7  and  N_8
REMARK    5  A    between atoms: C_13  and  C_14
REMARK                            x       y       z     vdW  Elec       q    Type
REMARK                         _______ _______ _______ _____ _____    ______ ____
ROOT
ATOM      1  N   UNL     1       3.307   5.614  18.818  0.00  0.00    +0.000 N 
ATOM      2  N   UNL     1       3.234   6.670  17.921  0.00  0.00    +0.000 NA
ATOM      3  C   UNL     1       2.468   7.526  18.527  0.00  0.00    +0.000 A 
ATOM      4  C   UNL     1       2.060   8.842  18.036  0.00  0.00    +0.000 A 
ATOM      5  C   UNL     1       1.287   9.594  18.826  0.00  0.00    +0.000 A 
ATOM      6  C   UNL     1       0.906   9.053  20.168  0.00  0.00    +0.000 A 
ATOM      7  N   UNL     1       1.246   7.871  20.596  0.00  0.00    +0.000 NA
ATOM      8  N   UNL     1       2.018   7.140  19.742  0.00  0.00    +0.000 N 
ATOM      9  C   UNL     1       2.564   5.893  19.986  0.00  0.00    +0.000 A 
ATOM     10  O   UNL     1       2.476   5.186  20.979  0.00  0.00    +0.000 OA
ENDROOT
BRANCH   6  11
ATOM     11  C   UNL     1       0.074   9.939  21.038  0.00  0.00    +0.000 A 
ATOM     12  C   UNL     1      -0.525  11.076  20.478  0.00  0.00    +0.000 A 
ATOM     13  C   UNL     1      -1.318  11.918  21.264  0.00  0.00    +0.000 A 
ATOM     14  C   UNL     1      -1.521  11.623  22.611  0.00  0.00    +0.000 A 
ATOM     15 CL   UNL     1      -2.506  12.648  23.579  0.00  0.00    +0.000 Cl
ATOM     16  C   UNL     1      -0.939  10.490  23.178  0.00  0.00    +0.000 A 
ATOM     17  C   UNL     1      -0.149   9.645  22.393  0.00  0.00    +0.000 A 
ENDBRANCH   6  11
BRANCH   1  18
ATOM     18  C   UNL     1       4.145   4.461  18.606  0.00  0.00    +0.000 C 
BRANCH  18  22
ATOM     19  C   UNL     1       6.938   5.010  15.334  0.00  0.00    +0.000 A 
ATOM     20  C   UNL     1       7.271   5.406  16.633  0.00  0.00    +0.000 A 
ATOM     21  C   UNL     1       6.376   5.221  17.692  0.00  0.00    +0.000 A 
ATOM     22  C   UNL     1       5.119   4.646  17.469  0.00  0.00    +0.000 A 
ATOM     23  C   UNL     1       4.790   4.235  16.169  0.00  0.00    +0.000 A 
ATOM     24  C   UNL     1       5.690   4.421  15.118  0.00  0.00    +0.000 A 
ATOM     25  F   UNL     1       5.306   4.016  13.898  0.00  0.00    +0.000 F 
BRANCH  19  27
ATOM     26  C   UNL     1       7.568   5.057  13.039  0.00  0.00    +0.000 C 
ATOM     27  O   UNL     1       7.912   5.258  14.404  0.00  0.00    +0.000 OA
ENDBRANCH  19  27
ENDBRANCH  18  22
ENDBRANCH   1  18
TORSDOF 4
ENDMDL
MODEL 4
REMARK VINA RESULT:      -8.0      0.950      1.471
REMARK  Name = 
REMARK  5 active torsions:
REMARK  status: ('A' for Active; 'I' for Inactive)
REMARK    1  A    between atoms: C_1  and  O_2
REMARK    2  A    between atoms: O_2  and  C_3
REMARK    3  A    between atoms: C_6  and  C_7
REMARK    4  A    between atoms: C_7  and  N_8
REMARK    5  A    between atoms: C_13  and  C_14
REMARK                            x       y       z     vdW  Elec       q    Type
REMARK                         _______ _______ _______ _____ _____    ______ ____
ROOT
ATOM      1  N   UNL     1       5.601   5.134  16.807  0.00  0.00    +0.000 N 
ATOM      2  N   UNL     1       6.474   4.873  17.853  0.00  0.00    +0.000 NA
ATOM      3  C   UNL     1       7.088   6.004  18.022  0.00  0.00    +0.000 A 
ATOM      4  C   UNL     1       8.119   6.306  19.014  0.00  0.00    +0.000 A 
ATOM      5  C   UNL     1       8.612   7.548  19.049  0.00  0.00    +0.000 A 
ATOM      6  C   UNL     1       8.064   8.555  18.088  0.00  0.00    +0.000 A 
ATOM      7  N   UNL     1       7.166   8.283  17.186  0.00  0.00    +0.000 NA
ATOM      8  N   UNL     1       6.713   6.997  17.183  0.00  0.00    +0.000 N 
ATOM      9  C   UNL     1       5.717   6.474  16.378  0.00  0.00    +0.000 A 
ATOM     10  O   UNL     1       5.049   7.022  15.513  0.00  0.00    +0.000 OA
ENDROOT
BRANCH   6  11
ATOM     11  C   UNL     1       8.612   9.943  18.185  0.00  0.00    +0.000 A 
ATOM     12  C   UNL     1       7.971  10.978  17.491  0.00  0.00    +0.000 A 
ATOM     13  C   UNL     1       8.453  12.289  17.571  0.00  0.00    +0.000 A 
ATOM     14  C   UNL     1       9.573  12.570  18.351  0.00  0.00    +0.000 A 
ATOM     15 CL   UNL     1      10.163  14.182  18.463  0.00  0.00    +0.000 Cl
ATOM     16  C   UNL     1      10.214  11.551  19.054  0.00  0.00    +0.000 A 
ATOM     17  C   UNL     1       9.732  10.241  18.978  0.00  0.00    +0.000 A 
ENDBRANCH   6  11
BRANCH   1  18
ATOM     18  C   UNL     1       4.631   4.178  16.336  0.00  0.00    +0.000 C 
BRANCH  18  22
ATOM     19  C   UNL     1       1.952   2.838  19.472  0.00  0.00    +0.000 A 
ATOM     20  C   UNL     1       1.460   3.515  18.352  0.00  0.00    +0.000 A 
ATOM     21  C   UNL     1       2.321   3.940  17.335  0.00  0.00    +0.000 A 
ATOM     22  C   UNL     1       3.698   3.706  17.424  0.00  0.00    +0.000 A 
ATOM     23  C   UNL     1       4.190   3.014  18.539  0.00  0.00    +0.000 A 
ATOM     24  C   UNL     1       3.325   2.592  19.550  0.00  0.00    +0.000 A 
ATOM     25  F   UNL     1       3.864   1.946  20.595  0.00  0.00    +0.000 F 
BRANCH  19  27
ATOM     26  C   UNL     1       1.278   2.743  21.753  0.00  0.00    +0.000 C 
ATOM     27  O   UNL     1       0.991   2.489  20.383  0.00  0.00    +0.000 OA
ENDBRANCH  19  27
ENDBRANCH  18  22
ENDBRANCH   1  18
TORSDOF 4
ENDMDL
MODEL 5
REMARK VINA RESULT:      -7.9      7.965      9.916
REMARK  Name = 
REMARK  5 active torsions:
REMARK  status: ('A' for Active; 'I' for Inactive)
REMARK    1  A    between atoms: C_1  and  O_2
REMARK    2  A    between atoms: O_2  and  C_3
REMARK    3  A    between atoms: C_6  and  C_7
REMARK    4  A    between atoms: C_7  and  N_8
REMARK    5  A    between atoms: C_13  and  C_14
REMARK                            x       y       z     vdW  Elec       q    Type
REMARK                         _______ _______ _______ _____ _____    ______ ____
ROOT
ATOM      1  N   UNL     1       0.594  11.710  20.870  0.00  0.00    +0.000 N 
ATOM      2  N   UNL     1       0.832  11.669  19.503  0.00  0.00    +0.000 NA
ATOM      3  C   UNL     1       1.218  10.445  19.302  0.00  0.00    +0.000 A 
ATOM      4  C   UNL     1       1.591   9.840  18.024  0.00  0.00    +0.000 A 
ATOM      5  C   UNL     1       1.934   8.548  18.018  0.00  0.00    +0.000 A 
ATOM      6  C   UNL     1       1.896   7.799  19.313  0.00  0.00    +0.000 A 
ATOM      7  N   UNL     1       1.591   8.342  20.456  0.00  0.00    +0.000 NA
ATOM      8  N   UNL     1       1.267   9.665  20.406  0.00  0.00    +0.000 N 
ATOM      9  C   UNL     1       0.842  10.452  21.462  0.00  0.00    +0.000 A 
ATOM     10  O   UNL     1       0.675  10.154  22.635  0.00  0.00    +0.000 OA
ENDROOT
BRANCH   6  11
ATOM     11  C   UNL     1       2.248   6.347  19.259  0.00  0.00    +0.000 A 
ATOM     12  C   UNL     1       2.736   5.808  18.060  0.00  0.00    +0.000 A 
ATOM     13  C   UNL     1       3.085   4.456  17.982  0.00  0.00    +0.000 A 
ATOM     14  C   UNL     1       2.955   3.639  19.104  0.00  0.00    +0.000 A 
ATOM     15 CL   UNL     1       3.394   1.979  19.017  0.00  0.00    +0.000 Cl
ATOM     16  C   UNL     1       2.480   4.165  20.305  0.00  0.00    +0.000 A 
ATOM     17  C   UNL     1       2.134   5.517  20.386  0.00  0.00    +0.000 A 
ENDBRANCH   6  11
BRANCH   1  18
ATOM     18  C   UNL     1       0.045  12.863  21.537  0.00  0.00    +0.000 C 
BRANCH  18  22
ATOM     19  C   UNL     1      -4.242  12.596  22.140  0.00  0.00    +0.000 A 
ATOM     20  C   UNL     1      -3.714  12.913  20.884  0.00  0.00    +0.000 A 
ATOM     21  C   UNL     1      -2.332  12.991  20.684  0.00  0.00    +0.000 A 
ATOM     22  C   UNL     1      -1.446  12.764  21.745  0.00  0.00    +0.000 A 
ATOM     23  C   UNL     1      -1.974  12.432  23.000  0.00  0.00    +0.000 A 
ATOM     24  C   UNL     1      -3.354  12.355  23.191  0.00  0.00    +0.000 A 
ATOM     25  F   UNL     1      -3.791  12.044  24.421  0.00  0.00    +0.000 F 
BRANCH  19  27
ATOM     26  C   UNL     1      -6.281  12.151  20.996  0.00  0.00    +0.000 C 
ATOM     27  O   UNL     1      -5.610  12.562  22.181  0.00  0.00    +0.000 OA
ENDBRANCH  19  27
ENDBRANCH  18  22
ENDBRANCH   1  18
TORSDOF 4
ENDMDL
MODEL 6
REMARK VINA RESULT:      -7.7      8.001      9.926
REMARK  Name = 
REMARK  5 active torsions:
REMARK  status: ('A' for Active; 'I' for Inactive)
REMARK    1  A    between atoms: C_1  and  O_2
REMARK    2  A    between atoms: O_2  and  C_3
REMARK    3  A    between atoms: C_6  and  C_7
REMARK    4  A    between atoms: C_7  and  N_8
REMARK    5  A    between atoms: C_13  and  C_14
REMARK                            x       y       z     vdW  Elec       q    Type
REMARK                         _______ _______ _______ _____ _____    ______ ____
ROOT
ATOM      1  N   UNL     1       0.647  11.646  20.870  0.00  0.00    +0.000 N 
ATOM      2  N   UNL     1       0.875  11.619  19.502  0.00  0.00    +0.000 NA
ATOM      3  C   UNL     1       1.256  10.397  19.285  0.00  0.00    +0.000 A 
ATOM      4  C   UNL     1       1.617   9.803  17.998  0.00  0.00    +0.000 A 
ATOM      5  C   UNL     1       1.957   8.511  17.976  0.00  0.00    +0.000 A 
ATOM      6  C   UNL     1       1.926   7.748  19.263  0.00  0.00    +0.000 A 
ATOM      7  N   UNL     1       1.631   8.280  20.414  0.00  0.00    +0.000 NA
ATOM      8  N   UNL     1       1.311   9.605  20.380  0.00  0.00    +0.000 N 
ATOM      9  C   UNL     1       0.896  10.381  21.447  0.00  0.00    +0.000 A 
ATOM     10  O   UNL     1       0.737  10.071  22.618  0.00  0.00    +0.000 OA
ENDROOT
BRANCH   6  11
ATOM     11  C   UNL     1       2.274   6.296  19.191  0.00  0.00    +0.000 A 
ATOM     12  C   UNL     1       1.992   5.473  20.290  0.00  0.00    +0.000 A 
ATOM     13  C   UNL     1       2.296   4.108  20.249  0.00  0.00    +0.000 A 
ATOM     14  C   UNL     1       2.875   3.560  19.106  0.00  0.00    +0.000 A 
ATOM     15 CL   UNL     1       3.238   1.880  19.045  0.00  0.00    +0.000 Cl
ATOM     16  C   UNL     1       3.152   4.366  18.002  0.00  0.00    +0.000 A 
ATOM     17  C   UNL     1       2.846   5.730  18.041  0.00  0.00    +0.000 A 
ENDBRANCH   6  11
BRANCH   1  18
ATOM     18  C   UNL     1       0.106  12.794  21.553  0.00  0.00    +0.000 C 
BRANCH  18  22
ATOM     19  C   UNL     1      -4.191  12.545  22.085  0.00  0.00    +0.000 A 
ATOM     20  C   UNL     1      -3.324  12.353  23.166  0.00  0.00    +0.000 A 
ATOM     21  C   UNL     1      -1.938  12.441  22.999  0.00  0.00    +0.000 A 
ATOM     22  C   UNL     1      -1.389  12.713  21.740  0.00  0.00    +0.000 A 
ATOM     23  C   UNL     1      -2.258  12.921  20.660  0.00  0.00    +0.000 A 
ATOM     24  C   UNL     1      -3.640  12.832  20.834  0.00  0.00    +0.000 A 
ATOM     25  F   UNL     1      -4.412  13.030  19.755  0.00  0.00    +0.000 F 
BRANCH  19  27
ATOM     26  C   UNL     1      -6.139  13.544  23.017  0.00  0.00    +0.000 C 
ATOM     27  O   UNL     1      -5.517  12.423  22.402  0.00  0.00    +0.000 OA
ENDBRANCH  19  27
ENDBRANCH  18  22
ENDBRANCH   1  18
TORSDOF 4
ENDMDL
MODEL 7
REMARK VINA RESULT:      -7.6      7.650      9.560
REMARK  Name = 
REMARK  5 active torsions:
REMARK  status: ('A' for Active; 'I' for Inactive)
REMARK    1  A    between atoms: C_1  and  O_2
REMARK    2  A    between atoms: O_2  and  C_3
REMARK    3  A    between atoms: C_6  and  C_7
REMARK    4  A    between atoms: C_7  and  N_8
REMARK    5  A    between atoms: C_13  and  C_14
REMARK                            x       y       z     vdW  Elec       q    Type
REMARK                         _______ _______ _______ _____ _____    ______ ____
ROOT
ATOM      1  N   UNL     1      -0.168  11.168  20.009  0.00  0.00    +0.000 N 
ATOM      2  N   UNL     1       0.500  11.117  18.794  0.00  0.00    +0.000 NA
ATOM      3  C   UNL     1       1.127   9.981  18.843  0.00  0.00    +0.000 A 
ATOM      4  C   UNL     1       1.986   9.405  17.809  0.00  0.00    +0.000 A 
ATOM      5  C   UNL     1       2.520   8.201  18.037  0.00  0.00    +0.000 A 
ATOM      6  C   UNL     1       2.192   7.511  19.323  0.00  0.00    +0.000 A 
ATOM      7  N   UNL     1       1.449   8.033  20.257  0.00  0.00    +0.000 NA
ATOM      8  N   UNL     1       0.946   9.269  19.979  0.00  0.00    +0.000 N 
ATOM      9  C   UNL     1       0.080  10.004  20.769  0.00  0.00    +0.000 A 
ATOM     10  O   UNL     1      -0.404   9.727  21.856  0.00  0.00    +0.000 OA
ENDROOT
BRANCH   6  11
ATOM     11  C   UNL     1       2.777   6.150  19.523  0.00  0.00    +0.000 A 
ATOM     12  C   UNL     1       2.101   5.231  20.338  0.00  0.00    +0.000 A 
ATOM     13  C   UNL     1       2.618   3.946  20.535  0.00  0.00    +0.000 A 
ATOM     14  C   UNL     1       3.808   3.574  19.913  0.00  0.00    +0.000 A 
ATOM     15 CL   UNL     1       4.441   1.991  20.142  0.00  0.00    +0.000 Cl
ATOM     16  C   UNL     1       4.485   4.475  19.093  0.00  0.00    +0.000 A 
ATOM     17  C   UNL     1       3.968   5.759  18.891  0.00  0.00    +0.000 A 
ENDBRANCH   6  11
BRANCH   1  18
ATOM     18  C   UNL     1      -1.085  12.224  20.357  0.00  0.00    +0.000 C 
BRANCH  18  22
ATOM     19  C   UNL     1      -4.956  11.776  18.453  0.00  0.00    +0.000 A 
ATOM     20  C   UNL     1      -4.820  12.515  19.633  0.00  0.00    +0.000 A 
ATOM     21  C   UNL     1      -3.571  12.668  20.244  0.00  0.00    +0.000 A 
ATOM     22  C   UNL     1      -2.431  12.073  19.692  0.00  0.00    +0.000 A 
ATOM     23  C   UNL     1      -2.564  11.345  18.501  0.00  0.00    +0.000 A 
ATOM     24  C   UNL     1      -3.813  11.197  17.896  0.00  0.00    +0.000 A 
ATOM     25  F   UNL     1      -3.870  10.478  16.765  0.00  0.00    +0.000 F 
BRANCH  19  27
ATOM     26  C   UNL     1      -7.268  12.205  18.825  0.00  0.00    +0.000 C 
ATOM     27  O   UNL     1      -6.238  11.711  17.976  0.00  0.00    +0.000 OA
ENDBRANCH  19  27
ENDBRANCH  18  22
ENDBRANCH   1  18
TORSDOF 4
ENDMDL
MODEL 8
REMARK VINA RESULT:      -7.6      7.093      8.199
REMARK  Name = 
REMARK  5 active torsions:
REMARK  status: ('A' for Active; 'I' for Inactive)
REMARK    1  A    between atoms: C_1  and  O_2
REMARK    2  A    between atoms: O_2  and  C_3
REMARK    3  A    between atoms: C_6  and  C_7
REMARK    4  A    between atoms: C_7  and  N_8
REMARK    5  A    between atoms: C_13  and  C_14
REMARK                            x       y       z     vdW  Elec       q    Type
REMARK                         _______ _______ _______ _____ _____    ______ ____
ROOT
ATOM      1  N   UNL     1       1.876   8.543  19.010  0.00  0.00    +0.000 N 
ATOM      2  N   UNL     1       1.733   7.939  20.251  0.00  0.00    +0.000 NA
ATOM      3  C   UNL     1       1.083   8.824  20.943  0.00  0.00    +0.000 A 
ATOM      4  C   UNL     1       0.647   8.706  22.334  0.00  0.00    +0.000 A 
ATOM      5  C   UNL     1      -0.041   9.722  22.863  0.00  0.00    +0.000 A 
ATOM      6  C   UNL     1      -0.340  10.905  21.997  0.00  0.00    +0.000 A 
ATOM      7  N   UNL     1       0.070  11.024  20.766  0.00  0.00    +0.000 NA
ATOM      8  N   UNL     1       0.783   9.967  20.284  0.00  0.00    +0.000 N 
ATOM      9  C   UNL     1       1.268   9.817  18.997  0.00  0.00    +0.000 A 
ATOM     10  O   UNL     1       1.178  10.571  18.040  0.00  0.00    +0.000 OA
ENDROOT
BRANCH   6  11
ATOM     11  C   UNL     1      -1.146  12.002  22.613  0.00  0.00    +0.000 A 
ATOM     12  C   UNL     1      -2.379  11.693  23.205  0.00  0.00    +0.000 A 
ATOM     13  C   UNL     1      -3.150  12.697  23.799  0.00  0.00    +0.000 A 
ATOM     14  C   UNL     1      -2.689  14.012  23.811  0.00  0.00    +0.000 A 
ATOM     15 CL   UNL     1      -3.627  15.248  24.552  0.00  0.00    +0.000 Cl
ATOM     16  C   UNL     1      -1.460  14.331  23.235  0.00  0.00    +0.000 A 
ATOM     17  C   UNL     1      -0.686  13.329  22.643  0.00  0.00    +0.000 A 
ENDBRANCH   6  11
BRANCH   1  18
ATOM     18  C   UNL     1       2.460   7.875  17.874  0.00  0.00    +0.000 C 
BRANCH  18  22
ATOM     19  C   UNL     1       3.452   3.728  18.668  0.00  0.00    +0.000 A 
ATOM     20  C   UNL     1       4.426   4.726  18.760  0.00  0.00    +0.000 A 
ATOM     21  C   UNL     1       4.107   6.066  18.513  0.00  0.00    +0.000 A 
ATOM     22  C   UNL     1       2.804   6.433  18.156  0.00  0.00    +0.000 A 
ATOM     23  C   UNL     1       1.824   5.434  18.079  0.00  0.00    +0.000 A 
ATOM     24  C   UNL     1       2.149   4.100  18.327  0.00  0.00    +0.000 A 
ATOM     25  F   UNL     1       1.164   3.195  18.224  0.00  0.00    +0.000 F 
BRANCH  19  27
ATOM     26  C   UNL     1       4.374   2.212  20.254  0.00  0.00    +0.000 C 
ATOM     27  O   UNL     1       3.914   2.466  18.932  0.00  0.00    +0.000 OA
ENDBRANCH  19  27
ENDBRANCH  18  22
ENDBRANCH   1  18
TORSDOF 4
ENDMDL
MODEL 9
REMARK VINA RESULT:      -7.6      7.297      8.393
REMARK  Name = 
REMARK  5 active torsions:
REMARK  status: ('A' for Active; 'I' for Inactive)
REMARK    1  A    between atoms: C_1  and  O_2
REMARK    2  A    between atoms: O_2  and  C_3
REMARK    3  A    between atoms: C_6  and  C_7
REMARK    4  A    between atoms: C_7  and  N_8
REMARK    5  A    between atoms: C_13  and  C_14
REMARK                            x       y       z     vdW  Elec       q    Type
REMARK                         _______ _______ _______ _____ _____    ______ ____
ROOT
ATOM      1  N   UNL     1       1.754   8.769  19.078  0.00  0.00    +0.000 N 
ATOM      2  N   UNL     1       1.546   8.113  20.283  0.00  0.00    +0.000 NA
ATOM      3  C   UNL     1       0.903   8.989  20.994  0.00  0.00    +0.000 A 
ATOM      4  C   UNL     1       0.414   8.822  22.362  0.00  0.00    +0.000 A 
ATOM      5  C   UNL     1      -0.257   9.837  22.916  0.00  0.00    +0.000 A 
ATOM      6  C   UNL     1      -0.484  11.068  22.097  0.00  0.00    +0.000 A 
ATOM      7  N   UNL     1      -0.026  11.230  20.888  0.00  0.00    +0.000 NA
ATOM      8  N   UNL     1       0.667  10.171  20.380  0.00  0.00    +0.000 N 
ATOM      9  C   UNL     1       1.191  10.063  19.105  0.00  0.00    +0.000 A 
ATOM     10  O   UNL     1       1.162  10.864  18.183  0.00  0.00    +0.000 OA
ENDROOT
BRANCH   6  11
ATOM     11  C   UNL     1      -1.272  12.165  22.737  0.00  0.00    +0.000 A 
ATOM     12  C   UNL     1      -2.553  11.884  23.232  0.00  0.00    +0.000 A 
ATOM     13  C   UNL     1      -3.311  12.887  23.847  0.00  0.00    +0.000 A 
ATOM     14  C   UNL     1      -2.787  14.172  23.975  0.00  0.00    +0.000 A 
ATOM     15 CL   UNL     1      -3.709  15.405  24.741  0.00  0.00    +0.000 Cl
ATOM     16  C   UNL     1      -1.511  14.462  23.495  0.00  0.00    +0.000 A 
ATOM     17  C   UNL     1      -0.751  13.461  22.884  0.00  0.00    +0.000 A 
ENDBRANCH   6  11
BRANCH   1  18
ATOM     18  C   UNL     1       2.355   8.133  17.932  0.00  0.00    +0.000 C 
BRANCH  18  22
ATOM     19  C   UNL     1       3.658   4.082  18.766  0.00  0.00    +0.000 A 
ATOM     20  C   UNL     1       2.368   4.334  18.289  0.00  0.00    +0.000 A 
ATOM     21  C   UNL     1       1.948   5.639  18.010  0.00  0.00    +0.000 A 
ATOM     22  C   UNL     1       2.810   6.723  18.216  0.00  0.00    +0.000 A 
ATOM     23  C   UNL     1       4.108   6.470  18.681  0.00  0.00    +0.000 A 
ATOM     24  C   UNL     1       4.520   5.164  18.955  0.00  0.00    +0.000 A 
ATOM     25  F   UNL     1       5.772   4.995  19.408  0.00  0.00    +0.000 F 
BRANCH  19  27
ATOM     26  C   UNL     1       3.951   2.333  20.353  0.00  0.00    +0.000 C 
ATOM     27  O   UNL     1       3.922   2.758  18.996  0.00  0.00    +0.000 OA
ENDBRANCH  19  27
ENDBRANCH  18  22
ENDBRANCH   1  18
TORSDOF 4
ENDMDL
