MODEL 1
REMARK VINA RESULT:      -7.8      0.000      0.000
REMARK  Name = 
REMARK  6 active torsions:
REMARK  status: ('A' for Active; 'I' for Inactive)
REMARK    1  A    between atoms: C_1  and  C_2
REMARK    2  A    between atoms: C_2  and  C_3
REMARK    3  A    between atoms: C_2  and  N_13
REMARK    4  A    between atoms: N_13  and  C_14
REMARK    5  A    between atoms: N_13  and  C_15
REMARK    6  A    between atoms: C_15  and  C_16
REMARK                            x       y       z     vdW  Elec       q    Type
REMARK                         _______ _______ _______ _____ _____    ______ ____
ROOT
ATOM      1  C   UNL     1       4.389   7.333  16.952  0.00  0.00    +0.000 C 
ATOM      2  C   UNL     1       4.021   5.893  17.384  0.00  0.00    +0.000 C 
ENDROOT
BRANCH   2   3
ATOM      3  C   UNL     1       2.936   5.839  18.481  0.00  0.00    +0.000 A 
ATOM      4  C   UNL     1       2.757   6.954  19.330  0.00  0.00    +0.000 A 
ATOM      5  C   UNL     1       1.964   6.869  20.471  0.00  0.00    +0.000 A 
ATOM      6  C   UNL     1       1.388   5.655  20.822  0.00  0.00    +0.000 A 
ATOM      7  C   UNL     1       1.506   4.539  19.991  0.00  0.00    +0.000 A 
ATOM      8  C   UNL     1       0.972   3.306  20.395  0.00  0.00    +0.000 A 
ATOM      9  C   UNL     1       1.036   2.186  19.570  0.00  0.00    +0.000 A 
ATOM     10  C   UNL     1       1.554   2.318  18.294  0.00  0.00    +0.000 A 
ATOM     11  C   UNL     1       2.104   3.538  17.888  0.00  0.00    +0.000 A 
ATOM     12  C   UNL     1       2.189   4.649  18.756  0.00  0.00    +0.000 A 
ENDBRANCH   2   3
BRANCH   2  13
ATOM     13  N   UNL     1       5.280   5.128  17.679  0.00  0.00    +0.000 NA
ATOM     14  C   UNL     1       5.383   4.693  19.077  0.00  0.00    +0.000 C 
BRANCH  13  15
ATOM     15  C   UNL     1       5.554   3.969  16.798  0.00  0.00    +0.000 C 
BRANCH  15  16
ATOM     16  C   UNL     1       6.116   4.282  15.431  0.00  0.00    +0.000 A 
ATOM     17  C   UNL     1       5.678   3.668  14.255  0.00  0.00    +0.000 A 
ATOM     18  C   UNL     1       6.344   3.918  13.057  0.00  0.00    +0.000 A 
ATOM     19  C   UNL     1       7.406   4.807  13.066  0.00  0.00    +0.000 A 
ATOM     20  N   UNL     1       7.798   5.492  14.158  0.00  0.00    +0.000 NA
ATOM     21  C   UNL     1       7.132   5.226  15.307  0.00  0.00    +0.000 A 
ENDBRANCH  15  16
ENDBRANCH  13  15
ENDBRANCH   2  13
TORSDOF 4
ENDMDL
MODEL 2
REMARK VINA RESULT:      -7.4      2.140      6.227
REMARK  Name = 
REMARK  6 active torsions:
REMARK  status: ('A' for Active; 'I' for Inactive)
REMARK    1  A    between atoms: C_1  and  C_2
REMARK    2  A    between atoms: C_2  and  C_3
REMARK    3  A    between atoms: C_2  and  N_13
REMARK    4  A    between atoms: N_13  and  C_14
REMARK    5  A    between atoms: N_13  and  C_15
REMARK    6  A    between atoms: C_15  and  C_16
REMARK                            x       y       z     vdW  Elec       q    Type
REMARK                         _______ _______ _______ _____ _____    ______ ____
ROOT
ATOM      1  C   UNL     1       3.821   2.976  19.941  0.00  0.00    +0.000 C 
ATOM      2  C   UNL     1       3.894   3.775  18.618  0.00  0.00    +0.000 C 
ENDROOT
BRANCH   2   3
ATOM      3  C   UNL     1       5.293   4.358  18.329  0.00  0.00    +0.000 A 
ATOM      4  C   UNL     1       6.006   4.991  19.372  0.00  0.00    +0.000 A 
ATOM      5  C   UNL     1       7.155   5.731  19.112  0.00  0.00    +0.000 A 
ATOM      6  C   UNL     1       7.580   5.911  17.802  0.00  0.00    +0.000 A 
ATOM      7  C   UNL     1       6.928   5.271  16.744  0.00  0.00    +0.000 A 
ATOM      8  C   UNL     1       7.331   5.516  15.423  0.00  0.00    +0.000 A 
ATOM      9  C   UNL     1       6.731   4.861  14.351  0.00  0.00    +0.000 A 
ATOM     10  C   UNL     1       5.783   3.885  14.604  0.00  0.00    +0.000 A 
ATOM     11  C   UNL     1       5.362   3.645  15.916  0.00  0.00    +0.000 A 
ATOM     12  C   UNL     1       5.844   4.399  17.009  0.00  0.00    +0.000 A 
ENDBRANCH   2   3
BRANCH   2  13
ATOM     13  N   UNL     1       2.759   4.758  18.570  0.00  0.00    +0.000 NA
ATOM     14  C   UNL     1       1.439   4.121  18.482  0.00  0.00    +0.000 C 
BRANCH  13  15
ATOM     15  C   UNL     1       2.730   5.766  19.656  0.00  0.00    +0.000 C 
BRANCH  15  16
ATOM     16  C   UNL     1       2.229   7.141  19.284  0.00  0.00    +0.000 A 
ATOM     17  C   UNL     1       2.402   7.713  18.022  0.00  0.00    +0.000 A 
ATOM     18  C   UNL     1       2.028   9.037  17.807  0.00  0.00    +0.000 A 
ATOM     19  C   UNL     1       1.452   9.739  18.853  0.00  0.00    +0.000 A 
ATOM     20  N   UNL     1       1.179   9.195  20.057  0.00  0.00    +0.000 NA
ATOM     21  C   UNL     1       1.557   7.907  20.235  0.00  0.00    +0.000 A 
ENDBRANCH  15  16
ENDBRANCH  13  15
ENDBRANCH   2  13
TORSDOF 4
ENDMDL
MODEL 3
REMARK VINA RESULT:      -7.3      2.038      6.199
REMARK  Name = 
REMARK  6 active torsions:
REMARK  status: ('A' for Active; 'I' for Inactive)
REMARK    1  A    between atoms: C_1  and  C_2
REMARK    2  A    between atoms: C_2  and  C_3
REMARK    3  A    between atoms: C_2  and  N_13
REMARK    4  A    between atoms: N_13  and  C_14
REMARK    5  A    between atoms: N_13  and  C_15
REMARK    6  A    between atoms: C_15  and  C_16
REMARK                            x       y       z     vdW  Elec       q    Type
REMARK                         _______ _______ _______ _____ _____    ______ ____
ROOT
ATOM      1  C   UNL     1       4.213   2.786  19.856  0.00  0.00    +0.000 C 
ATOM      2  C   UNL     1       4.148   3.597  18.540  0.00  0.00    +0.000 C 
ENDROOT
BRANCH   2   3
ATOM      3  C   UNL     1       5.467   4.324  18.201  0.00  0.00    +0.000 A 
ATOM      4  C   UNL     1       6.119   5.075  19.205  0.00  0.00    +0.000 A 
ATOM      5  C   UNL     1       7.172   5.930  18.894  0.00  0.00    +0.000 A 
ATOM      6  C   UNL     1       7.552   6.105  17.569  0.00  0.00    +0.000 A 
ATOM      7  C   UNL     1       6.961   5.354  16.550  0.00  0.00    +0.000 A 
ATOM      8  C   UNL     1       7.312   5.592  15.212  0.00  0.00    +0.000 A 
ATOM      9  C   UNL     1       6.773   4.831  14.178  0.00  0.00    +0.000 A 
ATOM     10  C   UNL     1       5.947   3.764  14.487  0.00  0.00    +0.000 A 
ATOM     11  C   UNL     1       5.578   3.530  15.815  0.00  0.00    +0.000 A 
ATOM     12  C   UNL     1       5.989   4.375  16.869  0.00  0.00    +0.000 A 
ENDBRANCH   2   3
BRANCH   2  13
ATOM     13  N   UNL     1       2.917   4.458  18.549  0.00  0.00    +0.000 NA
ATOM     14  C   UNL     1       1.674   3.698  18.371  0.00  0.00    +0.000 C 
BRANCH  13  15
ATOM     15  C   UNL     1       2.764   5.355  19.718  0.00  0.00    +0.000 C 
BRANCH  15  16
ATOM     16  C   UNL     1       2.374   6.784  19.423  0.00  0.00    +0.000 A 
ATOM     17  C   UNL     1       1.789   7.637  20.361  0.00  0.00    +0.000 A 
ATOM     18  C   UNL     1       1.338   8.894  19.965  0.00  0.00    +0.000 A 
ATOM     19  C   UNL     1       1.522   9.276  18.647  0.00  0.00    +0.000 A 
ATOM     20  N   UNL     1       2.167   8.522  17.733  0.00  0.00    +0.000 NA
ATOM     21  C   UNL     1       2.591   7.305  18.149  0.00  0.00    +0.000 A 
ENDBRANCH  15  16
ENDBRANCH  13  15
ENDBRANCH   2  13
TORSDOF 4
ENDMDL
MODEL 4
REMARK VINA RESULT:      -7.2      1.010      1.558
REMARK  Name = 
REMARK  6 active torsions:
REMARK  status: ('A' for Active; 'I' for Inactive)
REMARK    1  A    between atoms: C_1  and  C_2
REMARK    2  A    between atoms: C_2  and  C_3
REMARK    3  A    between atoms: C_2  and  N_13
REMARK    4  A    between atoms: N_13  and  C_14
REMARK    5  A    between atoms: N_13  and  C_15
REMARK    6  A    between atoms: C_15  and  C_16
REMARK                            x       y       z     vdW  Elec       q    Type
REMARK                         _______ _______ _______ _____ _____    ______ ____
ROOT
ATOM      1  C   UNL     1       6.205   4.859  18.795  0.00  0.00    +0.000 C 
ATOM      2  C   UNL     1       5.148   5.771  18.127  0.00  0.00    +0.000 C 
ENDROOT
BRANCH   2   3
ATOM      3  C   UNL     1       3.733   5.609  18.723  0.00  0.00    +0.000 A 
ATOM      4  C   UNL     1       3.175   6.669  19.472  0.00  0.00    +0.000 A 
ATOM      5  C   UNL     1       2.015   6.489  20.218  0.00  0.00    +0.000 A 
ATOM      6  C   UNL     1       1.426   5.232  20.287  0.00  0.00    +0.000 A 
ATOM      7  C   UNL     1       1.921   4.167  19.531  0.00  0.00    +0.000 A 
ATOM      8  C   UNL     1       1.353   2.891  19.664  0.00  0.00    +0.000 A 
ATOM      9  C   UNL     1       1.797   1.819  18.894  0.00  0.00    +0.000 A 
ATOM     10  C   UNL     1       2.753   2.041  17.917  0.00  0.00    +0.000 A 
ATOM     11  C   UNL     1       3.337   3.305  17.789  0.00  0.00    +0.000 A 
ATOM     12  C   UNL     1       3.015   4.373  18.656  0.00  0.00    +0.000 A 
ENDBRANCH   2   3
BRANCH   2  13
ATOM     13  N   UNL     1       5.244   5.628  16.635  0.00  0.00    +0.000 NA
ATOM     14  C   UNL     1       4.923   6.864  15.910  0.00  0.00    +0.000 C 
BRANCH  13  15
ATOM     15  C   UNL     1       6.524   5.091  16.117  0.00  0.00    +0.000 C 
BRANCH  15  16
ATOM     16  C   UNL     1       6.550   4.707  14.656  0.00  0.00    +0.000 A 
ATOM     17  C   UNL     1       5.639   3.825  14.071  0.00  0.00    +0.000 A 
ATOM     18  C   UNL     1       5.818   3.423  12.750  0.00  0.00    +0.000 A 
ATOM     19  C   UNL     1       6.885   3.948  12.039  0.00  0.00    +0.000 A 
ATOM     20  N   UNL     1       7.730   4.874  12.535  0.00  0.00    +0.000 NA
ATOM     21  C   UNL     1       7.529   5.243  13.823  0.00  0.00    +0.000 A 
ENDBRANCH  15  16
ENDBRANCH  13  15
ENDBRANCH   2  13
TORSDOF 4
ENDMDL
MODEL 5
REMARK VINA RESULT:      -7.2      1.369      2.965
REMARK  Name = 
REMARK  6 active torsions:
REMARK  status: ('A' for Active; 'I' for Inactive)
REMARK    1  A    between atoms: C_1  and  C_2
REMARK    2  A    between atoms: C_2  and  C_3
REMARK    3  A    between atoms: C_2  and  N_13
REMARK    4  A    between atoms: N_13  and  C_14
REMARK    5  A    between atoms: N_13  and  C_15
REMARK    6  A    between atoms: C_15  and  C_16
REMARK                            x       y       z     vdW  Elec       q    Type
REMARK                         _______ _______ _______ _____ _____    ______ ____
ROOT
ATOM      1  C   UNL     1       6.649   5.096  18.569  0.00  0.00    +0.000 C 
ATOM      2  C   UNL     1       5.246   5.224  17.930  0.00  0.00    +0.000 C 
ENDROOT
BRANCH   2   3
ATOM      3  C   UNL     1       4.312   4.039  18.256  0.00  0.00    +0.000 A 
ATOM      4  C   UNL     1       4.476   2.820  17.560  0.00  0.00    +0.000 A 
ATOM      5  C   UNL     1       3.523   1.810  17.646  0.00  0.00    +0.000 A 
ATOM      6  C   UNL     1       2.358   2.019  18.373  0.00  0.00    +0.000 A 
ATOM      7  C   UNL     1       2.174   3.192  19.108  0.00  0.00    +0.000 A 
ATOM      8  C   UNL     1       0.963   3.413  19.783  0.00  0.00    +0.000 A 
ATOM      9  C   UNL     1       0.766   4.552  20.558  0.00  0.00    +0.000 A 
ATOM     10  C   UNL     1       1.816   5.435  20.737  0.00  0.00    +0.000 A 
ATOM     11  C   UNL     1       3.020   5.233  20.056  0.00  0.00    +0.000 A 
ATOM     12  C   UNL     1       3.199   4.169  19.145  0.00  0.00    +0.000 A 
ENDBRANCH   2   3
BRANCH   2  13
ATOM     13  N   UNL     1       5.395   5.551  16.471  0.00  0.00    +0.000 NA
ATOM     14  C   UNL     1       4.905   6.890  16.122  0.00  0.00    +0.000 C 
BRANCH  13  15
ATOM     15  C   UNL     1       6.753   5.377  15.904  0.00  0.00    +0.000 C 
BRANCH  15  16
ATOM     16  C   UNL     1       6.830   4.817  14.504  0.00  0.00    +0.000 A 
ATOM     17  C   UNL     1       7.726   5.274  13.535  0.00  0.00    +0.000 A 
ATOM     18  C   UNL     1       7.637   4.794  12.231  0.00  0.00    +0.000 A 
ATOM     19  C   UNL     1       6.676   3.839  11.944  0.00  0.00    +0.000 A 
ATOM     20  N   UNL     1       5.856   3.301  12.869  0.00  0.00    +0.000 NA
ATOM     21  C   UNL     1       5.967   3.790  14.127  0.00  0.00    +0.000 A 
ENDBRANCH  15  16
ENDBRANCH  13  15
ENDBRANCH   2  13
TORSDOF 4
ENDMDL
MODEL 6
REMARK VINA RESULT:      -7.2      2.421      5.387
REMARK  Name = 
REMARK  6 active torsions:
REMARK  status: ('A' for Active; 'I' for Inactive)
REMARK    1  A    between atoms: C_1  and  C_2
REMARK    2  A    between atoms: C_2  and  C_3
REMARK    3  A    between atoms: C_2  and  N_13
REMARK    4  A    between atoms: N_13  and  C_14
REMARK    5  A    between atoms: N_13  and  C_15
REMARK    6  A    between atoms: C_15  and  C_16
REMARK                            x       y       z     vdW  Elec       q    Type
REMARK                         _______ _______ _______ _____ _____    ______ ____
ROOT
ATOM      1  C   UNL     1       6.471   5.427  18.786  0.00  0.00    +0.000 C 
ATOM      2  C   UNL     1       4.932   5.583  18.801  0.00  0.00    +0.000 C 
ENDROOT
BRANCH   2   3
ATOM      3  C   UNL     1       4.179   4.265  18.521  0.00  0.00    +0.000 A 
ATOM      4  C   UNL     1       4.312   3.649  17.257  0.00  0.00    +0.000 A 
ATOM      5  C   UNL     1       3.481   2.599  16.877  0.00  0.00    +0.000 A 
ATOM      6  C   UNL     1       2.459   2.187  17.722  0.00  0.00    +0.000 A 
ATOM      7  C   UNL     1       2.316   2.741  18.996  0.00  0.00    +0.000 A 
ATOM      8  C   UNL     1       1.238   2.358  19.810  0.00  0.00    +0.000 A 
ATOM      9  C   UNL     1       1.093   2.860  21.100  0.00  0.00    +0.000 A 
ATOM     10  C   UNL     1       2.080   3.680  21.619  0.00  0.00    +0.000 A 
ATOM     11  C   UNL     1       3.149   4.081  20.811  0.00  0.00    +0.000 A 
ATOM     12  C   UNL     1       3.244   3.709  19.452  0.00  0.00    +0.000 A 
ENDBRANCH   2   3
BRANCH   2  13
ATOM     13  N   UNL     1       4.544   6.748  17.936  0.00  0.00    +0.000 NA
ATOM     14  C   UNL     1       5.253   6.781  16.651  0.00  0.00    +0.000 C 
BRANCH  13  15
ATOM     15  C   UNL     1       3.093   6.911  17.684  0.00  0.00    +0.000 C 
BRANCH  15  16
ATOM     16  C   UNL     1       2.350   7.842  18.612  0.00  0.00    +0.000 A 
ATOM     17  C   UNL     1       2.080   7.549  19.951  0.00  0.00    +0.000 A 
ATOM     18  C   UNL     1       1.273   8.404  20.696  0.00  0.00    +0.000 A 
ATOM     19  C   UNL     1       0.790   9.551  20.089  0.00  0.00    +0.000 A 
ATOM     20  N   UNL     1       1.104   9.920  18.830  0.00  0.00    +0.000 NA
ATOM     21  C   UNL     1       1.890   9.066  18.132  0.00  0.00    +0.000 A 
ENDBRANCH  15  16
ENDBRANCH  13  15
ENDBRANCH   2  13
TORSDOF 4
ENDMDL
MODEL 7
REMARK VINA RESULT:      -7.0      2.424      5.384
REMARK  Name = 
REMARK  6 active torsions:
REMARK  status: ('A' for Active; 'I' for Inactive)
REMARK    1  A    between atoms: C_1  and  C_2
REMARK    2  A    between atoms: C_2  and  C_3
REMARK    3  A    between atoms: C_2  and  N_13
REMARK    4  A    between atoms: N_13  and  C_14
REMARK    5  A    between atoms: N_13  and  C_15
REMARK    6  A    between atoms: C_15  and  C_16
REMARK                            x       y       z     vdW  Elec       q    Type
REMARK                         _______ _______ _______ _____ _____    ______ ____
ROOT
ATOM      1  C   UNL     1       6.515   5.535  18.337  0.00  0.00    +0.000 C 
ATOM      2  C   UNL     1       4.998   5.581  18.633  0.00  0.00    +0.000 C 
ENDROOT
BRANCH   2   3
ATOM      3  C   UNL     1       4.300   4.213  18.475  0.00  0.00    +0.000 A 
ATOM      4  C   UNL     1       4.535   3.449  17.310  0.00  0.00    +0.000 A 
ATOM      5  C   UNL     1       3.760   2.332  17.013  0.00  0.00    +0.000 A 
ATOM      6  C   UNL     1       2.693   1.993  17.837  0.00  0.00    +0.000 A 
ATOM      7  C   UNL     1       2.450   2.697  19.019  0.00  0.00    +0.000 A 
ATOM      8  C   UNL     1       1.330   2.381  19.803  0.00  0.00    +0.000 A 
ATOM      9  C   UNL     1       1.084   3.035  21.007  0.00  0.00    +0.000 A 
ATOM     10  C   UNL     1       2.011   3.947  21.480  0.00  0.00    +0.000 A 
ATOM     11  C   UNL     1       3.121   4.280  20.699  0.00  0.00    +0.000 A 
ATOM     12  C   UNL     1       3.319   3.746  19.406  0.00  0.00    +0.000 A 
ENDBRANCH   2   3
BRANCH   2  13
ATOM     13  N   UNL     1       4.378   6.717  17.870  0.00  0.00    +0.000 NA
ATOM     14  C   UNL     1       4.950   6.899  16.531  0.00  0.00    +0.000 C 
BRANCH  13  15
ATOM     15  C   UNL     1       2.901   6.691  17.758  0.00  0.00    +0.000 C 
BRANCH  15  16
ATOM     16  C   UNL     1       2.153   7.799  18.461  0.00  0.00    +0.000 A 
ATOM     17  C   UNL     1       1.698   8.954  17.820  0.00  0.00    +0.000 A 
ATOM     18  C   UNL     1       1.138   9.985  18.570  0.00  0.00    +0.000 A 
ATOM     19  C   UNL     1       1.015   9.813  19.939  0.00  0.00    +0.000 A 
ATOM     20  N   UNL     1       1.353   8.678  20.583  0.00  0.00    +0.000 NA
ATOM     21  C   UNL     1       1.895   7.695  19.826  0.00  0.00    +0.000 A 
ENDBRANCH  15  16
ENDBRANCH  13  15
ENDBRANCH   2  13
TORSDOF 4
ENDMDL
MODEL 8
REMARK VINA RESULT:      -7.0      0.974      1.296
REMARK  Name = 
REMARK  6 active torsions:
REMARK  status: ('A' for Active; 'I' for Inactive)
REMARK    1  A    between atoms: C_1  and  C_2
REMARK    2  A    between atoms: C_2  and  C_3
REMARK    3  A    between atoms: C_2  and  N_13
REMARK    4  A    between atoms: N_13  and  C_14
REMARK    5  A    between atoms: N_13  and  C_15
REMARK    6  A    between atoms: C_15  and  C_16
REMARK                            x       y       z     vdW  Elec       q    Type
REMARK                         _______ _______ _______ _____ _____    ______ ____
ROOT
ATOM      1  C   UNL     1       4.761   7.140  16.168  0.00  0.00    +0.000 C 
ATOM      2  C   UNL     1       4.402   5.732  16.698  0.00  0.00    +0.000 C 
ENDROOT
BRANCH   2   3
ATOM      3  C   UNL     1       3.338   5.749  17.817  0.00  0.00    +0.000 A 
ATOM      4  C   UNL     1       3.158   6.924  18.579  0.00  0.00    +0.000 A 
ATOM      5  C   UNL     1       2.388   6.919  19.738  0.00  0.00    +0.000 A 
ATOM      6  C   UNL     1       1.836   5.728  20.196  0.00  0.00    +0.000 A 
ATOM      7  C   UNL     1       1.957   4.552  19.452  0.00  0.00    +0.000 A 
ATOM      8  C   UNL     1       1.450   3.346  19.963  0.00  0.00    +0.000 A 
ATOM      9  C   UNL     1       1.516   2.167  19.227  0.00  0.00    +0.000 A 
ATOM     10  C   UNL     1       2.009   2.205  17.934  0.00  0.00    +0.000 A 
ATOM     11  C   UNL     1       2.531   3.397  17.423  0.00  0.00    +0.000 A 
ATOM     12  C   UNL     1       2.616   4.574  18.199  0.00  0.00    +0.000 A 
ENDBRANCH   2   3
BRANCH   2  13
ATOM     13  N   UNL     1       5.666   4.986  17.017  0.00  0.00    +0.000 NA
ATOM     14  C   UNL     1       5.768   4.587  18.426  0.00  0.00    +0.000 C 
BRANCH  13  15
ATOM     15  C   UNL     1       5.953   3.807  16.166  0.00  0.00    +0.000 C 
BRANCH  15  16
ATOM     16  C   UNL     1       6.495   4.091  14.785  0.00  0.00    +0.000 A 
ATOM     17  C   UNL     1       7.463   5.061  14.517  0.00  0.00    +0.000 A 
ATOM     18  C   UNL     1       7.806   5.348  13.198  0.00  0.00    +0.000 A 
ATOM     19  C   UNL     1       7.196   4.627  12.186  0.00  0.00    +0.000 A 
ATOM     20  N   UNL     1       6.329   3.618  12.405  0.00  0.00    +0.000 NA
ATOM     21  C   UNL     1       6.015   3.364  13.698  0.00  0.00    +0.000 A 
ENDBRANCH  15  16
ENDBRANCH  13  15
ENDBRANCH   2  13
TORSDOF 4
ENDMDL
MODEL 9
REMARK VINA RESULT:      -7.0      1.663      3.053
REMARK  Name = 
REMARK  6 active torsions:
REMARK  status: ('A' for Active; 'I' for Inactive)
REMARK    1  A    between atoms: C_1  and  C_2
REMARK    2  A    between atoms: C_2  and  C_3
REMARK    3  A    between atoms: C_2  and  N_13
REMARK    4  A    between atoms: N_13  and  C_14
REMARK    5  A    between atoms: N_13  and  C_15
REMARK    6  A    between atoms: C_15  and  C_16
REMARK                            x       y       z     vdW  Elec       q    Type
REMARK                         _______ _______ _______ _____ _____    ______ ____
ROOT
ATOM      1  C   UNL     1       1.745   7.600  20.357  0.00  0.00    +0.000 C 
ATOM      2  C   UNL     1       1.866   6.516  19.260  0.00  0.00    +0.000 C 
ENDROOT
BRANCH   2   3
ATOM      3  C   UNL     1       2.024   5.087  19.823  0.00  0.00    +0.000 A 
ATOM      4  C   UNL     1       1.967   4.886  21.220  0.00  0.00    +0.000 A 
ATOM      5  C   UNL     1       2.333   3.669  21.787  0.00  0.00    +0.000 A 
ATOM      6  C   UNL     1       2.827   2.651  20.979  0.00  0.00    +0.000 A 
ATOM      7  C   UNL     1       2.863   2.794  19.590  0.00  0.00    +0.000 A 
ATOM      8  C   UNL     1       3.425   1.782  18.797  0.00  0.00    +0.000 A 
ATOM      9  C   UNL     1       3.437   1.875  17.408  0.00  0.00    +0.000 A 
ATOM     10  C   UNL     1       2.801   2.943  16.799  0.00  0.00    +0.000 A 
ATOM     11  C   UNL     1       2.254   3.965  17.581  0.00  0.00    +0.000 A 
ATOM     12  C   UNL     1       2.359   3.973  18.989  0.00  0.00    +0.000 A 
ENDBRANCH   2   3
BRANCH   2  13
ATOM     13  N   UNL     1       2.904   6.937  18.259  0.00  0.00    +0.000 NA
ATOM     14  C   UNL     1       2.769   8.336  17.834  0.00  0.00    +0.000 C 
BRANCH  13  15
ATOM     15  C   UNL     1       4.313   6.691  18.646  0.00  0.00    +0.000 C 
BRANCH  15  16
ATOM     16  C   UNL     1       5.171   5.967  17.635  0.00  0.00    +0.000 A 
ATOM     17  C   UNL     1       6.054   4.937  17.966  0.00  0.00    +0.000 A 
ATOM     18  C   UNL     1       6.904   4.418  16.992  0.00  0.00    +0.000 A 
ATOM     19  C   UNL     1       6.816   4.919  15.704  0.00  0.00    +0.000 A 
ATOM     20  N   UNL     1       5.912   5.844  15.322  0.00  0.00    +0.000 NA
ATOM     21  C   UNL     1       5.102   6.329  16.292  0.00  0.00    +0.000 A 
ENDBRANCH  15  16
ENDBRANCH  13  15
ENDBRANCH   2  13
TORSDOF 4
ENDMDL
