MODEL 1
REMARK VINA RESULT:      -5.7      0.000      0.000
REMARK  Name = 
REMARK  11 active torsions:
REMARK  status: ('A' for Active; 'I' for Inactive)
REMARK    1  A    between atoms: C_1  and  C_2
REMARK    2  A    between atoms: C_2  and  C_3
REMARK    3  A    between atoms: C_3  and  S_4
REMARK    4  A    between atoms: S_4  and  C_5
REMARK    5  A    between atoms: C_6  and  S_7
REMARK    6  A    between atoms: S_7  and  C_8
REMARK    7  A    between atoms: C_8  and  C_9
REMARK    8  A    between atoms: C_9  and  C_10
REMARK    9  A    between atoms: C_18  and  C_19
REMARK   10  A    between atoms: C_19  and  O_21
REMARK   11  A    between atoms: N_29  and  C_30
REMARK                            x       y       z     vdW  Elec       q    Type
REMARK                         _______ _______ _______ _____ _____    ______ ____
ROOT
ATOM      1  C   UNL     1      -1.482  12.047  20.055  0.00  0.00    +0.000 C 
ATOM      2  C   UNL     1      -0.666  11.126  20.567  0.00  0.00    +0.000 C 
ATOM      3  C   UNL     1      -0.533  11.369  22.066  0.00  0.00    +0.000 C 
ATOM      4  O   UNL     1       0.027  10.601  22.848  0.00  0.00    +0.000 OA
ATOM      5  C   UNL     1      -1.046  12.689  22.535  0.00  0.00    +0.000 C 
ATOM      6  C   UNL     1      -0.502  13.653  21.771  0.00  0.00    +0.000 C 
ATOM      7  C   UNL     1      -0.232  14.981  22.431  0.00  0.00    +0.000 C 
ATOM      8  C   UNL     1      -1.473  15.560  23.148  0.00  0.00    +0.000 C 
ATOM      9  C   UNL     1      -2.145  16.809  22.405  0.00  0.00    +0.000 C 
ATOM     10  C   UNL     1      -2.181  16.582  20.887  0.00  0.00    +0.000 C 
ATOM     11  C   UNL     1      -3.589  16.061  20.593  0.00  0.00    +0.000 C 
ATOM     12  C   UNL     1      -4.156  15.708  21.995  0.00  0.00    +0.000 C 
ATOM     13  C   UNL     1      -3.505  14.355  22.501  0.00  0.00    +0.000 C 
ATOM     14  O   UNL     1      -4.328  13.340  23.056  0.00  0.00    +0.000 OA
ATOM     15  C   UNL     1      -3.378  12.472  23.765  0.00  0.00    +0.000 C 
ATOM     16  C   UNL     1      -1.945  13.107  23.677  0.00  0.00    +0.000 C 
ATOM     17  N   UNL     1      -2.434  14.488  23.476  0.00  0.00    +0.000 NA
ATOM     18  N   UNL     1      -3.607  16.925  22.634  0.00  0.00    +0.000 NA
ATOM     19  C   UNL     1      -4.052  17.154  23.989  0.00  0.00    +0.000 C 
ATOM     20  C   UNL     1      -0.895  13.406  20.333  0.00  0.00    +0.000 C 
ATOM     21  O   UNL     1      -0.783  14.248  19.454  0.00  0.00    +0.000 OA
ENDROOT
BRANCH  10  22
ATOM     22  C   UNL     1      -1.714  17.711  20.004  0.00  0.00    +0.000 C 
ATOM     23  O   UNL     1      -0.987  18.630  20.340  0.00  0.00    +0.000 OA
BRANCH  22  24
ATOM     24  O   UNL     1      -2.104  17.528  18.715  0.00  0.00    +0.000 OA
ATOM     25  H   UNL     1      -1.709  18.171  18.083  0.00  0.00    +0.000 HD
ENDBRANCH  22  24
ENDBRANCH  10  22
BRANCH   1  26
ATOM     26  S   UNL     1      -2.884  11.806  19.061  0.00  0.00    +0.000 S 
BRANCH  26  27
ATOM     27  C   UNL     1      -2.054  11.508  17.428  0.00  0.00    +0.000 C 
BRANCH  27  29
ATOM     28  C   UNL     1      -2.831  10.449  15.309  0.00  0.00    +0.000 C 
ATOM     29  C   UNL     1      -2.348  10.181  16.737  0.00  0.00    +0.000 C 
ENDBRANCH  27  29
ENDBRANCH  26  27
ENDBRANCH   1  26
BRANCH   2  30
ATOM     30  S   UNL     1      -0.146   9.669  19.804  0.00  0.00    +0.000 S 
BRANCH  30  31
ATOM     31  C   UNL     1       1.249  10.306  18.745  0.00  0.00    +0.000 C 
BRANCH  31  32
ATOM     32  C   UNL     1       1.713   9.267  17.725  0.00  0.00    +0.000 C 
ATOM     33  C   UNL     1       2.249   7.999  18.390  0.00  0.00    +0.000 C 
ENDBRANCH  31  32
ENDBRANCH  30  31
ENDBRANCH   2  30
TORSDOF 8
ENDMDL
MODEL 2
REMARK VINA RESULT:      -5.6      2.177      2.693
REMARK  Name = 
REMARK  11 active torsions:
REMARK  status: ('A' for Active; 'I' for Inactive)
REMARK    1  A    between atoms: C_1  and  C_2
REMARK    2  A    between atoms: C_2  and  C_3
REMARK    3  A    between atoms: C_3  and  S_4
REMARK    4  A    between atoms: S_4  and  C_5
REMARK    5  A    between atoms: C_6  and  S_7
REMARK    6  A    between atoms: S_7  and  C_8
REMARK    7  A    between atoms: C_8  and  C_9
REMARK    8  A    between atoms: C_9  and  C_10
REMARK    9  A    between atoms: C_18  and  C_19
REMARK   10  A    between atoms: C_19  and  O_21
REMARK   11  A    between atoms: N_29  and  C_30
REMARK                            x       y       z     vdW  Elec       q    Type
REMARK                         _______ _______ _______ _____ _____    ______ ____
ROOT
ATOM      1  C   UNL     1      -0.275  11.921  19.714  0.00  0.00    +0.000 C 
ATOM      2  C   UNL     1      -0.176  10.999  20.672  0.00  0.00    +0.000 C 
ATOM      3  C   UNL     1      -0.381  11.674  22.024  0.00  0.00    +0.000 C 
ATOM      4  O   UNL     1      -0.500  11.072  23.090  0.00  0.00    +0.000 OA
ATOM      5  C   UNL     1      -0.322  13.165  21.995  0.00  0.00    +0.000 C 
ATOM      6  C   UNL     1       0.806  13.534  21.362  0.00  0.00    +0.000 C 
ATOM      7  C   UNL     1       1.467  14.807  21.823  0.00  0.00    +0.000 C 
ATOM      8  C   UNL     1       0.499  16.012  21.852  0.00  0.00    +0.000 C 
ATOM      9  C   UNL     1       0.740  17.084  20.688  0.00  0.00    +0.000 C 
ATOM     10  C   UNL     1       1.039  16.381  19.357  0.00  0.00    +0.000 C 
ATOM     11  C   UNL     1      -0.296  16.351  18.611  0.00  0.00    +0.000 C 
ATOM     12  C   UNL     1      -1.338  16.737  19.696  0.00  0.00    +0.000 C 
ATOM     13  C   UNL     1      -1.578  15.501  20.658  0.00  0.00    +0.000 C 
ATOM     14  O   UNL     1      -2.902  15.119  21.000  0.00  0.00    +0.000 OA
ATOM     15  C   UNL     1      -2.722  14.261  22.179  0.00  0.00    +0.000 C 
ATOM     16  C   UNL     1      -1.202  14.250  22.574  0.00  0.00    +0.000 C 
ATOM     17  N   UNL     1      -0.902  15.554  21.945  0.00  0.00    +0.000 NA
ATOM     18  N   UNL     1      -0.490  17.804  20.273  0.00  0.00    +0.000 NA
ATOM     19  C   UNL     1      -1.143  18.630  21.262  0.00  0.00    +0.000 C 
ATOM     20  C   UNL     1       0.775  12.973  19.958  0.00  0.00    +0.000 C 
ATOM     21  O   UNL     1       1.517  13.357  19.067  0.00  0.00    +0.000 OA
ENDROOT
BRANCH  10  22
ATOM     22  C   UNL     1       2.214  16.881  18.555  0.00  0.00    +0.000 C 
ATOM     23  O   UNL     1       3.242  16.265  18.329  0.00  0.00    +0.000 OA
BRANCH  22  24
ATOM     24  O   UNL     1       1.952  18.088  17.988  0.00  0.00    +0.000 OA
ATOM     25  H   UNL     1       1.046  18.427  18.172  0.00  0.00    +0.000 HD
ENDBRANCH  22  24
ENDBRANCH  10  22
BRANCH   1  26
ATOM     26  S   UNL     1      -1.272  11.891  18.294  0.00  0.00    +0.000 S 
BRANCH  26  27
ATOM     27  C   UNL     1      -2.945  11.965  19.093  0.00  0.00    +0.000 C 
BRANCH  27  29
ATOM     28  C   UNL     1      -3.672  10.064  17.652  0.00  0.00    +0.000 C 
ATOM     29  C   UNL     1      -4.112  11.377  18.306  0.00  0.00    +0.000 C 
ENDBRANCH  27  29
ENDBRANCH  26  27
ENDBRANCH   1  26
BRANCH   2  30
ATOM     30  S   UNL     1      -0.210   9.287  20.464  0.00  0.00    +0.000 S 
BRANCH  30  31
ATOM     31  C   UNL     1       1.523   8.974  19.850  0.00  0.00    +0.000 C 
BRANCH  31  32
ATOM     32  C   UNL     1       1.606   9.028  18.325  0.00  0.00    +0.000 C 
ATOM     33  C   UNL     1       2.652   8.064  17.766  0.00  0.00    +0.000 C 
ENDBRANCH  31  32
ENDBRANCH  30  31
ENDBRANCH   2  30
TORSDOF 8
ENDMDL
MODEL 3
REMARK VINA RESULT:      -5.5      2.204      2.682
REMARK  Name = 
REMARK  11 active torsions:
REMARK  status: ('A' for Active; 'I' for Inactive)
REMARK    1  A    between atoms: C_1  and  C_2
REMARK    2  A    between atoms: C_2  and  C_3
REMARK    3  A    between atoms: C_3  and  S_4
REMARK    4  A    between atoms: S_4  and  C_5
REMARK    5  A    between atoms: C_6  and  S_7
REMARK    6  A    between atoms: S_7  and  C_8
REMARK    7  A    between atoms: C_8  and  C_9
REMARK    8  A    between atoms: C_9  and  C_10
REMARK    9  A    between atoms: C_18  and  C_19
REMARK   10  A    between atoms: C_19  and  O_21
REMARK   11  A    between atoms: N_29  and  C_30
REMARK                            x       y       z     vdW  Elec       q    Type
REMARK                         _______ _______ _______ _____ _____    ______ ____
ROOT
ATOM      1  C   UNL     1       0.133  11.928  18.888  0.00  0.00    +0.000 C 
ATOM      2  C   UNL     1       0.494  10.865  19.607  0.00  0.00    +0.000 C 
ATOM      3  C   UNL     1       0.485  11.247  21.083  0.00  0.00    +0.000 C 
ATOM      4  O   UNL     1       0.624  10.447  22.009  0.00  0.00    +0.000 OA
ATOM      5  C   UNL     1       0.400  12.712  21.352  0.00  0.00    +0.000 C 
ATOM      6  C   UNL     1       1.351  13.332  20.629  0.00  0.00    +0.000 C 
ATOM      7  C   UNL     1       1.966  14.572  21.226  0.00  0.00    +0.000 C 
ATOM      8  C   UNL     1       0.915  15.617  21.660  0.00  0.00    +0.000 C 
ATOM      9  C   UNL     1       0.833  16.908  20.717  0.00  0.00    +0.000 C 
ATOM     10  C   UNL     1       0.941  16.507  19.239  0.00  0.00    +0.000 C 
ATOM     11  C   UNL     1      -0.502  16.446  18.735  0.00  0.00    +0.000 C 
ATOM     12  C   UNL     1      -1.353  16.489  20.033  0.00  0.00    +0.000 C 
ATOM     13  C   UNL     1      -1.293  15.076  20.748  0.00  0.00    +0.000 C 
ATOM     14  O   UNL     1      -2.489  14.472  21.219  0.00  0.00    +0.000 OA
ATOM     15  C   UNL     1      -2.014  13.442  22.151  0.00  0.00    +0.000 C 
ATOM     16  C   UNL     1      -0.452  13.550  22.277  0.00  0.00    +0.000 C 
ATOM     17  N   UNL     1      -0.396  14.976  21.889  0.00  0.00    +0.000 NA
ATOM     18  N   UNL     1      -0.514  17.530  20.668  0.00  0.00    +0.000 NA
ATOM     19  C   UNL     1      -1.043  18.069  21.899  0.00  0.00    +0.000 C 
ATOM     20  C   UNL     1       1.109  13.041  19.166  0.00  0.00    +0.000 C 
ATOM     21  O   UNL     1       1.632  13.675  18.261  0.00  0.00    +0.000 OA
ENDROOT
BRANCH  10  22
ATOM     22  C   UNL     1       1.894  17.292  18.374  0.00  0.00    +0.000 C 
ATOM     23  O   UNL     1       2.675  16.826  17.562  0.00  0.00    +0.000 OA
BRANCH  22  24
ATOM     24  O   UNL     1       1.702  18.631  18.509  0.00  0.00    +0.000 OA
ATOM     25  H   UNL     1       0.847  18.870  18.936  0.00  0.00    +0.000 HD
ENDBRANCH  22  24
ENDBRANCH  10  22
BRANCH   1  26
ATOM     26  S   UNL     1      -1.106  12.034  17.678  0.00  0.00    +0.000 S 
BRANCH  26  27
ATOM     27  C   UNL     1      -2.480  11.162  18.568  0.00  0.00    +0.000 C 
BRANCH  27  29
ATOM     28  C   UNL     1      -2.627   9.935  16.402  0.00  0.00    +0.000 C 
ATOM     29  C   UNL     1      -3.298  10.159  17.761  0.00  0.00    +0.000 C 
ENDBRANCH  27  29
ENDBRANCH  26  27
ENDBRANCH   1  26
BRANCH   2  30
ATOM     30  S   UNL     1       0.580   9.231  19.062  0.00  0.00    +0.000 S 
BRANCH  30  31
ATOM     31  C   UNL     1       2.088   9.305  17.969  0.00  0.00    +0.000 C 
BRANCH  31  32
ATOM     32  C   UNL     1       2.761   7.939  17.832  0.00  0.00    +0.000 C 
ATOM     33  C   UNL     1       2.519   7.047  19.049  0.00  0.00    +0.000 C 
ENDBRANCH  31  32
ENDBRANCH  30  31
ENDBRANCH   2  30
TORSDOF 8
ENDMDL
MODEL 4
REMARK VINA RESULT:      -5.5      2.044      4.433
REMARK  Name = 
REMARK  11 active torsions:
REMARK  status: ('A' for Active; 'I' for Inactive)
REMARK    1  A    between atoms: C_1  and  C_2
REMARK    2  A    between atoms: C_2  and  C_3
REMARK    3  A    between atoms: C_3  and  S_4
REMARK    4  A    between atoms: S_4  and  C_5
REMARK    5  A    between atoms: C_6  and  S_7
REMARK    6  A    between atoms: S_7  and  C_8
REMARK    7  A    between atoms: C_8  and  C_9
REMARK    8  A    between atoms: C_9  and  C_10
REMARK    9  A    between atoms: C_18  and  C_19
REMARK   10  A    between atoms: C_19  and  O_21
REMARK   11  A    between atoms: N_29  and  C_30
REMARK                            x       y       z     vdW  Elec       q    Type
REMARK                         _______ _______ _______ _____ _____    ______ ____
ROOT
ATOM      1  C   UNL     1      -1.190  12.126  21.125  0.00  0.00    +0.000 C 
ATOM      2  C   UNL     1      -0.650  12.388  19.936  0.00  0.00    +0.000 C 
ATOM      3  C   UNL     1      -0.605  13.899  19.740  0.00  0.00    +0.000 C 
ATOM      4  O   UNL     1      -0.026  14.463  18.812  0.00  0.00    +0.000 OA
ATOM      5  C   UNL     1      -1.420  14.682  20.715  0.00  0.00    +0.000 C 
ATOM      6  C   UNL     1      -2.663  14.168  20.740  0.00  0.00    +0.000 C 
ATOM      7  C   UNL     1      -3.797  15.126  20.995  0.00  0.00    +0.000 C 
ATOM      8  C   UNL     1      -3.589  15.979  22.267  0.00  0.00    +0.000 C 
ATOM      9  C   UNL     1      -4.526  15.572  23.500  0.00  0.00    +0.000 C 
ATOM     10  C   UNL     1      -4.633  14.045  23.618  0.00  0.00    +0.000 C 
ATOM     11  C   UNL     1      -3.609  13.653  24.684  0.00  0.00    +0.000 C 
ATOM     12  C   UNL     1      -2.751  14.934  24.867  0.00  0.00    +0.000 C 
ATOM     13  C   UNL     1      -1.764  15.087  23.636  0.00  0.00    +0.000 C 
ATOM     14  O   UNL     1      -0.396  15.390  23.863  0.00  0.00    +0.000 OA
ATOM     15  C   UNL     1       0.079  15.854  22.552  0.00  0.00    +0.000 C 
ATOM     16  C   UNL     1      -1.137  15.904  21.559  0.00  0.00    +0.000 C 
ATOM     17  N   UNL     1      -2.157  16.051  22.620  0.00  0.00    +0.000 NA
ATOM     18  N   UNL     1      -3.920  15.842  24.827  0.00  0.00    +0.000 NA
ATOM     19  C   UNL     1      -3.631  17.218  25.159  0.00  0.00    +0.000 C 
ATOM     20  C   UNL     1      -2.575  12.718  21.158  0.00  0.00    +0.000 C 
ATOM     21  O   UNL     1      -3.541  12.068  21.531  0.00  0.00    +0.000 OA
ENDROOT
BRANCH  10  22
ATOM     22  C   UNL     1      -6.009  13.457  23.798  0.00  0.00    +0.000 C 
ATOM     23  O   UNL     1      -6.351  12.327  23.496  0.00  0.00    +0.000 OA
BRANCH  22  24
ATOM     24  O   UNL     1      -6.830  14.308  24.469  0.00  0.00    +0.000 OA
ATOM     25  H   UNL     1      -6.509  15.238  24.490  0.00  0.00    +0.000 HD
ENDBRANCH  22  24
ENDBRANCH  10  22
BRANCH   1  26
ATOM     26  S   UNL     1      -0.559  11.123  22.393  0.00  0.00    +0.000 S 
BRANCH  26  27
ATOM     27  C   UNL     1      -0.418   9.518  21.472  0.00  0.00    +0.000 C 
BRANCH  27  29
ATOM     28  C   UNL     1       1.490   8.166  20.608  0.00  0.00    +0.000 C 
ATOM     29  C   UNL     1       0.731   8.595  21.867  0.00  0.00    +0.000 C 
ENDBRANCH  27  29
ENDBRANCH  26  27
ENDBRANCH   1  26
BRANCH   2  30
ATOM     30  S   UNL     1       0.218  11.286  18.931  0.00  0.00    +0.000 S 
BRANCH  30  31
ATOM     31  C   UNL     1      -1.186  10.430  18.053  0.00  0.00    +0.000 C 
BRANCH  31  32
ATOM     32  C   UNL     1      -2.108  11.423  17.347  0.00  0.00    +0.000 C 
ATOM     33  C   UNL     1      -2.691  10.856  16.053  0.00  0.00    +0.000 C 
ENDBRANCH  31  32
ENDBRANCH  30  31
ENDBRANCH   2  30
TORSDOF 8
ENDMDL
MODEL 5
REMARK VINA RESULT:      -5.4      2.130      2.629
REMARK  Name = 
REMARK  11 active torsions:
REMARK  status: ('A' for Active; 'I' for Inactive)
REMARK    1  A    between atoms: C_1  and  C_2
REMARK    2  A    between atoms: C_2  and  C_3
REMARK    3  A    between atoms: C_3  and  S_4
REMARK    4  A    between atoms: S_4  and  C_5
REMARK    5  A    between atoms: C_6  and  S_7
REMARK    6  A    between atoms: S_7  and  C_8
REMARK    7  A    between atoms: C_8  and  C_9
REMARK    8  A    between atoms: C_9  and  C_10
REMARK    9  A    between atoms: C_18  and  C_19
REMARK   10  A    between atoms: C_19  and  O_21
REMARK   11  A    between atoms: N_29  and  C_30
REMARK                            x       y       z     vdW  Elec       q    Type
REMARK                         _______ _______ _______ _____ _____    ______ ____
ROOT
ATOM      1  C   UNL     1      -0.578  11.910  19.751  0.00  0.00    +0.000 C 
ATOM      2  C   UNL     1      -0.367  10.970  20.672  0.00  0.00    +0.000 C 
ATOM      3  C   UNL     1      -0.306  11.634  22.044  0.00  0.00    +0.000 C 
ATOM      4  O   UNL     1      -0.274  11.022  23.111  0.00  0.00    +0.000 OA
ATOM      5  C   UNL     1      -0.176  13.120  22.015  0.00  0.00    +0.000 C 
ATOM      6  C   UNL     1       0.846  13.443  21.203  0.00  0.00    +0.000 C 
ATOM      7  C   UNL     1       1.639  14.674  21.554  0.00  0.00    +0.000 C 
ATOM      8  C   UNL     1       0.753  15.925  21.754  0.00  0.00    +0.000 C 
ATOM      9  C   UNL     1       0.849  17.001  20.573  0.00  0.00    +0.000 C 
ATOM     10  C   UNL     1       0.883  16.305  19.206  0.00  0.00    +0.000 C 
ATOM     11  C   UNL     1      -0.559  16.351  18.696  0.00  0.00    +0.000 C 
ATOM     12  C   UNL     1      -1.382  16.771  19.944  0.00  0.00    +0.000 C 
ATOM     13  C   UNL     1      -1.518  15.535  20.925  0.00  0.00    +0.000 C 
ATOM     14  O   UNL     1      -2.784  15.213  21.483  0.00  0.00    +0.000 OA
ATOM     15  C   UNL     1      -2.452  14.331  22.610  0.00  0.00    +0.000 C 
ATOM     16  C   UNL     1      -0.890  14.238  22.741  0.00  0.00    +0.000 C 
ATOM     17  N   UNL     1      -0.633  15.535  22.080  0.00  0.00    +0.000 NA
ATOM     18  N   UNL     1      -0.395  17.787  20.377  0.00  0.00    +0.000 NA
ATOM     19  C   UNL     1      -0.829  18.630  21.467  0.00  0.00    +0.000 C 
ATOM     20  C   UNL     1       0.550  12.905  19.821  0.00  0.00    +0.000 C 
ATOM     21  O   UNL     1       1.150  13.265  18.820  0.00  0.00    +0.000 OA
ENDROOT
BRANCH  10  22
ATOM     22  C   UNL     1       1.930  16.758  18.220  0.00  0.00    +0.000 C 
ATOM     23  O   UNL     1       2.063  17.888  17.784  0.00  0.00    +0.000 OA
BRANCH  22  24
ATOM     24  O   UNL     1       2.820  15.766  17.949  0.00  0.00    +0.000 OA
ATOM     25  H   UNL     1       2.697  15.350  17.065  0.00  0.00    +0.000 HD
ENDBRANCH  22  24
ENDBRANCH  10  22
BRANCH   1  26
ATOM     26  S   UNL     1      -1.801  11.950  18.520  0.00  0.00    +0.000 S 
BRANCH  26  27
ATOM     27  C   UNL     1      -1.272  10.483  17.515  0.00  0.00    +0.000 C 
BRANCH  27  29
ATOM     28  C   UNL     1      -2.738  10.395  15.500  0.00  0.00    +0.000 C 
ATOM     29  C   UNL     1      -2.372   9.695  16.812  0.00  0.00    +0.000 C 
ENDBRANCH  27  29
ENDBRANCH  26  27
ENDBRANCH   1  26
BRANCH   2  30
ATOM     30  S   UNL     1      -0.522   9.265  20.462  0.00  0.00    +0.000 S 
BRANCH  30  31
ATOM     31  C   UNL     1       1.190   8.696  20.933  0.00  0.00    +0.000 C 
BRANCH  31  32
ATOM     32  C   UNL     1       1.862   7.915  19.804  0.00  0.00    +0.000 C 
ATOM     33  C   UNL     1       1.869   8.690  18.486  0.00  0.00    +0.000 C 
ENDBRANCH  31  32
ENDBRANCH  30  31
ENDBRANCH   2  30
TORSDOF 8
ENDMDL
MODEL 6
REMARK VINA RESULT:      -5.4      3.075      6.033
REMARK  Name = 
REMARK  11 active torsions:
REMARK  status: ('A' for Active; 'I' for Inactive)
REMARK    1  A    between atoms: C_1  and  C_2
REMARK    2  A    between atoms: C_2  and  C_3
REMARK    3  A    between atoms: C_3  and  S_4
REMARK    4  A    between atoms: S_4  and  C_5
REMARK    5  A    between atoms: C_6  and  S_7
REMARK    6  A    between atoms: S_7  and  C_8
REMARK    7  A    between atoms: C_8  and  C_9
REMARK    8  A    between atoms: C_9  and  C_10
REMARK    9  A    between atoms: C_18  and  C_19
REMARK   10  A    between atoms: C_19  and  O_21
REMARK   11  A    between atoms: N_29  and  C_30
REMARK                            x       y       z     vdW  Elec       q    Type
REMARK                         _______ _______ _______ _____ _____    ______ ____
ROOT
ATOM      1  C   UNL     1      -4.238  14.806  21.879  0.00  0.00    +0.000 C 
ATOM      2  C   UNL     1      -4.768  14.613  23.086  0.00  0.00    +0.000 C 
ATOM      3  C   UNL     1      -3.659  14.205  24.049  0.00  0.00    +0.000 C 
ATOM      4  O   UNL     1      -3.798  14.103  25.268  0.00  0.00    +0.000 OA
ATOM      5  C   UNL     1      -2.373  13.820  23.397  0.00  0.00    +0.000 C 
ATOM      6  C   UNL     1      -2.636  12.908  22.443  0.00  0.00    +0.000 C 
ATOM      7  C   UNL     1      -1.584  11.861  22.187  0.00  0.00    +0.000 C 
ATOM      8  C   UNL     1      -0.186  12.464  21.922  0.00  0.00    +0.000 C 
ATOM      9  C   UNL     1       0.295  12.379  20.397  0.00  0.00    +0.000 C 
ATOM     10  C   UNL     1      -0.864  12.700  19.444  0.00  0.00    +0.000 C 
ATOM     11  C   UNL     1      -0.687  14.175  19.080  0.00  0.00    +0.000 C 
ATOM     12  C   UNL     1       0.361  14.688  20.104  0.00  0.00    +0.000 C 
ATOM     13  C   UNL     1      -0.331  14.876  21.517  0.00  0.00    +0.000 C 
ATOM     14  O   UNL     1      -0.109  16.066  22.259  0.00  0.00    +0.000 OA
ATOM     15  C   UNL     1      -0.537  15.711  23.619  0.00  0.00    +0.000 C 
ATOM     16  C   UNL     1      -0.929  14.191  23.649  0.00  0.00    +0.000 C 
ATOM     17  N   UNL     1      -0.087  13.823  22.491  0.00  0.00    +0.000 NA
ATOM     18  N   UNL     1       1.208  13.479  19.995  0.00  0.00    +0.000 NA
ATOM     19  C   UNL     1       2.482  13.566  20.669  0.00  0.00    +0.000 C 
ATOM     20  C   UNL     1      -3.583  13.523  21.438  0.00  0.00    +0.000 C 
ATOM     21  O   UNL     1      -3.788  13.046  20.332  0.00  0.00    +0.000 OA
ENDROOT
BRANCH  10  22
ATOM     22  C   UNL     1      -1.083  11.770  18.278  0.00  0.00    +0.000 C 
ATOM     23  O   UNL     1      -1.097  10.552  18.325  0.00  0.00    +0.000 OA
BRANCH  22  24
ATOM     24  O   UNL     1      -1.394  12.456  17.146  0.00  0.00    +0.000 OA
ATOM     25  H   UNL     1      -1.021  12.062  16.325  0.00  0.00    +0.000 HD
ENDBRANCH  22  24
ENDBRANCH  10  22
BRANCH   1  26
ATOM     26  S   UNL     1      -4.397  16.191  20.846  0.00  0.00    +0.000 S 
BRANCH  26  27
ATOM     27  C   UNL     1      -5.962  15.735  19.960  0.00  0.00    +0.000 C 
BRANCH  27  29
ATOM     28  C   UNL     1      -6.862  15.642  17.637  0.00  0.00    +0.000 C 
ATOM     29  C   UNL     1      -6.329  16.566  18.735  0.00  0.00    +0.000 C 
ENDBRANCH  27  29
ENDBRANCH  26  27
ENDBRANCH   1  26
BRANCH   2  30
ATOM     30  S   UNL     1      -6.336  15.102  23.615  0.00  0.00    +0.000 S 
BRANCH  30  31
ATOM     31  C   UNL     1      -7.257  13.483  23.526  0.00  0.00    +0.000 C 
BRANCH  31  32
ATOM     32  C   UNL     1      -7.913  13.275  22.161  0.00  0.00    +0.000 C 
ATOM     33  C   UNL     1      -7.181  12.231  21.318  0.00  0.00    +0.000 C 
ENDBRANCH  31  32
ENDBRANCH  30  31
ENDBRANCH   2  30
TORSDOF 8
ENDMDL
MODEL 7
REMARK VINA RESULT:      -5.4      1.108      1.385
REMARK  Name = 
REMARK  11 active torsions:
REMARK  status: ('A' for Active; 'I' for Inactive)
REMARK    1  A    between atoms: C_1  and  C_2
REMARK    2  A    between atoms: C_2  and  C_3
REMARK    3  A    between atoms: C_3  and  S_4
REMARK    4  A    between atoms: S_4  and  C_5
REMARK    5  A    between atoms: C_6  and  S_7
REMARK    6  A    between atoms: S_7  and  C_8
REMARK    7  A    between atoms: C_8  and  C_9
REMARK    8  A    between atoms: C_9  and  C_10
REMARK    9  A    between atoms: C_18  and  C_19
REMARK   10  A    between atoms: C_19  and  O_21
REMARK   11  A    between atoms: N_29  and  C_30
REMARK                            x       y       z     vdW  Elec       q    Type
REMARK                         _______ _______ _______ _____ _____    ______ ____
ROOT
ATOM      1  C   UNL     1      -1.218  11.720  19.105  0.00  0.00    +0.000 C 
ATOM      2  C   UNL     1      -0.292  10.773  19.251  0.00  0.00    +0.000 C 
ATOM      3  C   UNL     1       0.214  10.799  20.689  0.00  0.00    +0.000 C 
ATOM      4  O   UNL     1       0.959   9.952  21.180  0.00  0.00    +0.000 OA
ATOM      5  C   UNL     1      -0.177  12.011  21.468  0.00  0.00    +0.000 C 
ATOM      6  C   UNL     1       0.149  13.101  20.751  0.00  0.00    +0.000 C 
ATOM      7  C   UNL     1       0.565  14.329  21.519  0.00  0.00    +0.000 C 
ATOM      8  C   UNL     1      -0.460  14.738  22.601  0.00  0.00    +0.000 C 
ATOM      9  C   UNL     1      -1.308  16.049  22.250  0.00  0.00    +0.000 C 
ATOM     10  C   UNL     1      -1.724  16.046  20.772  0.00  0.00    +0.000 C 
ATOM     11  C   UNL     1      -3.156  15.508  20.760  0.00  0.00    +0.000 C 
ATOM     12  C   UNL     1      -3.348  14.927  22.187  0.00  0.00    +0.000 C 
ATOM     13  C   UNL     1      -2.579  13.546  22.301  0.00  0.00    +0.000 C 
ATOM     14  O   UNL     1      -3.227  12.423  22.880  0.00  0.00    +0.000 OA
ATOM     15  C   UNL     1      -2.121  11.506  23.189  0.00  0.00    +0.000 C 
ATOM     16  C   UNL     1      -0.762  12.214  22.848  0.00  0.00    +0.000 C 
ATOM     17  N   UNL     1      -1.297  13.585  22.989  0.00  0.00    +0.000 NA
ATOM     18  N   UNL     1      -2.666  16.061  22.849  0.00  0.00    +0.000 NA
ATOM     19  C   UNL     1      -2.757  16.067  24.291  0.00  0.00    +0.000 C 
ATOM     20  C   UNL     1      -0.592  13.050  19.434  0.00  0.00    +0.000 C 
ATOM     21  O   UNL     1      -0.713  14.015  18.695  0.00  0.00    +0.000 OA
ENDROOT
BRANCH  10  22
ATOM     22  C   UNL     1      -1.505  17.313  19.985  0.00  0.00    +0.000 C 
ATOM     23  O   UNL     1      -2.171  17.692  19.037  0.00  0.00    +0.000 OA
BRANCH  22  24
ATOM     24  O   UNL     1      -0.526  18.078  20.537  0.00  0.00    +0.000 OA
ATOM     25  H   UNL     1      -0.385  17.913  21.498  0.00  0.00    +0.000 HD
ENDBRANCH  22  24
ENDBRANCH  10  22
BRANCH   1  26
ATOM     26  S   UNL     1      -2.823  11.562  18.465  0.00  0.00    +0.000 S 
BRANCH  26  27
ATOM     27  C   UNL     1      -2.413  11.245  16.683  0.00  0.00    +0.000 C 
BRANCH  27  29
ATOM     28  C   UNL     1      -3.020  10.152  14.526  0.00  0.00    +0.000 C 
ATOM     29  C   UNL     1      -3.571  10.862  15.767  0.00  0.00    +0.000 C 
ENDBRANCH  27  29
ENDBRANCH  26  27
ENDBRANCH   1  26
BRANCH   2  30
ATOM     30  S   UNL     1       0.031   9.470  18.168  0.00  0.00    +0.000 S 
BRANCH  30  31
ATOM     31  C   UNL     1       1.874   9.647  17.945  0.00  0.00    +0.000 C 
BRANCH  31  32
ATOM     32  C   UNL     1       2.564   8.292  17.799  0.00  0.00    +0.000 C 
ATOM     33  C   UNL     1       2.454   7.444  19.066  0.00  0.00    +0.000 C 
ENDBRANCH  31  32
ENDBRANCH  30  31
ENDBRANCH   2  30
TORSDOF 8
ENDMDL
MODEL 8
REMARK VINA RESULT:      -5.3      9.056     10.724
REMARK  Name = 
REMARK  11 active torsions:
REMARK  status: ('A' for Active; 'I' for Inactive)
REMARK    1  A    between atoms: C_1  and  C_2
REMARK    2  A    between atoms: C_2  and  C_3
REMARK    3  A    between atoms: C_3  and  S_4
REMARK    4  A    between atoms: S_4  and  C_5
REMARK    5  A    between atoms: C_6  and  S_7
REMARK    6  A    between atoms: S_7  and  C_8
REMARK    7  A    between atoms: C_8  and  C_9
REMARK    8  A    between atoms: C_9  and  C_10
REMARK    9  A    between atoms: C_18  and  C_19
REMARK   10  A    between atoms: C_19  and  O_21
REMARK   11  A    between atoms: N_29  and  C_30
REMARK                            x       y       z     vdW  Elec       q    Type
REMARK                         _______ _______ _______ _____ _____    ______ ____
ROOT
ATOM      1  C   UNL     1       9.692  13.488  19.961  0.00  0.00    +0.000 C 
ATOM      2  C   UNL     1      10.956  13.798  19.676  0.00  0.00    +0.000 C 
ATOM      3  C   UNL     1      11.178  15.277  19.975  0.00  0.00    +0.000 C 
ATOM      4  O   UNL     1      12.276  15.832  19.961  0.00  0.00    +0.000 OA
ATOM      5  C   UNL     1       9.930  16.066  20.193  0.00  0.00    +0.000 C 
ATOM      6  C   UNL     1       9.094  15.832  19.165  0.00  0.00    +0.000 C 
ATOM      7  C   UNL     1       8.195  16.964  18.741  0.00  0.00    +0.000 C 
ATOM      8  C   UNL     1       7.382  17.559  19.913  0.00  0.00    +0.000 C 
ATOM      9  C   UNL     1       5.825  17.187  19.896  0.00  0.00    +0.000 C 
ATOM     10  C   UNL     1       5.622  15.718  19.499  0.00  0.00    +0.000 C 
ATOM     11  C   UNL     1       5.458  14.964  20.820  0.00  0.00    +0.000 C 
ATOM     12  C   UNL     1       5.908  15.991  21.894  0.00  0.00    +0.000 C 
ATOM     13  C   UNL     1       7.488  16.106  21.883  0.00  0.00    +0.000 C 
ATOM     14  O   UNL     1       8.206  16.072  23.107  0.00  0.00    +0.000 OA
ATOM     15  C   UNL     1       9.526  16.609  22.750  0.00  0.00    +0.000 C 
ATOM     16  C   UNL     1       9.502  17.062  21.247  0.00  0.00    +0.000 C 
ATOM     17  N   UNL     1       8.039  17.269  21.204  0.00  0.00    +0.000 NA
ATOM     18  N   UNL     1       5.210  17.125  21.246  0.00  0.00    +0.000 NA
ATOM     19  C   UNL     1       5.181  18.343  22.021  0.00  0.00    +0.000 C 
ATOM     20  C   UNL     1       8.790  14.352  19.119  0.00  0.00    +0.000 C 
ATOM     21  O   UNL     1       7.865  13.878  18.478  0.00  0.00    +0.000 OA
ENDROOT
BRANCH  10  22
ATOM     22  C   UNL     1       4.580  15.419  18.451  0.00  0.00    +0.000 C 
ATOM     23  O   UNL     1       3.512  15.991  18.319  0.00  0.00    +0.000 OA
BRANCH  22  24
ATOM     24  O   UNL     1       5.021  14.490  17.562  0.00  0.00    +0.000 OA
ATOM     25  H   UNL     1       4.797  14.697  16.626  0.00  0.00    +0.000 HD
ENDBRANCH  22  24
ENDBRANCH  10  22
BRANCH   1  26
ATOM     26  S   UNL     1       9.103  12.200  20.963  0.00  0.00    +0.000 S 
BRANCH  26  27
ATOM     27  C   UNL     1       9.620  10.748  19.930  0.00  0.00    +0.000 C 
BRANCH  27  29
ATOM     28  C   UNL     1       8.469   9.284  18.272  0.00  0.00    +0.000 C 
ATOM     29  C   UNL     1       9.062  10.675  18.512  0.00  0.00    +0.000 C 
ENDBRANCH  27  29
ENDBRANCH  26  27
ENDBRANCH   1  26
BRANCH   2  30
ATOM     30  S   UNL     1      12.252  12.694  19.397  0.00  0.00    +0.000 S 
BRANCH  30  31
ATOM     31  C   UNL     1      12.311  12.686  17.534  0.00  0.00    +0.000 C 
BRANCH  31  32
ATOM     32  C   UNL     1      11.116  13.415  16.922  0.00  0.00    +0.000 C 
ATOM     33  C   UNL     1      11.478  14.820  16.440  0.00  0.00    +0.000 C 
ENDBRANCH  31  32
ENDBRANCH  30  31
ENDBRANCH   2  30
TORSDOF 8
ENDMDL
MODEL 9
REMARK VINA RESULT:      -5.3      3.247      5.330
REMARK  Name = 
REMARK  11 active torsions:
REMARK  status: ('A' for Active; 'I' for Inactive)
REMARK    1  A    between atoms: C_1  and  C_2
REMARK    2  A    between atoms: C_2  and  C_3
REMARK    3  A    between atoms: C_3  and  S_4
REMARK    4  A    between atoms: S_4  and  C_5
REMARK    5  A    between atoms: C_6  and  S_7
REMARK    6  A    between atoms: S_7  and  C_8
REMARK    7  A    between atoms: C_8  and  C_9
REMARK    8  A    between atoms: C_9  and  C_10
REMARK    9  A    between atoms: C_18  and  C_19
REMARK   10  A    between atoms: C_19  and  O_21
REMARK   11  A    between atoms: N_29  and  C_30
REMARK                            x       y       z     vdW  Elec       q    Type
REMARK                         _______ _______ _______ _____ _____    ______ ____
ROOT
ATOM      1  C   UNL     1      -4.935  13.906  21.277  0.00  0.00    +0.000 C 
ATOM      2  C   UNL     1      -5.621  13.180  22.159  0.00  0.00    +0.000 C 
ATOM      3  C   UNL     1      -4.714  12.859  23.341  0.00  0.00    +0.000 C 
ATOM      4  O   UNL     1      -5.094  12.335  24.388  0.00  0.00    +0.000 OA
ATOM      5  C   UNL     1      -3.265  13.131  23.111  0.00  0.00    +0.000 C 
ATOM      6  C   UNL     1      -2.899  12.538  21.960  0.00  0.00    +0.000 C 
ATOM      7  C   UNL     1      -1.487  12.017  21.875  0.00  0.00    +0.000 C 
ATOM      8  C   UNL     1      -0.429  13.083  22.240  0.00  0.00    +0.000 C 
ATOM      9  C   UNL     1       0.402  13.646  20.994  0.00  0.00    +0.000 C 
ATOM     10  C   UNL     1      -0.517  13.871  19.785  0.00  0.00    +0.000 C 
ATOM     11  C   UNL     1      -0.862  15.361  19.815  0.00  0.00    +0.000 C 
ATOM     12  C   UNL     1      -0.392  15.824  21.221  0.00  0.00    +0.000 C 
ATOM     13  C   UNL     1      -1.424  15.321  22.313  0.00  0.00    +0.000 C 
ATOM     14  O   UNL     1      -1.886  16.217  23.313  0.00  0.00    +0.000 OA
ATOM     15  C   UNL     1      -2.455  15.330  24.337  0.00  0.00    +0.000 C 
ATOM     16  C   UNL     1      -2.200  13.838  23.918  0.00  0.00    +0.000 C 
ATOM     17  N   UNL     1      -1.025  14.146  23.074  0.00  0.00    +0.000 NA
ATOM     18  N   UNL     1       0.866  15.046  21.167  0.00  0.00    +0.000 NA
ATOM     19  C   UNL     1       1.792  15.312  22.243  0.00  0.00    +0.000 C 
ATOM     20  C   UNL     1      -3.735  13.108  20.838  0.00  0.00    +0.000 C 
ATOM     21  O   UNL     1      -3.455  12.971  19.657  0.00  0.00    +0.000 OA
ENDROOT
BRANCH  10  22
ATOM     22  C   UNL     1      -0.053  13.344  18.451  0.00  0.00    +0.000 C 
ATOM     23  O   UNL     1       1.105  13.162  18.115  0.00  0.00    +0.000 OA
BRANCH  22  24
ATOM     24  O   UNL     1      -1.102  12.964  17.674  0.00  0.00    +0.000 OA
ATOM     25  H   UNL     1      -0.938  13.060  16.709  0.00  0.00    +0.000 HD
ENDBRANCH  22  24
ENDBRANCH  10  22
BRANCH   1  26
ATOM     26  S   UNL     1      -5.378  15.423  20.560  0.00  0.00    +0.000 S 
BRANCH  26  27
ATOM     27  C   UNL     1      -6.398  14.805  19.140  0.00  0.00    +0.000 C 
BRANCH  27  29
ATOM     28  C   UNL     1      -7.916  16.715  18.624  0.00  0.00    +0.000 C 
ATOM     29  C   UNL     1      -7.854  15.256  19.088  0.00  0.00    +0.000 C 
ENDBRANCH  27  29
ENDBRANCH  26  27
ENDBRANCH   1  26
BRANCH   2  30
ATOM     30  S   UNL     1      -7.331  12.952  22.201  0.00  0.00    +0.000 S 
BRANCH  30  31
ATOM     31  C   UNL     1      -7.488  11.314  21.323  0.00  0.00    +0.000 C 
BRANCH  31  32
ATOM     32  C   UNL     1      -6.511  11.197  20.154  0.00  0.00    +0.000 C 
ATOM     33  C   UNL     1      -7.215  11.273  18.799  0.00  0.00    +0.000 C 
ENDBRANCH  31  32
ENDBRANCH  30  31
ENDBRANCH   2  30
TORSDOF 8
ENDMDL
