MODEL 1
REMARK VINA RESULT:      -6.7      0.000      0.000
REMARK  Name = 
REMARK  4 active torsions:
REMARK  status: ('A' for Active; 'I' for Inactive)
REMARK    1  A    between atoms: C_1  and  C_2
REMARK    2  A    between atoms: N_10  and  C_11
REMARK    3  A    between atoms: C_11  and  C_12
REMARK    4  A    between atoms: C_12  and  C_13
REMARK                            x       y       z     vdW  Elec       q    Type
REMARK                         _______ _______ _______ _____ _____    ______ ____
ROOT
ATOM      1  C   UNL     1       1.707   2.273  18.082  0.00  0.00    +0.000 C 
ATOM      2  C   UNL     1       1.608   3.582  18.879  0.00  0.00    +0.000 C 
ATOM      3  C   UNL     1       0.643   3.424  20.072  0.00  0.00    +0.000 C 
ATOM      4  O   UNL     1       1.158   2.504  21.047  0.00  0.00    +0.000 OA
ATOM      5  C   UNL     1       2.410   2.977  21.574  0.00  0.00    +0.000 C 
ATOM      6  C   UNL     1       3.455   3.148  20.467  0.00  0.00    +0.000 C 
ATOM      7  N   UNL     1       2.941   3.990  19.378  0.00  0.00    +0.000 N 
ATOM      8  C   UNL     1       3.602   5.172  19.102  0.00  0.00    +0.000 C 
ATOM      9  O   UNL     1       4.604   5.528  19.716  0.00  0.00    +0.000 OA
ATOM     10  N   UNL     1       3.066   5.939  18.095  0.00  0.00    +0.000 N 
ATOM     11  H   UNL     1       2.688   5.404  17.330  0.00  0.00    +0.000 HD
ENDROOT
BRANCH  10  12
ATOM     12  C   UNL     1       3.754   7.174  17.733  0.00  0.00    +0.000 C 
BRANCH  12  13
ATOM     13  C   UNL     1       4.454   7.096  16.373  0.00  0.00    +0.000 C 
BRANCH  13  14
ATOM     14  C   UNL     1       5.531   6.035  16.311  0.00  0.00    +0.000 C 
ATOM     15  C   UNL     1       5.470   4.976  15.480  0.00  0.00    +0.000 C 
ATOM     16  C   UNL     1       6.547   3.931  15.391  0.00  0.00    +0.000 C 
ATOM     17  O   UNL     1       7.762   4.346  16.022  0.00  0.00    +0.000 OA
ATOM     18  C   UNL     1       7.525   4.870  17.328  0.00  0.00    +0.000 C 
ATOM     19  C   UNL     1       6.718   6.168  17.238  0.00  0.00    +0.000 C 
ENDBRANCH  13  14
ENDBRANCH  12  13
ENDBRANCH  10  12
TORSDOF 3
ENDMDL
MODEL 2
REMARK VINA RESULT:      -6.4      1.831      2.776
REMARK  Name = 
REMARK  4 active torsions:
REMARK  status: ('A' for Active; 'I' for Inactive)
REMARK    1  A    between atoms: C_1  and  C_2
REMARK    2  A    between atoms: N_10  and  C_11
REMARK    3  A    between atoms: C_11  and  C_12
REMARK    4  A    between atoms: C_12  and  C_13
REMARK                            x       y       z     vdW  Elec       q    Type
REMARK                         _______ _______ _______ _____ _____    ______ ____
ROOT
ATOM      1  C   UNL     1       4.059   2.211  20.658  0.00  0.00    +0.000 C 
ATOM      2  C   UNL     1       3.308   2.436  19.337  0.00  0.00    +0.000 C 
ATOM      3  C   UNL     1       1.839   1.982  19.460  0.00  0.00    +0.000 C 
ATOM      4  O   UNL     1       1.107   2.810  20.378  0.00  0.00    +0.000 OA
ATOM      5  C   UNL     1       1.094   4.175  19.925  0.00  0.00    +0.000 C 
ATOM      6  C   UNL     1       2.513   4.734  19.789  0.00  0.00    +0.000 C 
ATOM      7  N   UNL     1       3.349   3.864  18.951  0.00  0.00    +0.000 N 
ATOM      8  C   UNL     1       3.874   4.392  17.786  0.00  0.00    +0.000 C 
ATOM      9  O   UNL     1       3.684   5.555  17.443  0.00  0.00    +0.000 OA
ATOM     10  N   UNL     1       4.624   3.531  17.020  0.00  0.00    +0.000 N 
ATOM     11  H   UNL     1       5.182   2.887  17.558  0.00  0.00    +0.000 HD
ENDROOT
BRANCH  10  12
ATOM     12  C   UNL     1       5.239   4.052  15.805  0.00  0.00    +0.000 C 
BRANCH  12  13
ATOM     13  C   UNL     1       6.759   4.207  15.919  0.00  0.00    +0.000 C 
BRANCH  13  14
ATOM     14  C   UNL     1       7.183   5.250  16.930  0.00  0.00    +0.000 C 
ATOM     15  C   UNL     1       7.550   4.944  18.190  0.00  0.00    +0.000 C 
ATOM     16  C   UNL     1       7.999   5.970  19.192  0.00  0.00    +0.000 C 
ATOM     17  O   UNL     1       8.305   7.229  18.585  0.00  0.00    +0.000 OA
ATOM     18  C   UNL     1       7.270   7.652  17.698  0.00  0.00    +0.000 C 
ATOM     19  C   UNL     1       7.176   6.700  16.502  0.00  0.00    +0.000 C 
ENDBRANCH  13  14
ENDBRANCH  12  13
ENDBRANCH  10  12
TORSDOF 3
ENDMDL
MODEL 3
REMARK VINA RESULT:      -6.4      1.623      2.188
REMARK  Name = 
REMARK  4 active torsions:
REMARK  status: ('A' for Active; 'I' for Inactive)
REMARK    1  A    between atoms: C_1  and  C_2
REMARK    2  A    between atoms: N_10  and  C_11
REMARK    3  A    between atoms: C_11  and  C_12
REMARK    4  A    between atoms: C_12  and  C_13
REMARK                            x       y       z     vdW  Elec       q    Type
REMARK                         _______ _______ _______ _____ _____    ______ ____
ROOT
ATOM      1  C   UNL     1       1.528   4.712  17.801  0.00  0.00    +0.000 C 
ATOM      2  C   UNL     1       2.259   4.836  19.145  0.00  0.00    +0.000 C 
ATOM      3  C   UNL     1       1.260   4.769  20.319  0.00  0.00    +0.000 C 
ATOM      4  O   UNL     1       0.648   3.473  20.417  0.00  0.00    +0.000 OA
ATOM      5  C   UNL     1       1.643   2.462  20.648  0.00  0.00    +0.000 C 
ATOM      6  C   UNL     1       2.680   2.427  19.522  0.00  0.00    +0.000 C 
ATOM      7  N   UNL     1       3.262   3.757  19.295  0.00  0.00    +0.000 N 
ATOM      8  C   UNL     1       4.623   3.912  19.478  0.00  0.00    +0.000 C 
ATOM      9  O   UNL     1       5.356   2.982  19.803  0.00  0.00    +0.000 OA
ATOM     10  N   UNL     1       5.115   5.181  19.284  0.00  0.00    +0.000 N 
ATOM     11  H   UNL     1       4.666   5.683  18.535  0.00  0.00    +0.000 HD
ENDROOT
BRANCH  10  12
ATOM     12  C   UNL     1       6.553   5.387  19.420  0.00  0.00    +0.000 C 
BRANCH  12  13
ATOM     13  C   UNL     1       7.179   6.081  18.205  0.00  0.00    +0.000 C 
BRANCH  13  14
ATOM     14  C   UNL     1       6.641   5.578  16.883  0.00  0.00    +0.000 C 
ATOM     15  C   UNL     1       7.132   4.489  16.258  0.00  0.00    +0.000 C 
ATOM     16  C   UNL     1       6.588   3.967  14.959  0.00  0.00    +0.000 C 
ATOM     17  O   UNL     1       5.315   4.533  14.633  0.00  0.00    +0.000 OA
ATOM     18  C   UNL     1       5.322   5.954  14.766  0.00  0.00    +0.000 C 
ATOM     19  C   UNL     1       5.514   6.347  16.233  0.00  0.00    +0.000 C 
ENDBRANCH  13  14
ENDBRANCH  12  13
ENDBRANCH  10  12
TORSDOF 3
ENDMDL
MODEL 4
REMARK VINA RESULT:      -6.4      1.613      5.961
REMARK  Name = 
REMARK  4 active torsions:
REMARK  status: ('A' for Active; 'I' for Inactive)
REMARK    1  A    between atoms: C_1  and  C_2
REMARK    2  A    between atoms: N_10  and  C_11
REMARK    3  A    between atoms: C_11  and  C_12
REMARK    4  A    between atoms: C_12  and  C_13
REMARK                            x       y       z     vdW  Elec       q    Type
REMARK                         _______ _______ _______ _____ _____    ______ ____
ROOT
ATOM      1  C   UNL     1       7.491   5.313  18.887  0.00  0.00    +0.000 C 
ATOM      2  C   UNL     1       6.527   6.136  18.022  0.00  0.00    +0.000 C 
ATOM      3  C   UNL     1       7.255   6.717  16.793  0.00  0.00    +0.000 C 
ATOM      4  O   UNL     1       7.676   5.682  15.891  0.00  0.00    +0.000 OA
ATOM      5  C   UNL     1       6.540   4.947  15.403  0.00  0.00    +0.000 C 
ATOM      6  C   UNL     1       5.752   4.305  16.549  0.00  0.00    +0.000 C 
ATOM      7  N   UNL     1       5.392   5.301  17.568  0.00  0.00    +0.000 N 
ATOM      8  C   UNL     1       4.050   5.522  17.816  0.00  0.00    +0.000 C 
ATOM      9  O   UNL     1       3.161   4.908  17.234  0.00  0.00    +0.000 OA
ATOM     10  N   UNL     1       3.763   6.483  18.756  0.00  0.00    +0.000 N 
ATOM     11  H   UNL     1       4.410   6.507  19.527  0.00  0.00    +0.000 HD
ENDROOT
BRANCH  10  12
ATOM     12  C   UNL     1       2.363   6.721  19.088  0.00  0.00    +0.000 C 
BRANCH  12  13
ATOM     13  C   UNL     1       1.970   6.175  20.464  0.00  0.00    +0.000 C 
BRANCH  13  14
ATOM     14  C   UNL     1       1.717   4.683  20.469  0.00  0.00    +0.000 C 
ATOM     15  C   UNL     1       1.006   4.057  19.511  0.00  0.00    +0.000 C 
ATOM     16  C   UNL     1       0.772   2.572  19.492  0.00  0.00    +0.000 C 
ATOM     17  O   UNL     1       1.638   1.873  20.391  0.00  0.00    +0.000 OA
ATOM     18  C   UNL     1       1.651   2.474  21.685  0.00  0.00    +0.000 C 
ATOM     19  C   UNL     1       2.276   3.870  21.614  0.00  0.00    +0.000 C 
ENDBRANCH  13  14
ENDBRANCH  12  13
ENDBRANCH  10  12
TORSDOF 3
ENDMDL
MODEL 5
REMARK VINA RESULT:      -6.3      4.969      6.329
REMARK  Name = 
REMARK  4 active torsions:
REMARK  status: ('A' for Active; 'I' for Inactive)
REMARK    1  A    between atoms: C_1  and  C_2
REMARK    2  A    between atoms: N_10  and  C_11
REMARK    3  A    between atoms: C_11  and  C_12
REMARK    4  A    between atoms: C_12  and  C_13
REMARK                            x       y       z     vdW  Elec       q    Type
REMARK                         _______ _______ _______ _____ _____    ______ ____
ROOT
ATOM      1  C   UNL     1       5.440   5.731  15.295  0.00  0.00    +0.000 C 
ATOM      2  C   UNL     1       5.359   6.366  16.690  0.00  0.00    +0.000 C 
ATOM      3  C   UNL     1       4.016   6.025  17.369  0.00  0.00    +0.000 C 
ATOM      4  O   UNL     1       3.914   4.622  17.659  0.00  0.00    +0.000 OA
ATOM      5  C   UNL     1       4.959   4.215  18.558  0.00  0.00    +0.000 C 
ATOM      6  C   UNL     1       6.345   4.491  17.969  0.00  0.00    +0.000 C 
ATOM      7  N   UNL     1       6.472   5.892  17.544  0.00  0.00    +0.000 N 
ATOM      8  C   UNL     1       7.440   6.671  18.149  0.00  0.00    +0.000 C 
ATOM      9  O   UNL     1       8.200   6.231  19.007  0.00  0.00    +0.000 OA
ATOM     10  N   UNL     1       7.499   7.982  17.740  0.00  0.00    +0.000 N 
ATOM     11  H   UNL     1       7.315   8.112  16.758  0.00  0.00    +0.000 HD
ENDROOT
BRANCH  10  12
ATOM     12  C   UNL     1       8.535   8.834  18.316  0.00  0.00    +0.000 C 
BRANCH  12  13
ATOM     13  C   UNL     1       8.479  10.276  17.804  0.00  0.00    +0.000 C 
BRANCH  13  14
ATOM     14  C   UNL     1       9.512  11.181  18.441  0.00  0.00    +0.000 C 
ATOM     15  C   UNL     1      10.277  12.034  17.731  0.00  0.00    +0.000 C 
ATOM     16  C   UNL     1      11.285  12.956  18.357  0.00  0.00    +0.000 C 
ATOM     17  O   UNL     1      11.118  13.067  19.774  0.00  0.00    +0.000 OA
ATOM     18  C   UNL     1      10.993  11.786  20.391  0.00  0.00    +0.000 C 
ATOM     19  C   UNL     1       9.699  11.105  19.939  0.00  0.00    +0.000 C 
ENDBRANCH  13  14
ENDBRANCH  12  13
ENDBRANCH  10  12
TORSDOF 3
ENDMDL
MODEL 6
REMARK VINA RESULT:      -6.2      1.784      5.941
REMARK  Name = 
REMARK  4 active torsions:
REMARK  status: ('A' for Active; 'I' for Inactive)
REMARK    1  A    between atoms: C_1  and  C_2
REMARK    2  A    between atoms: N_10  and  C_11
REMARK    3  A    between atoms: C_11  and  C_12
REMARK    4  A    between atoms: C_12  and  C_13
REMARK                            x       y       z     vdW  Elec       q    Type
REMARK                         _______ _______ _______ _____ _____    ______ ____
ROOT
ATOM      1  C   UNL     1       4.668   6.917  17.165  0.00  0.00    +0.000 C 
ATOM      2  C   UNL     1       5.466   5.613  17.027  0.00  0.00    +0.000 C 
ATOM      3  C   UNL     1       6.903   5.901  16.545  0.00  0.00    +0.000 C 
ATOM      4  O   UNL     1       7.655   6.622  17.534  0.00  0.00    +0.000 OA
ATOM      5  C   UNL     1       7.758   5.856  18.747  0.00  0.00    +0.000 C 
ATOM      6  C   UNL     1       6.378   5.533  19.325  0.00  0.00    +0.000 C 
ATOM      7  N   UNL     1       5.517   4.894  18.320  0.00  0.00    +0.000 N 
ATOM      8  C   UNL     1       5.055   3.617  18.575  0.00  0.00    +0.000 C 
ATOM      9  O   UNL     1       5.321   3.013  19.611  0.00  0.00    +0.000 OA
ATOM     10  N   UNL     1       4.279   3.050  17.592  0.00  0.00    +0.000 N 
ATOM     11  H   UNL     1       3.671   3.703  17.126  0.00  0.00    +0.000 HD
ENDROOT
BRANCH  10  12
ATOM     12  C   UNL     1       3.728   1.721  17.834  0.00  0.00    +0.000 C 
BRANCH  12  13
ATOM     13  C   UNL     1       2.261   1.750  18.273  0.00  0.00    +0.000 C 
BRANCH  13  14
ATOM     14  C   UNL     1       1.995   2.698  19.422  0.00  0.00    +0.000 C 
ATOM     15  C   UNL     1       2.253   2.384  20.707  0.00  0.00    +0.000 C 
ATOM     16  C   UNL     1       2.019   3.328  21.852  0.00  0.00    +0.000 C 
ATOM     17  O   UNL     1       1.812   4.674  21.415  0.00  0.00    +0.000 OA
ATOM     18  C   UNL     1       0.855   4.744  20.358  0.00  0.00    +0.000 C 
ATOM     19  C   UNL     1       1.398   4.050  19.106  0.00  0.00    +0.000 C 
ENDBRANCH  13  14
ENDBRANCH  12  13
ENDBRANCH  10  12
TORSDOF 3
ENDMDL
MODEL 7
REMARK VINA RESULT:      -6.2      4.979      6.377
REMARK  Name = 
REMARK  4 active torsions:
REMARK  status: ('A' for Active; 'I' for Inactive)
REMARK    1  A    between atoms: C_1  and  C_2
REMARK    2  A    between atoms: N_10  and  C_11
REMARK    3  A    between atoms: C_11  and  C_12
REMARK    4  A    between atoms: C_12  and  C_13
REMARK                            x       y       z     vdW  Elec       q    Type
REMARK                         _______ _______ _______ _____ _____    ______ ____
ROOT
ATOM      1  C   UNL     1       5.435   5.691  15.256  0.00  0.00    +0.000 C 
ATOM      2  C   UNL     1       5.345   6.357  16.637  0.00  0.00    +0.000 C 
ATOM      3  C   UNL     1       4.001   6.026  17.317  0.00  0.00    +0.000 C 
ATOM      4  O   UNL     1       3.903   4.630  17.638  0.00  0.00    +0.000 OA
ATOM      5  C   UNL     1       4.946   4.249  18.552  0.00  0.00    +0.000 C 
ATOM      6  C   UNL     1       6.334   4.517  17.962  0.00  0.00    +0.000 C 
ATOM      7  N   UNL     1       6.457   5.908  17.505  0.00  0.00    +0.000 N 
ATOM      8  C   UNL     1       7.419   6.705  18.097  0.00  0.00    +0.000 C 
ATOM      9  O   UNL     1       8.177   6.288  18.968  0.00  0.00    +0.000 OA
ATOM     10  N   UNL     1       7.475   8.006  17.658  0.00  0.00    +0.000 N 
ATOM     11  H   UNL     1       7.295   8.112  16.673  0.00  0.00    +0.000 HD
ENDROOT
BRANCH  10  12
ATOM     12  C   UNL     1       8.504   8.875  18.218  0.00  0.00    +0.000 C 
BRANCH  12  13
ATOM     13  C   UNL     1       8.367  10.334  17.773  0.00  0.00    +0.000 C 
BRANCH  13  14
ATOM     14  C   UNL     1       9.342  11.267  18.458  0.00  0.00    +0.000 C 
ATOM     15  C   UNL     1       9.902  10.993  19.653  0.00  0.00    +0.000 C 
ATOM     16  C   UNL     1      10.892  11.899  20.329  0.00  0.00    +0.000 C 
ATOM     17  O   UNL     1      11.414  12.894  19.443  0.00  0.00    +0.000 OA
ATOM     18  C   UNL     1      10.375  13.553  18.720  0.00  0.00    +0.000 C 
ATOM     19  C   UNL     1       9.684  12.570  17.772  0.00  0.00    +0.000 C 
ENDBRANCH  13  14
ENDBRANCH  12  13
ENDBRANCH  10  12
TORSDOF 3
ENDMDL
MODEL 8
REMARK VINA RESULT:      -6.2      1.576      5.947
REMARK  Name = 
REMARK  4 active torsions:
REMARK  status: ('A' for Active; 'I' for Inactive)
REMARK    1  A    between atoms: C_1  and  C_2
REMARK    2  A    between atoms: N_10  and  C_11
REMARK    3  A    between atoms: C_11  and  C_12
REMARK    4  A    between atoms: C_12  and  C_13
REMARK                            x       y       z     vdW  Elec       q    Type
REMARK                         _______ _______ _______ _____ _____    ______ ____
ROOT
ATOM      1  C   UNL     1       7.404   5.201  18.910  0.00  0.00    +0.000 C 
ATOM      2  C   UNL     1       6.463   5.918  17.932  0.00  0.00    +0.000 C 
ATOM      3  C   UNL     1       7.206   6.287  16.631  0.00  0.00    +0.000 C 
ATOM      4  O   UNL     1       7.588   5.116  15.892  0.00  0.00    +0.000 OA
ATOM      5  C   UNL     1       6.426   4.356  15.517  0.00  0.00    +0.000 C 
ATOM      6  C   UNL     1       5.623   3.917  16.745  0.00  0.00    +0.000 C 
ATOM      7  N   UNL     1       5.300   5.063  17.605  0.00  0.00    +0.000 N 
ATOM      8  C   UNL     1       3.967   5.363  17.817  0.00  0.00    +0.000 C 
ATOM      9  O   UNL     1       3.056   4.699  17.331  0.00  0.00    +0.000 OA
ATOM     10  N   UNL     1       3.716   6.462  18.604  0.00  0.00    +0.000 N 
ATOM     11  H   UNL     1       4.366   6.577  19.364  0.00  0.00    +0.000 HD
ENDROOT
BRANCH  10  12
ATOM     12  C   UNL     1       2.325   6.793  18.896  0.00  0.00    +0.000 C 
BRANCH  12  13
ATOM     13  C   UNL     1       1.907   6.426  20.323  0.00  0.00    +0.000 C 
BRANCH  13  14
ATOM     14  C   UNL     1       1.817   4.934  20.560  0.00  0.00    +0.000 C 
ATOM     15  C   UNL     1       2.646   4.272  21.391  0.00  0.00    +0.000 C 
ATOM     16  C   UNL     1       2.547   2.796  21.654  0.00  0.00    +0.000 C 
ATOM     17  O   UNL     1       1.309   2.243  21.199  0.00  0.00    +0.000 OA
ATOM     18  C   UNL     1       1.009   2.648  19.864  0.00  0.00    +0.000 C 
ATOM     19  C   UNL     1       0.757   4.157  19.813  0.00  0.00    +0.000 C 
ENDBRANCH  13  14
ENDBRANCH  12  13
ENDBRANCH  10  12
TORSDOF 3
ENDMDL
MODEL 9
REMARK VINA RESULT:      -6.1      1.984      2.948
REMARK  Name = 
REMARK  4 active torsions:
REMARK  status: ('A' for Active; 'I' for Inactive)
REMARK    1  A    between atoms: C_1  and  C_2
REMARK    2  A    between atoms: N_10  and  C_11
REMARK    3  A    between atoms: C_11  and  C_12
REMARK    4  A    between atoms: C_12  and  C_13
REMARK                            x       y       z     vdW  Elec       q    Type
REMARK                         _______ _______ _______ _____ _____    ______ ____
ROOT
ATOM      1  C   UNL     1       2.052   5.817  20.373  0.00  0.00    +0.000 C 
ATOM      2  C   UNL     1       2.817   4.557  19.942  0.00  0.00    +0.000 C 
ATOM      3  C   UNL     1       2.787   3.492  21.058  0.00  0.00    +0.000 C 
ATOM      4  O   UNL     1       1.458   2.991  21.272  0.00  0.00    +0.000 OA
ATOM      5  C   UNL     1       0.955   2.369  20.076  0.00  0.00    +0.000 C 
ATOM      6  C   UNL     1       0.922   3.353  18.903  0.00  0.00    +0.000 C 
ATOM      7  N   UNL     1       2.232   3.989  18.707  0.00  0.00    +0.000 N 
ATOM      8  C   UNL     1       2.877   3.791  17.501  0.00  0.00    +0.000 C 
ATOM      9  O   UNL     1       2.389   3.125  16.592  0.00  0.00    +0.000 OA
ATOM     10  N   UNL     1       4.112   4.381  17.376  0.00  0.00    +0.000 N 
ATOM     11  H   UNL     1       4.182   5.281  17.823  0.00  0.00    +0.000 HD
ENDROOT
BRANCH  10  12
ATOM     12  C   UNL     1       4.814   4.241  16.105  0.00  0.00    +0.000 C 
BRANCH  12  13
ATOM     13  C   UNL     1       6.333   4.120  16.266  0.00  0.00    +0.000 C 
BRANCH  13  14
ATOM     14  C   UNL     1       6.928   5.182  17.165  0.00  0.00    +0.000 C 
ATOM     15  C   UNL     1       7.293   4.943  18.440  0.00  0.00    +0.000 C 
ATOM     16  C   UNL     1       7.910   5.983  19.332  0.00  0.00    +0.000 C 
ATOM     17  O   UNL     1       8.363   7.128  18.603  0.00  0.00    +0.000 OA
ATOM     18  C   UNL     1       7.366   7.608  17.703  0.00  0.00    +0.000 C 
ATOM     19  C   UNL     1       7.103   6.575  16.603  0.00  0.00    +0.000 C 
ENDBRANCH  13  14
ENDBRANCH  12  13
ENDBRANCH  10  12
TORSDOF 3
ENDMDL
