MODEL 1
REMARK VINA RESULT:      -8.1      0.000      0.000
REMARK  Name = 
REMARK  6 active torsions:
REMARK  status: ('A' for Active; 'I' for Inactive)
REMARK    1  A    between atoms: C_1  and  C_2
REMARK    2  A    between atoms: C_5  and  C_6
REMARK    3  A    between atoms: C_6  and  N_7
REMARK    4  A    between atoms: C_10  and  N_11
REMARK    5  A    between atoms: C_23  and  C_24
REMARK    6  A    between atoms: C_28  and  O_29
REMARK                            x       y       z     vdW  Elec       q    Type
REMARK                         _______ _______ _______ _____ _____    ______ ____
ROOT
ATOM      1  N   UNL     1       2.007   7.607  19.531  0.00  0.00    +0.000 N 
ATOM      2  C   UNL     1       1.293   7.019  20.541  0.00  0.00    +0.000 A 
ATOM      3  N   UNL     1       1.355   5.712  20.518  0.00  0.00    +0.000 NA
ATOM      4  C   UNL     1       2.189   5.416  19.461  0.00  0.00    +0.000 A 
ATOM      5  C   UNL     1       2.713   4.186  19.018  0.00  0.00    +0.000 A 
ATOM      6  N   UNL     1       2.413   2.939  19.561  0.00  0.00    +0.000 N 
ATOM      7  C   UNL     1       1.221   2.720  20.398  0.00  0.00    +0.000 C 
ATOM      8  C   UNL     1       1.554   2.637  21.896  0.00  0.00    +0.000 C 
ATOM      9  O   UNL     1       2.630   1.710  22.153  0.00  0.00    +0.000 OA
ATOM     10  C   UNL     1       3.804   2.118  21.434  0.00  0.00    +0.000 C 
ATOM     11  C   UNL     1       3.563   2.093  19.913  0.00  0.00    +0.000 C 
ATOM     12  N   UNL     1       3.618   4.253  17.999  0.00  0.00    +0.000 NA
ATOM     13  C   UNL     1       3.949   5.442  17.425  0.00  0.00    +0.000 A 
ATOM     14  N   UNL     1       3.451   6.659  17.767  0.00  0.00    +0.000 NA
ATOM     15  C   UNL     1       2.600   6.580  18.813  0.00  0.00    +0.000 A 
ENDROOT
BRANCH   1  19
ATOM     16  N   UNL     1      -0.421  10.455  18.607  0.00  0.00    +0.000 NA
ATOM     17  C   UNL     1      -0.127   9.942  19.954  0.00  0.00    +0.000 C 
ATOM     18  C   UNL     1       1.367   9.896  20.291  0.00  0.00    +0.000 C 
ATOM     19  C   UNL     1       2.170   9.045  19.307  0.00  0.00    +0.000 C 
ATOM     20  C   UNL     1       1.877   9.563  17.882  0.00  0.00    +0.000 C 
ATOM     21  C   UNL     1       0.387   9.806  17.558  0.00  0.00    +0.000 C 
BRANCH  16  22
ATOM     22  C   UNL     1      -1.874  10.286  18.285  0.00  0.00    +0.000 C 
BRANCH  22  27
ATOM     23  C   UNL     1      -5.597  14.253  20.503  0.00  0.00    +0.000 C 
ATOM     24  C   UNL     1      -4.664  13.190  19.992  0.00  0.00    +0.000 A 
ATOM     25  C   UNL     1      -5.088  12.266  19.029  0.00  0.00    +0.000 A 
ATOM     26  C   UNL     1      -4.190  11.344  18.467  0.00  0.00    +0.000 A 
ATOM     27  C   UNL     1      -2.841  11.323  18.847  0.00  0.00    +0.000 A 
ATOM     28  C   UNL     1      -2.430  12.233  19.839  0.00  0.00    +0.000 A 
ATOM     29  C   UNL     1      -3.327  13.156  20.400  0.00  0.00    +0.000 A 
ENDBRANCH  22  27
ENDBRANCH  16  22
ENDBRANCH   1  19
BRANCH  13  30
ATOM     30  C   UNL     1       5.086   5.394  16.478  0.00  0.00    +0.000 A 
ATOM     31  C   UNL     1       6.254   6.147  16.630  0.00  0.00    +0.000 A 
ATOM     32  N   UNL     1       7.366   6.061  15.844  0.00  0.00    +0.000 NA
ATOM     33  C   UNL     1       7.325   5.162  14.833  0.00  0.00    +0.000 A 
ATOM     34  C   UNL     1       6.218   4.379  14.567  0.00  0.00    +0.000 A 
ATOM     35  C   UNL     1       5.092   4.516  15.375  0.00  0.00    +0.000 A 
BRANCH  34  36
ATOM     36  O   UNL     1       6.182   3.451  13.571  0.00  0.00    +0.000 OA
ATOM     37  H   UNL     1       5.802   3.849  12.768  0.00  0.00    +0.000 HD
ENDBRANCH  34  36
ENDBRANCH  13  30
TORSDOF 5
ENDMDL
MODEL 2
REMARK VINA RESULT:      -8.1      1.317      2.201
REMARK  Name = 
REMARK  6 active torsions:
REMARK  status: ('A' for Active; 'I' for Inactive)
REMARK    1  A    between atoms: C_1  and  C_2
REMARK    2  A    between atoms: C_5  and  C_6
REMARK    3  A    between atoms: C_6  and  N_7
REMARK    4  A    between atoms: C_10  and  N_11
REMARK    5  A    between atoms: C_23  and  C_24
REMARK    6  A    between atoms: C_28  and  O_29
REMARK                            x       y       z     vdW  Elec       q    Type
REMARK                         _______ _______ _______ _____ _____    ______ ____
ROOT
ATOM      1  N   UNL     1       2.056   7.690  19.505  0.00  0.00    +0.000 N 
ATOM      2  C   UNL     1       1.330   7.118  20.515  0.00  0.00    +0.000 A 
ATOM      3  N   UNL     1       1.370   5.810  20.496  0.00  0.00    +0.000 NA
ATOM      4  C   UNL     1       2.199   5.496  19.440  0.00  0.00    +0.000 A 
ATOM      5  C   UNL     1       2.702   4.255  19.002  0.00  0.00    +0.000 A 
ATOM      6  N   UNL     1       2.380   3.016  19.548  0.00  0.00    +0.000 N 
ATOM      7  C   UNL     1       1.183   2.820  20.385  0.00  0.00    +0.000 C 
ATOM      8  C   UNL     1       1.514   2.736  21.884  0.00  0.00    +0.000 C 
ATOM      9  O   UNL     1       2.572   1.791  22.145  0.00  0.00    +0.000 OA
ATOM     10  C   UNL     1       3.755   2.176  21.425  0.00  0.00    +0.000 C 
ATOM     11  C   UNL     1       3.514   2.151  19.904  0.00  0.00    +0.000 C 
ATOM     12  N   UNL     1       3.609   4.304  17.984  0.00  0.00    +0.000 NA
ATOM     13  C   UNL     1       3.961   5.485  17.407  0.00  0.00    +0.000 A 
ATOM     14  N   UNL     1       3.484   6.712  17.744  0.00  0.00    +0.000 NA
ATOM     15  C   UNL     1       2.631   6.650  18.790  0.00  0.00    +0.000 A 
ENDROOT
BRANCH   1  19
ATOM     16  N   UNL     1      -0.361  10.662  19.061  0.00  0.00    +0.000 NA
ATOM     17  C   UNL     1       0.139  10.106  20.328  0.00  0.00    +0.000 C 
ATOM     18  C   UNL     1       1.665   9.987  20.398  0.00  0.00    +0.000 C 
ATOM     19  C   UNL     1       2.244   9.125  19.276  0.00  0.00    +0.000 C 
ATOM     20  C   UNL     1       1.732   9.686  17.932  0.00  0.00    +0.000 C 
ATOM     21  C   UNL     1       0.222  10.002  17.877  0.00  0.00    +0.000 C 
BRANCH  16  22
ATOM     22  C   UNL     1      -1.854  10.563  18.995  0.00  0.00    +0.000 C 
BRANCH  22  27
ATOM     23  C   UNL     1      -4.249  10.153  13.647  0.00  0.00    +0.000 C 
ATOM     24  C   UNL     1      -3.590  10.313  14.989  0.00  0.00    +0.000 A 
ATOM     25  C   UNL     1      -4.120  11.183  15.949  0.00  0.00    +0.000 A 
ATOM     26  C   UNL     1      -3.575  11.253  17.242  0.00  0.00    +0.000 A 
ATOM     27  C   UNL     1      -2.488  10.450  17.613  0.00  0.00    +0.000 A 
ATOM     28  C   UNL     1      -1.940   9.602  16.634  0.00  0.00    +0.000 A 
ATOM     29  C   UNL     1      -2.486   9.531  15.341  0.00  0.00    +0.000 A 
ENDBRANCH  22  27
ENDBRANCH  16  22
ENDBRANCH   1  19
BRANCH  13  30
ATOM     30  C   UNL     1       5.098   5.414  16.461  0.00  0.00    +0.000 A 
ATOM     31  C   UNL     1       6.276   6.153  16.607  0.00  0.00    +0.000 A 
ATOM     32  N   UNL     1       7.387   6.047  15.823  0.00  0.00    +0.000 NA
ATOM     33  C   UNL     1       7.335   5.139  14.819  0.00  0.00    +0.000 A 
ATOM     34  C   UNL     1       6.219   4.368  14.559  0.00  0.00    +0.000 A 
ATOM     35  C   UNL     1       5.094   4.527  15.365  0.00  0.00    +0.000 A 
BRANCH  34  36
ATOM     36  O   UNL     1       6.171   3.432  13.571  0.00  0.00    +0.000 OA
ATOM     37  H   UNL     1       7.077   3.205  13.294  0.00  0.00    +0.000 HD
ENDBRANCH  34  36
ENDBRANCH  13  30
TORSDOF 5
ENDMDL
MODEL 3
REMARK VINA RESULT:      -8.0      5.302     11.150
REMARK  Name = 
REMARK  6 active torsions:
REMARK  status: ('A' for Active; 'I' for Inactive)
REMARK    1  A    between atoms: C_1  and  C_2
REMARK    2  A    between atoms: C_5  and  C_6
REMARK    3  A    between atoms: C_6  and  N_7
REMARK    4  A    between atoms: C_10  and  N_11
REMARK    5  A    between atoms: C_23  and  C_24
REMARK    6  A    between atoms: C_28  and  O_29
REMARK                            x       y       z     vdW  Elec       q    Type
REMARK                         _______ _______ _______ _____ _____    ______ ____
ROOT
ATOM      1  N   UNL     1       0.748  12.331  19.792  0.00  0.00    +0.000 N 
ATOM      2  C   UNL     1       2.001  12.470  19.259  0.00  0.00    +0.000 A 
ATOM      3  N   UNL     1       2.659  13.486  19.756  0.00  0.00    +0.000 NA
ATOM      4  C   UNL     1       1.813  14.028  20.700  0.00  0.00    +0.000 A 
ATOM      5  C   UNL     1       2.016  15.066  21.630  0.00  0.00    +0.000 A 
ATOM      6  N   UNL     1       3.167  15.843  21.734  0.00  0.00    +0.000 N 
ATOM      7  C   UNL     1       4.146  15.936  20.637  0.00  0.00    +0.000 C 
ATOM      8  C   UNL     1       5.404  15.089  20.891  0.00  0.00    +0.000 C 
ATOM      9  O   UNL     1       5.962  15.342  22.198  0.00  0.00    +0.000 OA
ATOM     10  C   UNL     1       4.984  15.044  23.208  0.00  0.00    +0.000 C 
ATOM     11  C   UNL     1       3.752  15.958  23.077  0.00  0.00    +0.000 C 
ATOM     12  N   UNL     1       1.002  15.280  22.518  0.00  0.00    +0.000 NA
ATOM     13  C   UNL     1      -0.148  14.556  22.465  0.00  0.00    +0.000 A 
ATOM     14  N   UNL     1      -0.433  13.574  21.569  0.00  0.00    +0.000 NA
ATOM     15  C   UNL     1       0.604  13.338  20.735  0.00  0.00    +0.000 A 
ENDROOT
BRANCH   1  19
ATOM     16  N   UNL     1       0.979   8.490  19.554  0.00  0.00    +0.000 NA
ATOM     17  C   UNL     1       0.737   9.291  20.764  0.00  0.00    +0.000 C 
ATOM     18  C   UNL     1      -0.417  10.290  20.629  0.00  0.00    +0.000 C 
ATOM     19  C   UNL     1      -0.217  11.275  19.478  0.00  0.00    +0.000 C 
ATOM     20  C   UNL     1       0.042  10.458  18.193  0.00  0.00    +0.000 C 
ATOM     21  C   UNL     1       1.065   9.311  18.331  0.00  0.00    +0.000 C 
BRANCH  16  22
ATOM     22  C   UNL     1       2.235   7.686  19.697  0.00  0.00    +0.000 C 
BRANCH  22  27
ATOM     23  C   UNL     1       1.755   1.874  18.985  0.00  0.00    +0.000 C 
ATOM     24  C   UNL     1       1.804   3.368  19.148  0.00  0.00    +0.000 A 
ATOM     25  C   UNL     1       1.576   3.961  20.397  0.00  0.00    +0.000 A 
ATOM     26  C   UNL     1       1.731   5.345  20.580  0.00  0.00    +0.000 A 
ATOM     27  C   UNL     1       2.123   6.176  19.521  0.00  0.00    +0.000 A 
ATOM     28  C   UNL     1       2.318   5.578  18.263  0.00  0.00    +0.000 A 
ATOM     29  C   UNL     1       2.165   4.193  18.080  0.00  0.00    +0.000 A 
ENDBRANCH  22  27
ENDBRANCH  16  22
ENDBRANCH   1  19
BRANCH  13  30
ATOM     30  C   UNL     1      -1.072  14.749  23.605  0.00  0.00    +0.000 A 
ATOM     31  C   UNL     1      -0.901  15.733  24.584  0.00  0.00    +0.000 A 
ATOM     32  N   UNL     1      -1.775  16.016  25.592  0.00  0.00    +0.000 NA
ATOM     33  C   UNL     1      -2.907  15.274  25.638  0.00  0.00    +0.000 A 
ATOM     34  C   UNL     1      -3.177  14.257  24.743  0.00  0.00    +0.000 A 
ATOM     35  C   UNL     1      -2.245  13.980  23.745  0.00  0.00    +0.000 A 
BRANCH  34  36
ATOM     36  O   UNL     1      -4.328  13.529  24.765  0.00  0.00    +0.000 OA
ATOM     37  H   UNL     1      -4.805  13.649  23.925  0.00  0.00    +0.000 HD
ENDBRANCH  34  36
ENDBRANCH  13  30
TORSDOF 5
ENDMDL
MODEL 4
REMARK VINA RESULT:      -8.0      6.897      9.773
REMARK  Name = 
REMARK  6 active torsions:
REMARK  status: ('A' for Active; 'I' for Inactive)
REMARK    1  A    between atoms: C_1  and  C_2
REMARK    2  A    between atoms: C_5  and  C_6
REMARK    3  A    between atoms: C_6  and  N_7
REMARK    4  A    between atoms: C_10  and  N_11
REMARK    5  A    between atoms: C_23  and  C_24
REMARK    6  A    between atoms: C_28  and  O_29
REMARK                            x       y       z     vdW  Elec       q    Type
REMARK                         _______ _______ _______ _____ _____    ______ ____
ROOT
ATOM      1  N   UNL     1       5.877  15.464  20.039  0.00  0.00    +0.000 N 
ATOM      2  C   UNL     1       6.506  15.519  18.824  0.00  0.00    +0.000 A 
ATOM      3  N   UNL     1       7.656  14.894  18.814  0.00  0.00    +0.000 NA
ATOM      4  C   UNL     1       7.780  14.362  20.080  0.00  0.00    +0.000 A 
ATOM      5  C   UNL     1       8.753  13.501  20.625  0.00  0.00    +0.000 A 
ATOM      6  N   UNL     1       9.891  13.047  19.963  0.00  0.00    +0.000 N 
ATOM      7  C   UNL     1      10.414  13.721  18.762  0.00  0.00    +0.000 C 
ATOM      8  C   UNL     1      10.077  12.968  17.464  0.00  0.00    +0.000 C 
ATOM      9  O   UNL     1      10.426  11.571  17.552  0.00  0.00    +0.000 OA
ATOM     10  C   UNL     1       9.719  10.962  18.645  0.00  0.00    +0.000 C 
ATOM     11  C   UNL     1      10.120  11.596  19.990  0.00  0.00    +0.000 C 
ATOM     12  N   UNL     1       8.515  13.057  21.893  0.00  0.00    +0.000 NA
ATOM     13  C   UNL     1       7.422  13.467  22.592  0.00  0.00    +0.000 A 
ATOM     14  N   UNL     1       6.469  14.329  22.150  0.00  0.00    +0.000 NA
ATOM     15  C   UNL     1       6.691  14.714  20.874  0.00  0.00    +0.000 A 
ENDROOT
BRANCH   1  19
ATOM     16  N   UNL     1       2.253  14.307  19.414  0.00  0.00    +0.000 NA
ATOM     17  C   UNL     1       3.124  13.929  20.538  0.00  0.00    +0.000 C 
ATOM     18  C   UNL     1       3.739  15.121  21.278  0.00  0.00    +0.000 C 
ATOM     19  C   UNL     1       4.563  16.026  20.363  0.00  0.00    +0.000 C 
ATOM     20  C   UNL     1       3.671  16.436  19.171  0.00  0.00    +0.000 C 
ATOM     21  C   UNL     1       2.880  15.289  18.508  0.00  0.00    +0.000 C 
BRANCH  16  22
ATOM     22  C   UNL     1       1.852  13.097  18.628  0.00  0.00    +0.000 C 
BRANCH  22  27
ATOM     23  C   UNL     1      -0.438   8.555  21.567  0.00  0.00    +0.000 C 
ATOM     24  C   UNL     1       0.086   9.716  20.769  0.00  0.00    +0.000 A 
ATOM     25  C   UNL     1      -0.187  11.034  21.156  0.00  0.00    +0.000 A 
ATOM     26  C   UNL     1       0.393  12.121  20.481  0.00  0.00    +0.000 A 
ATOM     27  C   UNL     1       1.266  11.922  19.403  0.00  0.00    +0.000 A 
ATOM     28  C   UNL     1       1.510  10.596  19.000  0.00  0.00    +0.000 A 
ATOM     29  C   UNL     1       0.932   9.509  19.676  0.00  0.00    +0.000 A 
ENDBRANCH  22  27
ENDBRANCH  16  22
ENDBRANCH   1  19
BRANCH  13  30
ATOM     30  C   UNL     1       7.181  12.754  23.867  0.00  0.00    +0.000 A 
ATOM     31  C   UNL     1       7.864  13.035  25.055  0.00  0.00    +0.000 A 
ATOM     32  N   UNL     1       7.607  12.478  26.273  0.00  0.00    +0.000 NA
ATOM     33  C   UNL     1       6.598  11.577  26.327  0.00  0.00    +0.000 A 
ATOM     34  C   UNL     1       5.867  11.198  25.217  0.00  0.00    +0.000 A 
ATOM     35  C   UNL     1       6.179  11.768  23.985  0.00  0.00    +0.000 A 
BRANCH  34  36
ATOM     36  O   UNL     1       4.831  10.316  25.270  0.00  0.00    +0.000 OA
ATOM     37  H   UNL     1       4.049  10.755  25.649  0.00  0.00    +0.000 HD
ENDBRANCH  34  36
ENDBRANCH  13  30
TORSDOF 5
ENDMDL
MODEL 5
REMARK VINA RESULT:      -8.0      4.884     11.439
REMARK  Name = 
REMARK  6 active torsions:
REMARK  status: ('A' for Active; 'I' for Inactive)
REMARK    1  A    between atoms: C_1  and  C_2
REMARK    2  A    between atoms: C_5  and  C_6
REMARK    3  A    between atoms: C_6  and  N_7
REMARK    4  A    between atoms: C_10  and  N_11
REMARK    5  A    between atoms: C_23  and  C_24
REMARK    6  A    between atoms: C_28  and  O_29
REMARK                            x       y       z     vdW  Elec       q    Type
REMARK                         _______ _______ _______ _____ _____    ______ ____
ROOT
ATOM      1  N   UNL     1      -1.095  11.808  19.191  0.00  0.00    +0.000 N 
ATOM      2  C   UNL     1      -1.853  11.454  18.107  0.00  0.00    +0.000 A 
ATOM      3  N   UNL     1      -3.137  11.610  18.307  0.00  0.00    +0.000 NA
ATOM      4  C   UNL     1      -3.236  12.134  19.578  0.00  0.00    +0.000 A 
ATOM      5  C   UNL     1      -4.353  12.608  20.293  0.00  0.00    +0.000 A 
ATOM      6  N   UNL     1      -5.671  12.572  19.848  0.00  0.00    +0.000 N 
ATOM      7  C   UNL     1      -6.100  11.683  18.754  0.00  0.00    +0.000 C 
ATOM      8  C   UNL     1      -6.290  12.429  17.423  0.00  0.00    +0.000 C 
ATOM      9  O   UNL     1      -7.114  13.603  17.582  0.00  0.00    +0.000 OA
ATOM     10  C   UNL     1      -6.512  14.493  18.536  0.00  0.00    +0.000 C 
ATOM     11  C   UNL     1      -6.416  13.837  19.925  0.00  0.00    +0.000 C 
ATOM     12  N   UNL     1      -4.088  13.184  21.503  0.00  0.00    +0.000 NA
ATOM     13  C   UNL     1      -2.821  13.245  21.993  0.00  0.00    +0.000 A 
ATOM     14  N   UNL     1      -1.704  12.769  21.383  0.00  0.00    +0.000 NA
ATOM     15  C   UNL     1      -1.977  12.255  20.163  0.00  0.00    +0.000 A 
ENDROOT
BRANCH   1  19
ATOM     16  N   UNL     1       1.479   9.163  20.306  0.00  0.00    +0.000 NA
ATOM     17  C   UNL     1       0.876   9.308  18.972  0.00  0.00    +0.000 C 
ATOM     18  C   UNL     1       0.998  10.717  18.383  0.00  0.00    +0.000 C 
ATOM     19  C   UNL     1       0.367  11.788  19.273  0.00  0.00    +0.000 C 
ATOM     20  C   UNL     1       0.982  11.657  20.683  0.00  0.00    +0.000 C 
ATOM     21  C   UNL     1       1.054  10.220  21.244  0.00  0.00    +0.000 C 
BRANCH  16  22
ATOM     22  C   UNL     1       1.149   7.824  20.891  0.00  0.00    +0.000 C 
BRANCH  22  27
ATOM     23  C   UNL     1       3.847   3.154  18.562  0.00  0.00    +0.000 C 
ATOM     24  C   UNL     1       3.106   4.346  19.101  0.00  0.00    +0.000 A 
ATOM     25  C   UNL     1       2.098   4.189  20.060  0.00  0.00    +0.000 A 
ATOM     26  C   UNL     1       1.480   5.305  20.650  0.00  0.00    +0.000 A 
ATOM     27  C   UNL     1       1.856   6.609  20.300  0.00  0.00    +0.000 A 
ATOM     28  C   UNL     1       2.846   6.758  19.311  0.00  0.00    +0.000 A 
ATOM     29  C   UNL     1       3.465   5.643  18.723  0.00  0.00    +0.000 A 
ENDBRANCH  22  27
ENDBRANCH  16  22
ENDBRANCH   1  19
BRANCH  13  30
ATOM     30  C   UNL     1      -2.653  14.072  23.210  0.00  0.00    +0.000 A 
ATOM     31  C   UNL     1      -1.433  14.233  23.876  0.00  0.00    +0.000 A 
ATOM     32  N   UNL     1      -1.207  15.062  24.936  0.00  0.00    +0.000 NA
ATOM     33  C   UNL     1      -2.263  15.789  25.372  0.00  0.00    +0.000 A 
ATOM     34  C   UNL     1      -3.523  15.697  24.813  0.00  0.00    +0.000 A 
ATOM     35  C   UNL     1      -3.720  14.818  23.750  0.00  0.00    +0.000 A 
BRANCH  34  36
ATOM     36  O   UNL     1      -4.580  16.448  25.227  0.00  0.00    +0.000 OA
ATOM     37  H   UNL     1      -4.343  16.921  26.044  0.00  0.00    +0.000 HD
ENDBRANCH  34  36
ENDBRANCH  13  30
TORSDOF 5
ENDMDL
MODEL 6
REMARK VINA RESULT:      -7.9      5.477     11.246
REMARK  Name = 
REMARK  6 active torsions:
REMARK  status: ('A' for Active; 'I' for Inactive)
REMARK    1  A    between atoms: C_1  and  C_2
REMARK    2  A    between atoms: C_5  and  C_6
REMARK    3  A    between atoms: C_6  and  N_7
REMARK    4  A    between atoms: C_10  and  N_11
REMARK    5  A    between atoms: C_23  and  C_24
REMARK    6  A    between atoms: C_28  and  O_29
REMARK                            x       y       z     vdW  Elec       q    Type
REMARK                         _______ _______ _______ _____ _____    ______ ____
ROOT
ATOM      1  N   UNL     1       0.851  12.429  19.798  0.00  0.00    +0.000 N 
ATOM      2  C   UNL     1       2.122  12.549  19.303  0.00  0.00    +0.000 A 
ATOM      3  N   UNL     1       2.783  13.549  19.827  0.00  0.00    +0.000 NA
ATOM      4  C   UNL     1       1.919  14.101  20.749  0.00  0.00    +0.000 A 
ATOM      5  C   UNL     1       2.113  15.129  21.692  0.00  0.00    +0.000 A 
ATOM      6  N   UNL     1       3.273  15.884  21.836  0.00  0.00    +0.000 N 
ATOM      7  C   UNL     1       4.287  15.966  20.770  0.00  0.00    +0.000 C 
ATOM      8  C   UNL     1       5.521  15.094  21.055  0.00  0.00    +0.000 C 
ATOM      9  O   UNL     1       6.044  15.328  22.380  0.00  0.00    +0.000 OA
ATOM     10  C   UNL     1       5.031  15.042  23.358  0.00  0.00    +0.000 C 
ATOM     11  C   UNL     1       3.820  15.979  23.197  0.00  0.00    +0.000 C 
ATOM     12  N   UNL     1       1.076  15.356  22.551  0.00  0.00    +0.000 NA
ATOM     13  C   UNL     1      -0.085  14.653  22.458  0.00  0.00    +0.000 A 
ATOM     14  N   UNL     1      -0.360  13.682  21.547  0.00  0.00    +0.000 NA
ATOM     15  C   UNL     1       0.697  13.432  20.743  0.00  0.00    +0.000 A 
ENDROOT
BRANCH   1  19
ATOM     16  N   UNL     1       0.993   8.580  19.633  0.00  0.00    +0.000 NA
ATOM     17  C   UNL     1       0.707   9.408  20.815  0.00  0.00    +0.000 C 
ATOM     18  C   UNL     1      -0.412  10.433  20.601  0.00  0.00    +0.000 C 
ATOM     19  C   UNL     1      -0.123  11.393  19.447  0.00  0.00    +0.000 C 
ATOM     20  C   UNL     1       0.184  10.548  18.192  0.00  0.00    +0.000 C 
ATOM     21  C   UNL     1       1.167   9.378  18.404  0.00  0.00    +0.000 C 
BRANCH  16  22
ATOM     22  C   UNL     1       2.217   7.747  19.857  0.00  0.00    +0.000 C 
BRANCH  22  27
ATOM     23  C   UNL     1       1.762   2.007  18.691  0.00  0.00    +0.000 C 
ATOM     24  C   UNL     1       1.805   3.483  18.971  0.00  0.00    +0.000 A 
ATOM     25  C   UNL     1       1.562   3.977  20.259  0.00  0.00    +0.000 A 
ATOM     26  C   UNL     1       1.711   5.343  20.550  0.00  0.00    +0.000 A 
ATOM     27  C   UNL     1       2.111   6.254  19.563  0.00  0.00    +0.000 A 
ATOM     28  C   UNL     1       2.322   5.756  18.265  0.00  0.00    +0.000 A 
ATOM     29  C   UNL     1       2.175   4.390  17.973  0.00  0.00    +0.000 A 
ENDBRANCH  22  27
ENDBRANCH  16  22
ENDBRANCH   1  19
BRANCH  13  30
ATOM     30  C   UNL     1      -1.039  14.856  23.572  0.00  0.00    +0.000 A 
ATOM     31  C   UNL     1      -2.330  14.319  23.595  0.00  0.00    +0.000 A 
ATOM     32  N   UNL     1      -3.205  14.392  24.639  0.00  0.00    +0.000 NA
ATOM     33  C   UNL     1      -2.775  15.042  25.746  0.00  0.00    +0.000 A 
ATOM     34  C   UNL     1      -1.530  15.636  25.834  0.00  0.00    +0.000 A 
ATOM     35  C   UNL     1      -0.676  15.564  24.735  0.00  0.00    +0.000 A 
BRANCH  34  36
ATOM     36  O   UNL     1      -1.080  16.264  26.955  0.00  0.00    +0.000 OA
ATOM     37  H   UNL     1      -0.416  15.705  27.396  0.00  0.00    +0.000 HD
ENDBRANCH  34  36
ENDBRANCH  13  30
TORSDOF 5
ENDMDL
MODEL 7
REMARK VINA RESULT:      -7.9      4.745     10.967
REMARK  Name = 
REMARK  6 active torsions:
REMARK  status: ('A' for Active; 'I' for Inactive)
REMARK    1  A    between atoms: C_1  and  C_2
REMARK    2  A    between atoms: C_5  and  C_6
REMARK    3  A    between atoms: C_6  and  N_7
REMARK    4  A    between atoms: C_10  and  N_11
REMARK    5  A    between atoms: C_23  and  C_24
REMARK    6  A    between atoms: C_28  and  O_29
REMARK                            x       y       z     vdW  Elec       q    Type
REMARK                         _______ _______ _______ _____ _____    ______ ____
ROOT
ATOM      1  N   UNL     1       0.915  11.446  19.185  0.00  0.00    +0.000 N 
ATOM      2  C   UNL     1       2.127  11.788  18.646  0.00  0.00    +0.000 A 
ATOM      3  N   UNL     1       2.584  12.928  19.096  0.00  0.00    +0.000 NA
ATOM      4  C   UNL     1       1.645  13.348  20.013  0.00  0.00    +0.000 A 
ATOM      5  C   UNL     1       1.647  14.447  20.895  0.00  0.00    +0.000 A 
ATOM      6  N   UNL     1       2.635  15.425  20.963  0.00  0.00    +0.000 N 
ATOM      7  C   UNL     1       3.591  15.645  19.863  0.00  0.00    +0.000 C 
ATOM      8  C   UNL     1       4.980  15.055  20.156  0.00  0.00    +0.000 C 
ATOM      9  O   UNL     1       5.471  15.465  21.450  0.00  0.00    +0.000 OA
ATOM     10  C   UNL     1       4.555  15.039  22.473  0.00  0.00    +0.000 C 
ATOM     11  C   UNL     1       3.178  15.706  22.300  0.00  0.00    +0.000 C 
ATOM     12  N   UNL     1       0.603  14.512  21.772  0.00  0.00    +0.000 NA
ATOM     13  C   UNL     1      -0.395  13.588  21.752  0.00  0.00    +0.000 A 
ATOM     14  N   UNL     1      -0.488  12.531  20.902  0.00  0.00    +0.000 NA
ATOM     15  C   UNL     1       0.581  12.451  20.080  0.00  0.00    +0.000 A 
ENDROOT
BRANCH   1  19
ATOM     16  N   UNL     1       1.848   7.706  19.112  0.00  0.00    +0.000 NA
ATOM     17  C   UNL     1       1.458   8.500  20.287  0.00  0.00    +0.000 C 
ATOM     18  C   UNL     1       0.140   9.263  20.113  0.00  0.00    +0.000 C 
ATOM     19  C   UNL     1       0.162  10.218  18.919  0.00  0.00    +0.000 C 
ATOM     20  C   UNL     1       0.573   9.408  17.670  0.00  0.00    +0.000 C 
ATOM     21  C   UNL     1       1.788   8.475  17.855  0.00  0.00    +0.000 C 
BRANCH  16  22
ATOM     22  C   UNL     1       3.230   7.153  19.286  0.00  0.00    +0.000 C 
BRANCH  22  27
ATOM     23  C   UNL     1       5.583   4.194  14.790  0.00  0.00    +0.000 C 
ATOM     24  C   UNL     1       5.038   4.925  15.985  0.00  0.00    +0.000 A 
ATOM     25  C   UNL     1       5.403   6.252  16.242  0.00  0.00    +0.000 A 
ATOM     26  C   UNL     1       4.811   6.976  17.290  0.00  0.00    +0.000 A 
ATOM     27  C   UNL     1       3.833   6.394  18.110  0.00  0.00    +0.000 A 
ATOM     28  C   UNL     1       3.495   5.050  17.866  0.00  0.00    +0.000 A 
ATOM     29  C   UNL     1       4.086   4.327  16.816  0.00  0.00    +0.000 A 
ENDBRANCH  22  27
ENDBRANCH  16  22
ENDBRANCH   1  19
BRANCH  13  30
ATOM     30  C   UNL     1      -1.348  13.661  22.882  0.00  0.00    +0.000 A 
ATOM     31  C   UNL     1      -1.388  14.718  23.797  0.00  0.00    +0.000 A 
ATOM     32  N   UNL     1      -2.310  14.880  24.789  0.00  0.00    +0.000 NA
ATOM     33  C   UNL     1      -3.268  13.928  24.886  0.00  0.00    +0.000 A 
ATOM     34  C   UNL     1      -3.320  12.824  24.057  0.00  0.00    +0.000 A 
ATOM     35  C   UNL     1      -2.343  12.680  23.075  0.00  0.00    +0.000 A 
BRANCH  34  36
ATOM     36  O   UNL     1      -4.299  11.881  24.130  0.00  0.00    +0.000 OA
ATOM     37  H   UNL     1      -5.094  12.268  24.537  0.00  0.00    +0.000 HD
ENDBRANCH  34  36
ENDBRANCH  13  30
TORSDOF 5
ENDMDL
MODEL 8
REMARK VINA RESULT:      -7.9      5.009     11.533
REMARK  Name = 
REMARK  6 active torsions:
REMARK  status: ('A' for Active; 'I' for Inactive)
REMARK    1  A    between atoms: C_1  and  C_2
REMARK    2  A    between atoms: C_5  and  C_6
REMARK    3  A    between atoms: C_6  and  N_7
REMARK    4  A    between atoms: C_10  and  N_11
REMARK    5  A    between atoms: C_23  and  C_24
REMARK    6  A    between atoms: C_28  and  O_29
REMARK                            x       y       z     vdW  Elec       q    Type
REMARK                         _______ _______ _______ _____ _____    ______ ____
ROOT
ATOM      1  N   UNL     1      -1.123  14.084  19.876  0.00  0.00    +0.000 N 
ATOM      2  C   UNL     1      -0.259  14.911  20.544  0.00  0.00    +0.000 A 
ATOM      3  N   UNL     1      -0.803  15.484  21.587  0.00  0.00    +0.000 NA
ATOM      4  C   UNL     1      -2.085  14.981  21.639  0.00  0.00    +0.000 A 
ATOM      5  C   UNL     1      -3.100  15.147  22.601  0.00  0.00    +0.000 A 
ATOM      6  N   UNL     1      -3.021  15.964  23.726  0.00  0.00    +0.000 N 
ATOM      7  C   UNL     1      -2.026  17.045  23.835  0.00  0.00    +0.000 C 
ATOM      8  C   UNL     1      -0.843  16.676  24.745  0.00  0.00    +0.000 C 
ATOM      9  O   UNL     1      -1.290  16.160  26.016  0.00  0.00    +0.000 OA
ATOM     10  C   UNL     1      -2.103  14.994  25.808  0.00  0.00    +0.000 C 
ATOM     11  C   UNL     1      -3.373  15.337  25.008  0.00  0.00    +0.000 C 
ATOM     12  N   UNL     1      -4.229  14.403  22.414  0.00  0.00    +0.000 NA
ATOM     13  C   UNL     1      -4.368  13.590  21.332  0.00  0.00    +0.000 A 
ATOM     14  N   UNL     1      -3.453  13.415  20.342  0.00  0.00    +0.000 NA
ATOM     15  C   UNL     1      -2.321  14.115  20.574  0.00  0.00    +0.000 A 
ENDROOT
BRANCH   1  19
ATOM     16  N   UNL     1       0.415  10.583  19.386  0.00  0.00    +0.000 NA
ATOM     17  C   UNL     1      -0.999  10.904  19.632  0.00  0.00    +0.000 C 
ATOM     18  C   UNL     1      -1.577  11.947  18.670  0.00  0.00    +0.000 C 
ATOM     19  C   UNL     1      -0.810  13.270  18.699  0.00  0.00    +0.000 C 
ATOM     20  C   UNL     1       0.681  12.960  18.446  0.00  0.00    +0.000 C 
ATOM     21  C   UNL     1       1.262  11.785  19.260  0.00  0.00    +0.000 C 
BRANCH  16  22
ATOM     22  C   UNL     1       0.955   9.712  20.479  0.00  0.00    +0.000 C 
BRANCH  22  27
ATOM     23  C   UNL     1       3.111   4.484  18.887  0.00  0.00    +0.000 C 
ATOM     24  C   UNL     1       2.492   5.802  19.264  0.00  0.00    +0.000 A 
ATOM     25  C   UNL     1       1.896   5.982  20.518  0.00  0.00    +0.000 A 
ATOM     26  C   UNL     1       1.418   7.241  20.918  0.00  0.00    +0.000 A 
ATOM     27  C   UNL     1       1.526   8.357  20.076  0.00  0.00    +0.000 A 
ATOM     28  C   UNL     1       2.096   8.161  18.805  0.00  0.00    +0.000 A 
ATOM     29  C   UNL     1       2.576   6.902  18.406  0.00  0.00    +0.000 A 
ENDBRANCH  22  27
ENDBRANCH  16  22
ENDBRANCH   1  19
BRANCH  13  30
ATOM     30  C   UNL     1      -5.546  12.693  21.361  0.00  0.00    +0.000 A 
ATOM     31  C   UNL     1      -6.422  12.598  22.446  0.00  0.00    +0.000 A 
ATOM     32  N   UNL     1      -7.573  11.867  22.480  0.00  0.00    +0.000 NA
ATOM     33  C   UNL     1      -7.886  11.177  21.357  0.00  0.00    +0.000 A 
ATOM     34  C   UNL     1      -7.087  11.172  20.230  0.00  0.00    +0.000 A 
ATOM     35  C   UNL     1      -5.905  11.909  20.245  0.00  0.00    +0.000 A 
BRANCH  34  36
ATOM     36  O   UNL     1      -7.412  10.507  19.087  0.00  0.00    +0.000 OA
ATOM     37  H   UNL     1      -6.837  10.806  18.362  0.00  0.00    +0.000 HD
ENDBRANCH  34  36
ENDBRANCH  13  30
TORSDOF 5
ENDMDL
MODEL 9
REMARK VINA RESULT:      -7.8      7.026      9.913
REMARK  Name = 
REMARK  6 active torsions:
REMARK  status: ('A' for Active; 'I' for Inactive)
REMARK    1  A    between atoms: C_1  and  C_2
REMARK    2  A    between atoms: C_5  and  C_6
REMARK    3  A    between atoms: C_6  and  N_7
REMARK    4  A    between atoms: C_10  and  N_11
REMARK    5  A    between atoms: C_23  and  C_24
REMARK    6  A    between atoms: C_28  and  O_29
REMARK                            x       y       z     vdW  Elec       q    Type
REMARK                         _______ _______ _______ _____ _____    ______ ____
ROOT
ATOM      1  N   UNL     1       5.898  15.558  19.754  0.00  0.00    +0.000 N 
ATOM      2  C   UNL     1       6.598  15.585  18.577  0.00  0.00    +0.000 A 
ATOM      3  N   UNL     1       7.736  14.943  18.643  0.00  0.00    +0.000 NA
ATOM      4  C   UNL     1       7.778  14.428  19.921  0.00  0.00    +0.000 A 
ATOM      5  C   UNL     1       8.703  13.560  20.534  0.00  0.00    +0.000 A 
ATOM      6  N   UNL     1       9.870  13.079  19.946  0.00  0.00    +0.000 N 
ATOM      7  C   UNL     1      10.473  13.727  18.768  0.00  0.00    +0.000 C 
ATOM      8  C   UNL     1      10.200  12.960  17.464  0.00  0.00    +0.000 C 
ATOM      9  O   UNL     1      10.521  11.559  17.591  0.00  0.00    +0.000 OA
ATOM     10  C   UNL     1       9.741  10.977  18.649  0.00  0.00    +0.000 C 
ATOM     11  C   UNL     1      10.074  11.624  20.006  0.00  0.00    +0.000 C 
ATOM     12  N   UNL     1       8.384  13.138  21.792  0.00  0.00    +0.000 NA
ATOM     13  C   UNL     1       7.259  13.575  22.420  0.00  0.00    +0.000 A 
ATOM     14  N   UNL     1       6.348  14.446  21.912  0.00  0.00    +0.000 NA
ATOM     15  C   UNL     1       6.650  14.808  20.645  0.00  0.00    +0.000 A 
ENDROOT
BRANCH   1  19
ATOM     16  N   UNL     1       2.293  14.395  19.039  0.00  0.00    +0.000 NA
ATOM     17  C   UNL     1       3.114  14.070  20.216  0.00  0.00    +0.000 C 
ATOM     18  C   UNL     1       3.708  15.295  20.919  0.00  0.00    +0.000 C 
ATOM     19  C   UNL     1       4.578  16.145  19.993  0.00  0.00    +0.000 C 
ATOM     20  C   UNL     1       3.740  16.499  18.745  0.00  0.00    +0.000 C 
ATOM     21  C   UNL     1       2.966  15.323  18.111  0.00  0.00    +0.000 C 
BRANCH  16  22
ATOM     22  C   UNL     1       1.914  13.148  18.301  0.00  0.00    +0.000 C 
BRANCH  22  27
ATOM     23  C   UNL     1      -0.264   8.673  21.423  0.00  0.00    +0.000 C 
ATOM     24  C   UNL     1       0.230   9.818  20.582  0.00  0.00    +0.000 A 
ATOM     25  C   UNL     1       0.004  11.144  20.973  0.00  0.00    +0.000 A 
ATOM     26  C   UNL     1       0.559  12.214  20.252  0.00  0.00    +0.000 A 
ATOM     27  C   UNL     1       1.359  11.990  19.123  0.00  0.00    +0.000 A 
ATOM     28  C   UNL     1       1.553  10.656  18.718  0.00  0.00    +0.000 A 
ATOM     29  C   UNL     1       1.000   9.585  19.440  0.00  0.00    +0.000 A 
ENDBRANCH  22  27
ENDBRANCH  16  22
ENDBRANCH   1  19
BRANCH  13  30
ATOM     30  C   UNL     1       6.933  12.885  23.689  0.00  0.00    +0.000 A 
ATOM     31  C   UNL     1       5.945  11.901  23.804  0.00  0.00    +0.000 A 
ATOM     32  N   UNL     1       5.679  11.167  24.923  0.00  0.00    +0.000 NA
ATOM     33  C   UNL     1       6.446  11.419  26.010  0.00  0.00    +0.000 A 
ATOM     34  C   UNL     1       7.436  12.383  26.026  0.00  0.00    +0.000 A 
ATOM     35  C   UNL     1       7.658  13.132  24.872  0.00  0.00    +0.000 A 
BRANCH  34  36
ATOM     36  O   UNL     1       8.231  12.619  27.106  0.00  0.00    +0.000 OA
ATOM     37  H   UNL     1       8.960  11.974  27.120  0.00  0.00    +0.000 HD
ENDBRANCH  34  36
ENDBRANCH  13  30
TORSDOF 5
ENDMDL
