MODEL 1
REMARK VINA RESULT:      -7.7      0.000      0.000
REMARK  Name = 
REMARK  7 active torsions:
REMARK  status: ('A' for Active; 'I' for Inactive)
REMARK    1  A    between atoms: C_1  and  C_2
REMARK    2  A    between atoms: C_2  and  C_3
REMARK    3  A    between atoms: C_3  and  C_4
REMARK    4  A    between atoms: C_4  and  C_5
REMARK    5  A    between atoms: C_16  and  O_17
REMARK    6  A    between atoms: O_17  and  C_18
REMARK    7  A    between atoms: C_18  and  C_19
REMARK                            x       y       z     vdW  Elec       q    Type
REMARK                         _______ _______ _______ _____ _____    ______ ____
ROOT
ATOM      1  C   UNL     1       5.198   4.997  18.613  0.00  0.00    +0.000 C 
ATOM      2  O   UNL     1       6.078   5.897  19.338  0.00  0.00    +0.000 OA
ATOM      3  S   UNL     1       7.643   5.814  18.883  0.00  0.00    +0.000 S 
ATOM      4  O   UNL     1       8.058   7.125  18.431  0.00  0.00    +0.000 OA
ATOM      5  O   UNL     1       8.370   5.075  19.892  0.00  0.00    +0.000 OA
ATOM      6  C   UNL     1       7.360   4.797  17.537  0.00  0.00    +0.000 C 
ATOM      7  C   UNL     1       6.076   4.418  17.501  0.00  0.00    +0.000 C 
ENDROOT
BRANCH   1   9
ATOM      8  C   UNL     1       4.399   7.004  17.173  0.00  0.00    +0.000 C 
ATOM      9  C   UNL     1       4.017   5.866  18.113  0.00  0.00    +0.000 C 
ENDBRANCH   1   9
BRANCH   1  10
ATOM     10  C   UNL     1       4.695   3.976  19.687  0.00  0.00    +0.000 C 
BRANCH  10  11
ATOM     11  C   UNL     1       3.238   3.566  19.666  0.00  0.00    +0.000 A 
ATOM     12  C   UNL     1       2.779   2.627  18.739  0.00  0.00    +0.000 A 
ATOM     13  C   UNL     1       1.429   2.271  18.675  0.00  0.00    +0.000 A 
ATOM     14  C   UNL     1       0.527   2.810  19.582  0.00  0.00    +0.000 A 
ATOM     15  C   UNL     1       0.971   3.710  20.548  0.00  0.00    +0.000 A 
ATOM     16  C   UNL     1       2.317   4.094  20.586  0.00  0.00    +0.000 A 
ENDBRANCH  10  11
ENDBRANCH   1  10
BRANCH   7  17
ATOM     17  O   UNL     1       5.497   3.612  16.549  0.00  0.00    +0.000 OA
BRANCH  17  18
ATOM     18  C   UNL     1       6.212   3.436  15.311  0.00  0.00    +0.000 C 
BRANCH  18  19
ATOM     19  C   UNL     1       5.644   4.413  14.265  0.00  0.00    +0.000 C 
ATOM     20  C   UNL     1       6.631   5.545  13.943  0.00  0.00    +0.000 C 
ATOM     21  C   UNL     1       7.802   5.073  13.085  0.00  0.00    +0.000 C 
ATOM     22  C   UNL     1       7.321   4.402  11.802  0.00  0.00    +0.000 C 
ATOM     23  C   UNL     1       6.345   3.263  12.083  0.00  0.00    +0.000 C 
ATOM     24  C   UNL     1       5.190   3.708  12.976  0.00  0.00    +0.000 C 
ENDBRANCH  18  19
ENDBRANCH  17  18
ENDBRANCH   7  17
TORSDOF 6
ENDMDL
MODEL 2
REMARK VINA RESULT:      -7.5      1.198      1.535
REMARK  Name = 
REMARK  7 active torsions:
REMARK  status: ('A' for Active; 'I' for Inactive)
REMARK    1  A    between atoms: C_1  and  C_2
REMARK    2  A    between atoms: C_2  and  C_3
REMARK    3  A    between atoms: C_3  and  C_4
REMARK    4  A    between atoms: C_4  and  C_5
REMARK    5  A    between atoms: C_16  and  O_17
REMARK    6  A    between atoms: O_17  and  C_18
REMARK    7  A    between atoms: C_18  and  C_19
REMARK                            x       y       z     vdW  Elec       q    Type
REMARK                         _______ _______ _______ _____ _____    ______ ____
ROOT
ATOM      1  C   UNL     1       4.954   4.812  17.385  0.00  0.00    +0.000 C 
ATOM      2  O   UNL     1       5.816   5.320  18.440  0.00  0.00    +0.000 OA
ATOM      3  S   UNL     1       7.371   5.533  17.989  0.00  0.00    +0.000 S 
ATOM      4  O   UNL     1       7.719   6.923  18.190  0.00  0.00    +0.000 OA
ATOM      5  O   UNL     1       8.154   4.449  18.541  0.00  0.00    +0.000 OA
ATOM      6  C   UNL     1       7.093   5.235  16.328  0.00  0.00    +0.000 C 
ATOM      7  C   UNL     1       5.826   4.853  16.127  0.00  0.00    +0.000 C 
ENDROOT
BRANCH   1   9
ATOM      8  C   UNL     1       4.047   7.245  17.407  0.00  0.00    +0.000 C 
ATOM      9  C   UNL     1       3.726   5.755  17.347  0.00  0.00    +0.000 C 
ENDBRANCH   1   9
BRANCH   1  10
ATOM     10  C   UNL     1       4.524   3.389  17.872  0.00  0.00    +0.000 C 
BRANCH  10  11
ATOM     11  C   UNL     1       3.247   3.258  18.676  0.00  0.00    +0.000 A 
ATOM     12  C   UNL     1       2.085   2.754  18.085  0.00  0.00    +0.000 A 
ATOM     13  C   UNL     1       0.888   2.669  18.799  0.00  0.00    +0.000 A 
ATOM     14  C   UNL     1       0.851   3.033  20.138  0.00  0.00    +0.000 A 
ATOM     15  C   UNL     1       2.010   3.490  20.762  0.00  0.00    +0.000 A 
ATOM     16  C   UNL     1       3.200   3.611  20.035  0.00  0.00    +0.000 A 
ENDBRANCH  10  11
ENDBRANCH   1  10
BRANCH   7  17
ATOM     17  O   UNL     1       5.255   4.547  14.914  0.00  0.00    +0.000 OA
BRANCH  17  18
ATOM     18  C   UNL     1       5.938   3.584  14.089  0.00  0.00    +0.000 C 
BRANCH  18  19
ATOM     19  C   UNL     1       5.808   4.010  12.615  0.00  0.00    +0.000 C 
ATOM     20  C   UNL     1       7.169   4.038  11.904  0.00  0.00    +0.000 C 
ATOM     21  C   UNL     1       7.701   2.637  11.608  0.00  0.00    +0.000 C 
ATOM     22  C   UNL     1       6.697   1.814  10.808  0.00  0.00    +0.000 C 
ATOM     23  C   UNL     1       5.333   1.756  11.490  0.00  0.00    +0.000 C 
ATOM     24  C   UNL     1       4.805   3.147  11.832  0.00  0.00    +0.000 C 
ENDBRANCH  18  19
ENDBRANCH  17  18
ENDBRANCH   7  17
TORSDOF 6
ENDMDL
MODEL 3
REMARK VINA RESULT:      -7.4      1.275      1.829
REMARK  Name = 
REMARK  7 active torsions:
REMARK  status: ('A' for Active; 'I' for Inactive)
REMARK    1  A    between atoms: C_1  and  C_2
REMARK    2  A    between atoms: C_2  and  C_3
REMARK    3  A    between atoms: C_3  and  C_4
REMARK    4  A    between atoms: C_4  and  C_5
REMARK    5  A    between atoms: C_16  and  O_17
REMARK    6  A    between atoms: O_17  and  C_18
REMARK    7  A    between atoms: C_18  and  C_19
REMARK                            x       y       z     vdW  Elec       q    Type
REMARK                         _______ _______ _______ _____ _____    ______ ____
ROOT
ATOM      1  C   UNL     1       4.860   4.820  17.261  0.00  0.00    +0.000 C 
ATOM      2  O   UNL     1       5.681   5.331  18.346  0.00  0.00    +0.000 OA
ATOM      3  S   UNL     1       7.248   5.559  17.949  0.00  0.00    +0.000 S 
ATOM      4  O   UNL     1       7.577   6.952  18.166  0.00  0.00    +0.000 OA
ATOM      5  O   UNL     1       8.022   4.481  18.524  0.00  0.00    +0.000 OA
ATOM      6  C   UNL     1       7.030   5.265  16.278  0.00  0.00    +0.000 C 
ATOM      7  C   UNL     1       5.774   4.872  16.034  0.00  0.00    +0.000 C 
ENDROOT
BRANCH   1   9
ATOM      8  C   UNL     1       3.590   6.871  18.219  0.00  0.00    +0.000 C 
ATOM      9  C   UNL     1       3.626   5.751  17.184  0.00  0.00    +0.000 C 
ENDBRANCH   1   9
BRANCH   1  10
ATOM     10  C   UNL     1       4.426   3.390  17.729  0.00  0.00    +0.000 C 
BRANCH  10  11
ATOM     11  C   UNL     1       3.204   3.262  18.613  0.00  0.00    +0.000 A 
ATOM     12  C   UNL     1       3.274   3.584  19.971  0.00  0.00    +0.000 A 
ATOM     13  C   UNL     1       2.169   3.428  20.810  0.00  0.00    +0.000 A 
ATOM     14  C   UNL     1       0.956   3.002  20.288  0.00  0.00    +0.000 A 
ATOM     15  C   UNL     1       0.849   2.723  18.927  0.00  0.00    +0.000 A 
ATOM     16  C   UNL     1       1.967   2.843  18.094  0.00  0.00    +0.000 A 
ENDBRANCH  10  11
ENDBRANCH   1  10
BRANCH   7  17
ATOM     17  O   UNL     1       5.247   4.565  14.801  0.00  0.00    +0.000 OA
BRANCH  17  18
ATOM     18  C   UNL     1       5.954   3.594  14.006  0.00  0.00    +0.000 C 
BRANCH  18  19
ATOM     19  C   UNL     1       5.817   3.972  12.520  0.00  0.00    +0.000 C 
ATOM     20  C   UNL     1       7.176   3.999  11.807  0.00  0.00    +0.000 C 
ATOM     21  C   UNL     1       7.731   2.599  11.553  0.00  0.00    +0.000 C 
ATOM     22  C   UNL     1       6.739   1.736  10.780  0.00  0.00    +0.000 C 
ATOM     23  C   UNL     1       5.377   1.676  11.466  0.00  0.00    +0.000 C 
ATOM     24  C   UNL     1       4.827   3.069  11.765  0.00  0.00    +0.000 C 
ENDBRANCH  18  19
ENDBRANCH  17  18
ENDBRANCH   7  17
TORSDOF 6
ENDMDL
MODEL 4
REMARK VINA RESULT:      -7.3      2.667      5.371
REMARK  Name = 
REMARK  7 active torsions:
REMARK  status: ('A' for Active; 'I' for Inactive)
REMARK    1  A    between atoms: C_1  and  C_2
REMARK    2  A    between atoms: C_2  and  C_3
REMARK    3  A    between atoms: C_3  and  C_4
REMARK    4  A    between atoms: C_4  and  C_5
REMARK    5  A    between atoms: C_16  and  O_17
REMARK    6  A    between atoms: O_17  and  C_18
REMARK    7  A    between atoms: C_18  and  C_19
REMARK                            x       y       z     vdW  Elec       q    Type
REMARK                         _______ _______ _______ _____ _____    ______ ____
ROOT
ATOM      1  C   UNL     1       5.676   4.762  18.101  0.00  0.00    +0.000 C 
ATOM      2  O   UNL     1       6.612   4.371  17.060  0.00  0.00    +0.000 OA
ATOM      3  S   UNL     1       6.346   5.086  15.617  0.00  0.00    +0.000 S 
ATOM      4  O   UNL     1       7.536   5.819  15.243  0.00  0.00    +0.000 OA
ATOM      5  O   UNL     1       5.723   4.118  14.741  0.00  0.00    +0.000 OA
ATOM      6  C   UNL     1       5.154   6.167  16.197  0.00  0.00    +0.000 C 
ATOM      7  C   UNL     1       4.868   5.903  17.478  0.00  0.00    +0.000 C 
ENDROOT
BRANCH   1   9
ATOM      8  C   UNL     1       7.798   5.969  18.984  0.00  0.00    +0.000 C 
ATOM      9  C   UNL     1       6.539   5.175  19.318  0.00  0.00    +0.000 C 
ENDBRANCH   1   9
BRANCH   1  10
ATOM     10  C   UNL     1       4.875   3.458  18.428  0.00  0.00    +0.000 C 
BRANCH  10  11
ATOM     11  C   UNL     1       3.484   3.594  19.011  0.00  0.00    +0.000 A 
ATOM     12  C   UNL     1       3.308   3.895  20.364  0.00  0.00    +0.000 A 
ATOM     13  C   UNL     1       2.033   3.979  20.928  0.00  0.00    +0.000 A 
ATOM     14  C   UNL     1       0.910   3.820  20.128  0.00  0.00    +0.000 A 
ATOM     15  C   UNL     1       1.060   3.570  18.766  0.00  0.00    +0.000 A 
ATOM     16  C   UNL     1       2.339   3.447  18.211  0.00  0.00    +0.000 A 
ENDBRANCH  10  11
ENDBRANCH   1  10
BRANCH   7  17
ATOM     17  O   UNL     1       3.967   6.584  18.264  0.00  0.00    +0.000 OA
BRANCH  17  18
ATOM     18  C   UNL     1       3.415   7.802  17.728  0.00  0.00    +0.000 C 
BRANCH  18  19
ATOM     19  C   UNL     1       1.885   7.773  17.901  0.00  0.00    +0.000 C 
ATOM     20  C   UNL     1       1.474   7.231  19.278  0.00  0.00    +0.000 C 
ATOM     21  C   UNL     1       1.732   8.234  20.401  0.00  0.00    +0.000 C 
ATOM     22  C   UNL     1       1.049   9.570  20.127  0.00  0.00    +0.000 C 
ATOM     23  C   UNL     1       1.442  10.145  18.769  0.00  0.00    +0.000 C 
ATOM     24  C   UNL     1       1.230   9.139  17.640  0.00  0.00    +0.000 C 
ENDBRANCH  18  19
ENDBRANCH  17  18
ENDBRANCH   7  17
TORSDOF 6
ENDMDL
MODEL 5
REMARK VINA RESULT:      -7.3      2.809      5.505
REMARK  Name = 
REMARK  7 active torsions:
REMARK  status: ('A' for Active; 'I' for Inactive)
REMARK    1  A    between atoms: C_1  and  C_2
REMARK    2  A    between atoms: C_2  and  C_3
REMARK    3  A    between atoms: C_3  and  C_4
REMARK    4  A    between atoms: C_4  and  C_5
REMARK    5  A    between atoms: C_16  and  O_17
REMARK    6  A    between atoms: O_17  and  C_18
REMARK    7  A    between atoms: C_18  and  C_19
REMARK                            x       y       z     vdW  Elec       q    Type
REMARK                         _______ _______ _______ _____ _____    ______ ____
ROOT
ATOM      1  C   UNL     1       5.149   4.714  17.939  0.00  0.00    +0.000 C 
ATOM      2  O   UNL     1       6.138   4.370  16.931  0.00  0.00    +0.000 OA
ATOM      3  S   UNL     1       6.136   5.354  15.629  0.00  0.00    +0.000 S 
ATOM      4  O   UNL     1       7.448   5.952  15.505  0.00  0.00    +0.000 OA
ATOM      5  O   UNL     1       5.495   4.657  14.536  0.00  0.00    +0.000 OA
ATOM      6  C   UNL     1       5.040   6.488  16.292  0.00  0.00    +0.000 C 
ATOM      7  C   UNL     1       4.577   6.054  17.471  0.00  0.00    +0.000 C 
ENDROOT
BRANCH   1   9
ATOM      8  C   UNL     1       7.202   5.594  19.263  0.00  0.00    +0.000 C 
ATOM      9  C   UNL     1       5.915   4.776  19.284  0.00  0.00    +0.000 C 
ENDBRANCH   1   9
BRANCH   1  10
ATOM     10  C   UNL     1       4.150   3.509  17.946  0.00  0.00    +0.000 C 
BRANCH  10  11
ATOM     11  C   UNL     1       3.171   3.392  19.095  0.00  0.00    +0.000 A 
ATOM     12  C   UNL     1       1.883   3.923  18.986  0.00  0.00    +0.000 A 
ATOM     13  C   UNL     1       0.983   3.864  20.053  0.00  0.00    +0.000 A 
ATOM     14  C   UNL     1       1.341   3.217  21.227  0.00  0.00    +0.000 A 
ATOM     15  C   UNL     1       2.601   2.635  21.340  0.00  0.00    +0.000 A 
ATOM     16  C   UNL     1       3.516   2.729  20.285  0.00  0.00    +0.000 A 
ENDBRANCH  10  11
ENDBRANCH   1  10
BRANCH   7  17
ATOM     17  O   UNL     1       3.690   6.718  18.287  0.00  0.00    +0.000 OA
BRANCH  17  18
ATOM     18  C   UNL     1       3.183   7.982  17.816  0.00  0.00    +0.000 C 
BRANCH  18  19
ATOM     19  C   UNL     1       1.662   8.026  18.053  0.00  0.00    +0.000 C 
ATOM     20  C   UNL     1       1.290   7.575  19.473  0.00  0.00    +0.000 C 
ATOM     21  C   UNL     1       1.636   8.623  20.529  0.00  0.00    +0.000 C 
ATOM     22  C   UNL     1       0.996   9.970  20.211  0.00  0.00    +0.000 C 
ATOM     23  C   UNL     1       1.352  10.457  18.810  0.00  0.00    +0.000 C 
ATOM     24  C   UNL     1       1.052   9.404  17.746  0.00  0.00    +0.000 C 
ENDBRANCH  18  19
ENDBRANCH  17  18
ENDBRANCH   7  17
TORSDOF 6
ENDMDL
MODEL 6
REMARK VINA RESULT:      -7.2      1.407      2.320
REMARK  Name = 
REMARK  7 active torsions:
REMARK  status: ('A' for Active; 'I' for Inactive)
REMARK    1  A    between atoms: C_1  and  C_2
REMARK    2  A    between atoms: C_2  and  C_3
REMARK    3  A    between atoms: C_3  and  C_4
REMARK    4  A    between atoms: C_4  and  C_5
REMARK    5  A    between atoms: C_16  and  O_17
REMARK    6  A    between atoms: O_17  and  C_18
REMARK    7  A    between atoms: C_18  and  C_19
REMARK                            x       y       z     vdW  Elec       q    Type
REMARK                         _______ _______ _______ _____ _____    ______ ____
ROOT
ATOM      1  C   UNL     1       3.834   5.959  17.796  0.00  0.00    +0.000 C 
ATOM      2  O   UNL     1       4.345   5.787  19.146  0.00  0.00    +0.000 OA
ATOM      3  S   UNL     1       5.499   4.641  19.284  0.00  0.00    +0.000 S 
ATOM      4  O   UNL     1       6.697   5.260  19.811  0.00  0.00    +0.000 OA
ATOM      5  O   UNL     1       4.902   3.469  19.885  0.00  0.00    +0.000 OA
ATOM      6  C   UNL     1       5.667   4.386  17.601  0.00  0.00    +0.000 C 
ATOM      7  C   UNL     1       4.752   5.095  16.928  0.00  0.00    +0.000 C 
ENDROOT
BRANCH   1   9
ATOM      8  C   UNL     1       2.657   8.272  17.844  0.00  0.00    +0.000 C 
ATOM      9  C   UNL     1       3.911   7.477  17.500  0.00  0.00    +0.000 C 
ENDBRANCH   1   9
BRANCH   1  10
ATOM     10  C   UNL     1       2.339   5.503  17.874  0.00  0.00    +0.000 C 
BRANCH  10  11
ATOM     11  C   UNL     1       1.978   4.373  18.816  0.00  0.00    +0.000 A 
ATOM     12  C   UNL     1       1.623   4.642  20.142  0.00  0.00    +0.000 A 
ATOM     13  C   UNL     1       1.332   3.610  21.037  0.00  0.00    +0.000 A 
ATOM     14  C   UNL     1       1.335   2.292  20.600  0.00  0.00    +0.000 A 
ATOM     15  C   UNL     1       1.636   2.005  19.271  0.00  0.00    +0.000 A 
ATOM     16  C   UNL     1       1.965   3.037  18.385  0.00  0.00    +0.000 A 
ENDBRANCH  10  11
ENDBRANCH   1  10
BRANCH   7  17
ATOM     17  O   UNL     1       4.606   5.138  15.561  0.00  0.00    +0.000 OA
BRANCH  17  18
ATOM     18  C   UNL     1       5.674   5.739  14.804  0.00  0.00    +0.000 C 
BRANCH  18  19
ATOM     19  C   UNL     1       6.777   4.689  14.579  0.00  0.00    +0.000 C 
ATOM     20  C   UNL     1       6.213   3.376  14.015  0.00  0.00    +0.000 C 
ATOM     21  C   UNL     1       5.818   3.494  12.545  0.00  0.00    +0.000 C 
ATOM     22  C   UNL     1       6.982   3.987  11.690  0.00  0.00    +0.000 C 
ATOM     23  C   UNL     1       7.563   5.296  12.215  0.00  0.00    +0.000 C 
ATOM     24  C   UNL     1       7.923   5.208  13.696  0.00  0.00    +0.000 C 
ENDBRANCH  18  19
ENDBRANCH  17  18
ENDBRANCH   7  17
TORSDOF 6
ENDMDL
MODEL 7
REMARK VINA RESULT:      -6.9      1.818      5.359
REMARK  Name = 
REMARK  7 active torsions:
REMARK  status: ('A' for Active; 'I' for Inactive)
REMARK    1  A    between atoms: C_1  and  C_2
REMARK    2  A    between atoms: C_2  and  C_3
REMARK    3  A    between atoms: C_3  and  C_4
REMARK    4  A    between atoms: C_4  and  C_5
REMARK    5  A    between atoms: C_16  and  O_17
REMARK    6  A    between atoms: O_17  and  C_18
REMARK    7  A    between atoms: C_18  and  C_19
REMARK                            x       y       z     vdW  Elec       q    Type
REMARK                         _______ _______ _______ _____ _____    ______ ____
ROOT
ATOM      1  C   UNL     1       4.970   4.796  17.014  0.00  0.00    +0.000 C 
ATOM      2  O   UNL     1       5.568   5.955  16.372  0.00  0.00    +0.000 OA
ATOM      3  S   UNL     1       6.530   6.840  17.349  0.00  0.00    +0.000 S 
ATOM      4  O   UNL     1       7.855   6.885  16.768  0.00  0.00    +0.000 OA
ATOM      5  O   UNL     1       5.810   8.034  17.733  0.00  0.00    +0.000 OA
ATOM      6  C   UNL     1       6.501   5.725  18.646  0.00  0.00    +0.000 C 
ATOM      7  C   UNL     1       5.654   4.723  18.381  0.00  0.00    +0.000 C 
ENDROOT
BRANCH   1   9
ATOM      8  C   UNL     1       6.031   3.930  14.808  0.00  0.00    +0.000 C 
ATOM      9  C   UNL     1       5.264   3.594  16.082  0.00  0.00    +0.000 C 
ENDBRANCH   1   9
BRANCH   1  10
ATOM     10  C   UNL     1       3.435   5.098  17.033  0.00  0.00    +0.000 C 
BRANCH  10  11
ATOM     11  C   UNL     1       2.945   6.291  17.827  0.00  0.00    +0.000 A 
ATOM     12  C   UNL     1       2.661   6.168  19.190  0.00  0.00    +0.000 A 
ATOM     13  C   UNL     1       2.165   7.246  19.927  0.00  0.00    +0.000 A 
ATOM     14  C   UNL     1       2.002   8.483  19.320  0.00  0.00    +0.000 A 
ATOM     15  C   UNL     1       2.326   8.643  17.975  0.00  0.00    +0.000 A 
ATOM     16  C   UNL     1       2.786   7.552  17.228  0.00  0.00    +0.000 A 
ENDBRANCH  10  11
ENDBRANCH   1  10
BRANCH   7  17
ATOM     17  O   UNL     1       5.394   3.646  19.196  0.00  0.00    +0.000 OA
BRANCH  17  18
ATOM     18  C   UNL     1       4.326   3.787  20.153  0.00  0.00    +0.000 C 
BRANCH  18  19
ATOM     19  C   UNL     1       3.600   2.437  20.291  0.00  0.00    +0.000 C 
ATOM     20  C   UNL     1       2.404   2.524  21.251  0.00  0.00    +0.000 C 
ATOM     21  C   UNL     1       1.219   3.269  20.641  0.00  0.00    +0.000 C 
ATOM     22  C   UNL     1       0.793   2.652  19.312  0.00  0.00    +0.000 C 
ATOM     23  C   UNL     1       1.955   2.558  18.327  0.00  0.00    +0.000 C 
ATOM     24  C   UNL     1       3.164   1.853  18.936  0.00  0.00    +0.000 C 
ENDBRANCH  18  19
ENDBRANCH  17  18
ENDBRANCH   7  17
TORSDOF 6
ENDMDL
MODEL 8
REMARK VINA RESULT:      -6.8      3.325      5.444
REMARK  Name = 
REMARK  7 active torsions:
REMARK  status: ('A' for Active; 'I' for Inactive)
REMARK    1  A    between atoms: C_1  and  C_2
REMARK    2  A    between atoms: C_2  and  C_3
REMARK    3  A    between atoms: C_3  and  C_4
REMARK    4  A    between atoms: C_4  and  C_5
REMARK    5  A    between atoms: C_16  and  O_17
REMARK    6  A    between atoms: O_17  and  C_18
REMARK    7  A    between atoms: C_18  and  C_19
REMARK                            x       y       z     vdW  Elec       q    Type
REMARK                         _______ _______ _______ _____ _____    ______ ____
ROOT
ATOM      1  C   UNL     1       2.714   4.763  19.834  0.00  0.00    +0.000 C 
ATOM      2  O   UNL     1       1.348   4.615  19.360  0.00  0.00    +0.000 OA
ATOM      3  S   UNL     1       1.179   3.557  18.128  0.00  0.00    +0.000 S 
ATOM      4  O   UNL     1       0.257   2.520  18.539  0.00  0.00    +0.000 OA
ATOM      5  O   UNL     1       1.004   4.311  16.906  0.00  0.00    +0.000 OA
ATOM      6  C   UNL     1       2.785   2.973  18.203  0.00  0.00    +0.000 C 
ATOM      7  C   UNL     1       3.495   3.673  19.096  0.00  0.00    +0.000 C 
ENDROOT
BRANCH   1   9
ATOM      8  C   UNL     1       2.086   3.249  21.848  0.00  0.00    +0.000 C 
ATOM      9  C   UNL     1       2.653   4.582  21.371  0.00  0.00    +0.000 C 
ENDBRANCH   1   9
BRANCH   1  10
ATOM     10  C   UNL     1       3.102   6.238  19.482  0.00  0.00    +0.000 C 
BRANCH  10  11
ATOM     11  C   UNL     1       2.115   7.340  19.809  0.00  0.00    +0.000 A 
ATOM     12  C   UNL     1       1.821   8.330  18.868  0.00  0.00    +0.000 A 
ATOM     13  C   UNL     1       0.949   9.379  19.168  0.00  0.00    +0.000 A 
ATOM     14  C   UNL     1       0.311   9.418  20.400  0.00  0.00    +0.000 A 
ATOM     15  C   UNL     1       0.549   8.414  21.335  0.00  0.00    +0.000 A 
ATOM     16  C   UNL     1       1.453   7.385  21.047  0.00  0.00    +0.000 A 
ENDBRANCH  10  11
ENDBRANCH   1  10
BRANCH   7  17
ATOM     17  O   UNL     1       4.815   3.466  19.423  0.00  0.00    +0.000 OA
BRANCH  17  18
ATOM     18  C   UNL     1       5.682   4.617  19.419  0.00  0.00    +0.000 C 
BRANCH  18  19
ATOM     19  C   UNL     1       6.495   4.623  18.112  0.00  0.00    +0.000 C 
ATOM     20  C   UNL     1       5.767   5.373  16.987  0.00  0.00    +0.000 C 
ATOM     21  C   UNL     1       5.791   6.887  17.185  0.00  0.00    +0.000 C 
ATOM     22  C   UNL     1       7.215   7.410  17.340  0.00  0.00    +0.000 C 
ATOM     23  C   UNL     1       7.968   6.694  18.457  0.00  0.00    +0.000 C 
ATOM     24  C   UNL     1       7.918   5.176  18.298  0.00  0.00    +0.000 C 
ENDBRANCH  18  19
ENDBRANCH  17  18
ENDBRANCH   7  17
TORSDOF 6
ENDMDL
MODEL 9
REMARK VINA RESULT:      -6.7      3.730      7.107
REMARK  Name = 
REMARK  7 active torsions:
REMARK  status: ('A' for Active; 'I' for Inactive)
REMARK    1  A    between atoms: C_1  and  C_2
REMARK    2  A    between atoms: C_2  and  C_3
REMARK    3  A    between atoms: C_3  and  C_4
REMARK    4  A    between atoms: C_4  and  C_5
REMARK    5  A    between atoms: C_16  and  O_17
REMARK    6  A    between atoms: O_17  and  C_18
REMARK    7  A    between atoms: C_18  and  C_19
REMARK                            x       y       z     vdW  Elec       q    Type
REMARK                         _______ _______ _______ _____ _____    ______ ____
ROOT
ATOM      1  C   UNL     1       3.365   4.152  19.028  0.00  0.00    +0.000 C 
ATOM      2  O   UNL     1       2.804   2.955  19.631  0.00  0.00    +0.000 OA
ATOM      3  S   UNL     1       1.980   3.225  21.014  0.00  0.00    +0.000 S 
ATOM      4  O   UNL     1       0.622   2.755  20.837  0.00  0.00    +0.000 OA
ATOM      5  O   UNL     1       2.808   2.805  22.123  0.00  0.00    +0.000 OA
ATOM      6  C   UNL     1       2.027   4.930  20.892  0.00  0.00    +0.000 C 
ATOM      7  C   UNL     1       2.780   5.303  19.850  0.00  0.00    +0.000 C 
ENDROOT
BRANCH   1   9
ATOM      8  C   UNL     1       1.414   4.176  17.316  0.00  0.00    +0.000 C 
ATOM      9  C   UNL     1       2.921   4.131  17.545  0.00  0.00    +0.000 C 
ENDBRANCH   1   9
BRANCH   1  10
ATOM     10  C   UNL     1       4.915   3.960  19.128  0.00  0.00    +0.000 C 
BRANCH  10  11
ATOM     11  C   UNL     1       5.813   5.023  18.528  0.00  0.00    +0.000 A 
ATOM     12  C   UNL     1       6.943   5.469  19.219  0.00  0.00    +0.000 A 
ATOM     13  C   UNL     1       7.756   6.480  18.702  0.00  0.00    +0.000 A 
ATOM     14  C   UNL     1       7.481   7.020  17.453  0.00  0.00    +0.000 A 
ATOM     15  C   UNL     1       6.389   6.555  16.724  0.00  0.00    +0.000 A 
ATOM     16  C   UNL     1       5.553   5.569  17.261  0.00  0.00    +0.000 A 
ENDBRANCH  10  11
ENDBRANCH   1  10
BRANCH   7  17
ATOM     17  O   UNL     1       3.025   6.596  19.450  0.00  0.00    +0.000 OA
BRANCH  17  18
ATOM     18  C   UNL     1       1.913   7.342  18.919  0.00  0.00    +0.000 C 
BRANCH  18  19
ATOM     19  C   UNL     1       2.041   8.810  19.366  0.00  0.00    +0.000 C 
ATOM     20  C   UNL     1       1.582   9.785  18.271  0.00  0.00    +0.000 C 
ATOM     21  C   UNL     1       0.064   9.810  18.110  0.00  0.00    +0.000 C 
ATOM     22  C   UNL     1      -0.634  10.122  19.430  0.00  0.00    +0.000 C 
ATOM     23  C   UNL     1      -0.211   9.166  20.541  0.00  0.00    +0.000 C 
ATOM     24  C   UNL     1       1.307   9.097  20.687  0.00  0.00    +0.000 C 
ENDBRANCH  18  19
ENDBRANCH  17  18
ENDBRANCH   7  17
TORSDOF 6
ENDMDL
