MODEL 1
REMARK VINA RESULT:      -8.7      0.000      0.000
REMARK  Name = 
REMARK  8 active torsions:
REMARK  status: ('A' for Active; 'I' for Inactive)
REMARK    1  A    between atoms: C_1  and  O_2
REMARK    2  A    between atoms: O_2  and  C_3
REMARK    3  A    between atoms: C_7  and  O_8
REMARK    4  A    between atoms: O_8  and  C_9
REMARK    5  A    between atoms: C_9  and  C_10
REMARK    6  A    between atoms: C_14  and  N_15
REMARK    7  A    between atoms: C_22  and  C_23
REMARK    8  A    between atoms: C_22  and  C_24
REMARK                            x       y       z     vdW  Elec       q    Type
REMARK                         _______ _______ _______ _____ _____    ______ ____
ROOT
ATOM      1  C   UNL     1       6.874   6.161  17.786  0.00  0.00    +0.000 A 
ATOM      2  C   UNL     1       6.689   5.908  16.430  0.00  0.00    +0.000 A 
ATOM      3  C   UNL     1       5.632   5.114  16.024  0.00  0.00    +0.000 A 
ATOM      4  C   UNL     1       4.736   4.613  16.973  0.00  0.00    +0.000 A 
ATOM      5  C   UNL     1       4.938   4.753  18.354  0.00  0.00    +0.000 A 
ATOM      6  C   UNL     1       6.065   5.503  18.727  0.00  0.00    +0.000 A 
ENDROOT
BRANCH   5   7
ATOM      7  N   UNL     1       4.012   4.260  19.318  0.00  0.00    +0.000 N 
ATOM      8  C   UNL     1       4.080   3.022  19.927  0.00  0.00    +0.000 C 
ATOM      9  N   UNL     1       5.148   2.208  19.674  0.00  0.00    +0.000 N 
ATOM     10  N   UNL     1       3.207   2.530  20.748  0.00  0.00    +0.000 NA
ATOM     11  C   UNL     1       2.145   3.303  21.086  0.00  0.00    +0.000 C 
ATOM     12  N   UNL     1       1.386   2.854  22.108  0.00  0.00    +0.000 N 
ATOM     13  N   UNL     1       1.810   4.388  20.492  0.00  0.00    +0.000 NA
ATOM     14  C   UNL     1       2.651   4.874  19.395  0.00  0.00    +0.000 C 
ATOM     15  C   UNL     1       1.877   4.565  18.100  0.00  0.00    +0.000 C 
ATOM     16  C   UNL     1       2.640   6.397  19.615  0.00  0.00    +0.000 C 
ATOM     17  H   UNL     1       6.035   2.678  19.550  0.00  0.00    +0.000 HD
ATOM     18  H   UNL     1       5.199   1.421  20.309  0.00  0.00    +0.000 HD
ATOM     19  H   UNL     1       1.453   1.853  22.233  0.00  0.00    +0.000 HD
ATOM     20  H   UNL     1       0.440   3.215  22.072  0.00  0.00    +0.000 HD
ENDBRANCH   5   7
BRANCH   1  21
ATOM     21  C   UNL     1       7.898   7.161  18.248  0.00  0.00    +0.000 C 
BRANCH  21  22
ATOM     22  O   UNL     1       7.789   8.337  17.460  0.00  0.00    +0.000 OA
BRANCH  22  27
ATOM     23  C   UNL     1       8.888  11.832  18.075  0.00  0.00    +0.000 A 
ATOM     24  C   UNL     1       9.547  11.625  19.288  0.00  0.00    +0.000 A 
ATOM     25  C   UNL     1       9.598  10.353  19.858  0.00  0.00    +0.000 A 
ATOM     26  C   UNL     1       8.989   9.281  19.212  0.00  0.00    +0.000 A 
ATOM     27  C   UNL     1       8.328   9.472  17.999  0.00  0.00    +0.000 A 
ATOM     28  C   UNL     1       8.271  10.753  17.437  0.00  0.00    +0.000 A 
BRANCH  23  30
ATOM     29  C   UNL     1      10.202  13.731  17.505  0.00  0.00    +0.000 C 
ATOM     30  O   UNL     1       8.922  13.118  17.609  0.00  0.00    +0.000 OA
ENDBRANCH  23  30
ENDBRANCH  22  27
ENDBRANCH  21  22
ENDBRANCH   1  21
TORSDOF 5
ENDMDL
MODEL 2
REMARK VINA RESULT:      -8.5      5.304      7.618
REMARK  Name = 
REMARK  8 active torsions:
REMARK  status: ('A' for Active; 'I' for Inactive)
REMARK    1  A    between atoms: C_1  and  O_2
REMARK    2  A    between atoms: O_2  and  C_3
REMARK    3  A    between atoms: C_7  and  O_8
REMARK    4  A    between atoms: O_8  and  C_9
REMARK    5  A    between atoms: C_9  and  C_10
REMARK    6  A    between atoms: C_14  and  N_15
REMARK    7  A    between atoms: C_22  and  C_23
REMARK    8  A    between atoms: C_22  and  C_24
REMARK                            x       y       z     vdW  Elec       q    Type
REMARK                         _______ _______ _______ _____ _____    ______ ____
ROOT
ATOM      1  C   UNL     1       1.371   8.396  20.241  0.00  0.00    +0.000 A 
ATOM      2  C   UNL     1       1.414   9.078  19.029  0.00  0.00    +0.000 A 
ATOM      3  C   UNL     1       2.078   8.514  17.954  0.00  0.00    +0.000 A 
ATOM      4  C   UNL     1       2.656   7.248  18.083  0.00  0.00    +0.000 A 
ATOM      5  C   UNL     1       2.729   6.569  19.308  0.00  0.00    +0.000 A 
ATOM      6  C   UNL     1       2.109   7.209  20.392  0.00  0.00    +0.000 A 
ENDROOT
BRANCH   5   7
ATOM      7  N   UNL     1       3.300   5.270  19.431  0.00  0.00    +0.000 N 
ATOM      8  C   UNL     1       4.631   4.962  19.227  0.00  0.00    +0.000 C 
ATOM      9  N   UNL     1       5.518   5.967  18.965  0.00  0.00    +0.000 N 
ATOM     10  N   UNL     1       5.152   3.777  19.262  0.00  0.00    +0.000 NA
ATOM     11  C   UNL     1       4.339   2.734  19.568  0.00  0.00    +0.000 C 
ATOM     12  N   UNL     1       4.953   1.558  19.818  0.00  0.00    +0.000 N 
ATOM     13  N   UNL     1       3.060   2.788  19.603  0.00  0.00    +0.000 NA
ATOM     14  C   UNL     1       2.406   4.074  19.346  0.00  0.00    +0.000 C 
ATOM     15  C   UNL     1       1.820   3.974  17.925  0.00  0.00    +0.000 C 
ATOM     16  C   UNL     1       1.242   4.065  20.353  0.00  0.00    +0.000 C 
ATOM     17  H   UNL     1       5.346   6.839  19.447  0.00  0.00    +0.000 HD
ATOM     18  H   UNL     1       6.483   5.664  19.024  0.00  0.00    +0.000 HD
ATOM     19  H   UNL     1       5.862   1.492  19.381  0.00  0.00    +0.000 HD
ATOM     20  H   UNL     1       4.344   0.765  19.655  0.00  0.00    +0.000 HD
ENDBRANCH   5   7
BRANCH   1  21
ATOM     21  C   UNL     1       0.510   8.890  21.371  0.00  0.00    +0.000 C 
BRANCH  21  22
ATOM     22  O   UNL     1       0.911  10.207  21.719  0.00  0.00    +0.000 OA
BRANCH  22  27
ATOM     23  C   UNL     1      -2.149  11.892  22.982  0.00  0.00    +0.000 A 
ATOM     24  C   UNL     1      -2.056  13.066  22.234  0.00  0.00    +0.000 A 
ATOM     25  C   UNL     1      -0.992  13.262  21.353  0.00  0.00    +0.000 A 
ATOM     26  C   UNL     1      -0.017  12.278  21.217  0.00  0.00    +0.000 A 
ATOM     27  C   UNL     1      -0.098  11.098  21.958  0.00  0.00    +0.000 A 
ATOM     28  C   UNL     1      -1.163  10.913  22.848  0.00  0.00    +0.000 A 
BRANCH  23  30
ATOM     29  C   UNL     1      -3.830  13.037  24.217  0.00  0.00    +0.000 C 
ATOM     30  O   UNL     1      -3.247  11.809  23.796  0.00  0.00    +0.000 OA
ENDBRANCH  23  30
ENDBRANCH  22  27
ENDBRANCH  21  22
ENDBRANCH   1  21
TORSDOF 5
ENDMDL
MODEL 3
REMARK VINA RESULT:      -8.4      3.660      6.622
REMARK  Name = 
REMARK  8 active torsions:
REMARK  status: ('A' for Active; 'I' for Inactive)
REMARK    1  A    between atoms: C_1  and  O_2
REMARK    2  A    between atoms: O_2  and  C_3
REMARK    3  A    between atoms: C_7  and  O_8
REMARK    4  A    between atoms: O_8  and  C_9
REMARK    5  A    between atoms: C_9  and  C_10
REMARK    6  A    between atoms: C_14  and  N_15
REMARK    7  A    between atoms: C_22  and  C_23
REMARK    8  A    between atoms: C_22  and  C_24
REMARK                            x       y       z     vdW  Elec       q    Type
REMARK                         _______ _______ _______ _____ _____    ______ ____
ROOT
ATOM      1  C   UNL     1       6.566   4.911  16.644  0.00  0.00    +0.000 A 
ATOM      2  C   UNL     1       7.527   5.662  17.313  0.00  0.00    +0.000 A 
ATOM      3  C   UNL     1       7.353   5.952  18.654  0.00  0.00    +0.000 A 
ATOM      4  C   UNL     1       6.238   5.450  19.333  0.00  0.00    +0.000 A 
ATOM      5  C   UNL     1       5.193   4.779  18.682  0.00  0.00    +0.000 A 
ATOM      6  C   UNL     1       5.374   4.570  17.305  0.00  0.00    +0.000 A 
ENDROOT
BRANCH   5   7
ATOM      7  N   UNL     1       4.069   4.250  19.380  0.00  0.00    +0.000 N 
ATOM      8  C   UNL     1       3.973   2.966  19.876  0.00  0.00    +0.000 C 
ATOM      9  N   UNL     1       5.049   2.129  19.782  0.00  0.00    +0.000 N 
ATOM     10  N   UNL     1       2.932   2.447  20.447  0.00  0.00    +0.000 NA
ATOM     11  C   UNL     1       1.843   3.236  20.621  0.00  0.00    +0.000 C 
ATOM     12  N   UNL     1       0.871   2.739  21.414  0.00  0.00    +0.000 N 
ATOM     13  N   UNL     1       1.671   4.380  20.069  0.00  0.00    +0.000 NA
ATOM     14  C   UNL     1       2.739   4.916  19.222  0.00  0.00    +0.000 C 
ATOM     15  C   UNL     1       2.254   4.750  17.771  0.00  0.00    +0.000 C 
ATOM     16  C   UNL     1       2.722   6.416  19.571  0.00  0.00    +0.000 C 
ATOM     17  H   UNL     1       5.953   2.567  19.892  0.00  0.00    +0.000 HD
ATOM     18  H   UNL     1       4.942   1.290  20.340  0.00  0.00    +0.000 HD
ATOM     19  H   UNL     1       0.884   1.728  21.460  0.00  0.00    +0.000 HD
ATOM     20  H   UNL     1      -0.036   3.143  21.212  0.00  0.00    +0.000 HD
ENDBRANCH   5   7
BRANCH   1  21
ATOM     21  C   UNL     1       6.808   4.426  15.241  0.00  0.00    +0.000 C 
BRANCH  21  22
ATOM     22  O   UNL     1       5.693   4.768  14.432  0.00  0.00    +0.000 OA
BRANCH  22  27
ATOM     23  C   UNL     1       4.311   3.142  11.391  0.00  0.00    +0.000 A 
ATOM     24  C   UNL     1       5.437   2.401  11.030  0.00  0.00    +0.000 A 
ATOM     25  C   UNL     1       6.605   2.469  11.791  0.00  0.00    +0.000 A 
ATOM     26  C   UNL     1       6.646   3.281  12.921  0.00  0.00    +0.000 A 
ATOM     27  C   UNL     1       5.528   4.026  13.294  0.00  0.00    +0.000 A 
ATOM     28  C   UNL     1       4.363   3.961  12.521  0.00  0.00    +0.000 A 
BRANCH  23  30
ATOM     29  C   UNL     1       2.948   4.020   9.649  0.00  0.00    +0.000 C 
ATOM     30  O   UNL     1       3.223   2.976  10.577  0.00  0.00    +0.000 OA
ENDBRANCH  23  30
ENDBRANCH  22  27
ENDBRANCH  21  22
ENDBRANCH   1  21
TORSDOF 5
ENDMDL
MODEL 4
REMARK VINA RESULT:      -8.4      5.184      7.562
REMARK  Name = 
REMARK  8 active torsions:
REMARK  status: ('A' for Active; 'I' for Inactive)
REMARK    1  A    between atoms: C_1  and  O_2
REMARK    2  A    between atoms: O_2  and  C_3
REMARK    3  A    between atoms: C_7  and  O_8
REMARK    4  A    between atoms: O_8  and  C_9
REMARK    5  A    between atoms: C_9  and  C_10
REMARK    6  A    between atoms: C_14  and  N_15
REMARK    7  A    between atoms: C_22  and  C_23
REMARK    8  A    between atoms: C_22  and  C_24
REMARK                            x       y       z     vdW  Elec       q    Type
REMARK                         _______ _______ _______ _____ _____    ______ ____
ROOT
ATOM      1  C   UNL     1       1.388   8.392  20.171  0.00  0.00    +0.000 A 
ATOM      2  C   UNL     1       1.426   9.049  18.945  0.00  0.00    +0.000 A 
ATOM      3  C   UNL     1       2.074   8.459  17.875  0.00  0.00    +0.000 A 
ATOM      4  C   UNL     1       2.644   7.191  18.024  0.00  0.00    +0.000 A 
ATOM      5  C   UNL     1       2.723   6.536  19.261  0.00  0.00    +0.000 A 
ATOM      6  C   UNL     1       2.118   7.203  20.338  0.00  0.00    +0.000 A 
ENDROOT
BRANCH   5   7
ATOM      7  N   UNL     1       3.285   5.234  19.404  0.00  0.00    +0.000 N 
ATOM      8  C   UNL     1       4.619   4.920  19.236  0.00  0.00    +0.000 C 
ATOM      9  N   UNL     1       5.518   5.920  18.992  0.00  0.00    +0.000 N 
ATOM     10  N   UNL     1       5.133   3.732  19.290  0.00  0.00    +0.000 NA
ATOM     11  C   UNL     1       4.308   2.695  19.580  0.00  0.00    +0.000 C 
ATOM     12  N   UNL     1       4.910   1.517  19.851  0.00  0.00    +0.000 N 
ATOM     13  N   UNL     1       3.028   2.755  19.582  0.00  0.00    +0.000 NA
ATOM     14  C   UNL     1       2.387   4.042  19.302  0.00  0.00    +0.000 C 
ATOM     15  C   UNL     1       1.838   3.938  17.867  0.00  0.00    +0.000 C 
ATOM     16  C   UNL     1       1.198   4.043  20.278  0.00  0.00    +0.000 C 
ATOM     17  H   UNL     1       5.336   6.795  19.466  0.00  0.00    +0.000 HD
ATOM     18  H   UNL     1       6.479   5.612  19.078  0.00  0.00    +0.000 HD
ATOM     19  H   UNL     1       5.830   1.445  19.437  0.00  0.00    +0.000 HD
ATOM     20  H   UNL     1       4.302   0.726  19.676  0.00  0.00    +0.000 HD
ENDBRANCH   5   7
BRANCH   1  21
ATOM     21  C   UNL     1       0.543   8.916  21.299  0.00  0.00    +0.000 C 
BRANCH  21  22
ATOM     22  O   UNL     1       0.685  10.326  21.369  0.00  0.00    +0.000 OA
BRANCH  22  27
ATOM     23  C   UNL     1      -2.321  12.479  21.000  0.00  0.00    +0.000 A 
ATOM     24  C   UNL     1      -2.770  12.425  22.320  0.00  0.00    +0.000 A 
ATOM     25  C   UNL     1      -2.077  11.681  23.275  0.00  0.00    +0.000 A 
ATOM     26  C   UNL     1      -0.926  10.988  22.909  0.00  0.00    +0.000 A 
ATOM     27  C   UNL     1      -0.464  11.034  21.593  0.00  0.00    +0.000 A 
ATOM     28  C   UNL     1      -1.170  11.774  20.638  0.00  0.00    +0.000 A 
BRANCH  23  30
ATOM     29  C   UNL     1      -4.458  13.381  20.471  0.00  0.00    +0.000 C 
ATOM     30  O   UNL     1      -3.075  13.256  20.162  0.00  0.00    +0.000 OA
ENDBRANCH  23  30
ENDBRANCH  22  27
ENDBRANCH  21  22
ENDBRANCH   1  21
TORSDOF 5
ENDMDL
MODEL 5
REMARK VINA RESULT:      -8.3      0.947      1.449
REMARK  Name = 
REMARK  8 active torsions:
REMARK  status: ('A' for Active; 'I' for Inactive)
REMARK    1  A    between atoms: C_1  and  O_2
REMARK    2  A    between atoms: O_2  and  C_3
REMARK    3  A    between atoms: C_7  and  O_8
REMARK    4  A    between atoms: O_8  and  C_9
REMARK    5  A    between atoms: C_9  and  C_10
REMARK    6  A    between atoms: C_14  and  N_15
REMARK    7  A    between atoms: C_22  and  C_23
REMARK    8  A    between atoms: C_22  and  C_24
REMARK                            x       y       z     vdW  Elec       q    Type
REMARK                         _______ _______ _______ _____ _____    ______ ____
ROOT
ATOM      1  C   UNL     1       6.936   6.100  17.827  0.00  0.00    +0.000 A 
ATOM      2  C   UNL     1       6.872   5.754  16.481  0.00  0.00    +0.000 A 
ATOM      3  C   UNL     1       5.877   4.897  16.045  0.00  0.00    +0.000 A 
ATOM      4  C   UNL     1       4.923   4.426  16.951  0.00  0.00    +0.000 A 
ATOM      5  C   UNL     1       5.005   4.661  18.331  0.00  0.00    +0.000 A 
ATOM      6  C   UNL     1       6.073   5.475  18.742  0.00  0.00    +0.000 A 
ENDROOT
BRANCH   5   7
ATOM      7  N   UNL     1       4.018   4.198  19.248  0.00  0.00    +0.000 N 
ATOM      8  C   UNL     1       4.018   2.960  19.859  0.00  0.00    +0.000 C 
ATOM      9  N   UNL     1       5.072   2.113  19.658  0.00  0.00    +0.000 N 
ATOM     10  N   UNL     1       3.092   2.495  20.636  0.00  0.00    +0.000 NA
ATOM     11  C   UNL     1       2.039   3.300  20.922  0.00  0.00    +0.000 C 
ATOM     12  N   UNL     1       1.217   2.876  21.905  0.00  0.00    +0.000 N 
ATOM     13  N   UNL     1       1.766   4.394  20.313  0.00  0.00    +0.000 NA
ATOM     14  C   UNL     1       2.674   4.853  19.259  0.00  0.00    +0.000 C 
ATOM     15  C   UNL     1       1.955   4.567  17.927  0.00  0.00    +0.000 C 
ATOM     16  C   UNL     1       2.699   6.377  19.479  0.00  0.00    +0.000 C 
ATOM     17  H   UNL     1       5.978   2.556  19.578  0.00  0.00    +0.000 HD
ATOM     18  H   UNL     1       5.068   1.325  20.294  0.00  0.00    +0.000 HD
ATOM     19  H   UNL     1       1.248   1.873  22.033  0.00  0.00    +0.000 HD
ATOM     20  H   UNL     1       0.286   3.265  21.823  0.00  0.00    +0.000 HD
ENDBRANCH   5   7
BRANCH   1  21
ATOM     21  C   UNL     1       7.887   7.165  18.303  0.00  0.00    +0.000 C 
BRANCH  21  22
ATOM     22  O   UNL     1       7.712   8.331  17.512  0.00  0.00    +0.000 OA
BRANCH  22  27
ATOM     23  C   UNL     1       9.630  10.800  19.519  0.00  0.00    +0.000 A 
ATOM     24  C   UNL     1       9.280  11.950  18.810  0.00  0.00    +0.000 A 
ATOM     25  C   UNL     1       8.438  11.870  17.700  0.00  0.00    +0.000 A 
ATOM     26  C   UNL     1       7.941  10.634  17.298  0.00  0.00    +0.000 A 
ATOM     27  C   UNL     1       8.281   9.476  17.998  0.00  0.00    +0.000 A 
ATOM     28  C   UNL     1       9.134   9.562  19.104  0.00  0.00    +0.000 A 
BRANCH  23  30
ATOM     29  C   UNL     1      10.626  12.359  21.016  0.00  0.00    +0.000 C 
ATOM     30  O   UNL     1      10.445  11.010  20.598  0.00  0.00    +0.000 OA
ENDBRANCH  23  30
ENDBRANCH  22  27
ENDBRANCH  21  22
ENDBRANCH   1  21
TORSDOF 5
ENDMDL
MODEL 6
REMARK VINA RESULT:      -8.2      3.660      7.048
REMARK  Name = 
REMARK  8 active torsions:
REMARK  status: ('A' for Active; 'I' for Inactive)
REMARK    1  A    between atoms: C_1  and  O_2
REMARK    2  A    between atoms: O_2  and  C_3
REMARK    3  A    between atoms: C_7  and  O_8
REMARK    4  A    between atoms: O_8  and  C_9
REMARK    5  A    between atoms: C_9  and  C_10
REMARK    6  A    between atoms: C_14  and  N_15
REMARK    7  A    between atoms: C_22  and  C_23
REMARK    8  A    between atoms: C_22  and  C_24
REMARK                            x       y       z     vdW  Elec       q    Type
REMARK                         _______ _______ _______ _____ _____    ______ ____
ROOT
ATOM      1  C   UNL     1       6.368   4.634  16.321  0.00  0.00    +0.000 A 
ATOM      2  C   UNL     1       7.193   5.656  16.780  0.00  0.00    +0.000 A 
ATOM      3  C   UNL     1       6.952   6.221  18.019  0.00  0.00    +0.000 A 
ATOM      4  C   UNL     1       5.914   5.728  18.815  0.00  0.00    +0.000 A 
ATOM      5  C   UNL     1       4.994   4.775  18.357  0.00  0.00    +0.000 A 
ATOM      6  C   UNL     1       5.229   4.281  17.064  0.00  0.00    +0.000 A 
ENDROOT
BRANCH   5   7
ATOM      7  N   UNL     1       3.950   4.260  19.179  0.00  0.00    +0.000 N 
ATOM      8  C   UNL     1       3.956   3.022  19.791  0.00  0.00    +0.000 C 
ATOM      9  N   UNL     1       5.065   2.231  19.692  0.00  0.00    +0.000 N 
ATOM     10  N   UNL     1       2.986   2.510  20.479  0.00  0.00    +0.000 NA
ATOM     11  C   UNL     1       1.871   3.260  20.663  0.00  0.00    +0.000 C 
ATOM     12  N   UNL     1       0.983   2.792  21.566  0.00  0.00    +0.000 N 
ATOM     13  N   UNL     1       1.601   4.340  20.028  0.00  0.00    +0.000 NA
ATOM     14  C   UNL     1       2.579   4.846  19.062  0.00  0.00    +0.000 C 
ATOM     15  C   UNL     1       2.004   4.527  17.670  0.00  0.00    +0.000 C 
ATOM     16  C   UNL     1       2.507   6.368  19.279  0.00  0.00    +0.000 C 
ATOM     17  H   UNL     1       5.951   2.718  19.696  0.00  0.00    +0.000 HD
ATOM     18  H   UNL     1       5.042   1.442  20.327  0.00  0.00    +0.000 HD
ATOM     19  H   UNL     1       1.053   1.791  21.699  0.00  0.00    +0.000 HD
ATOM     20  H   UNL     1       0.045   3.133  21.396  0.00  0.00    +0.000 HD
ENDBRANCH   5   7
BRANCH   1  21
ATOM     21  C   UNL     1       6.707   3.877  15.066  0.00  0.00    +0.000 C 
BRANCH  21  22
ATOM     22  O   UNL     1       6.076   4.505  13.960  0.00  0.00    +0.000 OA
BRANCH  22  27
ATOM     23  C   UNL     1       5.906   1.819  11.400  0.00  0.00    +0.000 A 
ATOM     24  C   UNL     1       4.689   2.173  10.817  0.00  0.00    +0.000 A 
ATOM     25  C   UNL     1       3.970   3.271  11.290  0.00  0.00    +0.000 A 
ATOM     26  C   UNL     1       4.471   4.021  12.350  0.00  0.00    +0.000 A 
ATOM     27  C   UNL     1       5.687   3.679  12.942  0.00  0.00    +0.000 A 
ATOM     28  C   UNL     1       6.399   2.570  12.469  0.00  0.00    +0.000 A 
BRANCH  23  30
ATOM     29  C   UNL     1       6.094  -0.550  11.270  0.00  0.00    +0.000 C 
ATOM     30  O   UNL     1       6.525   0.735  10.837  0.00  0.00    +0.000 OA
ENDBRANCH  23  30
ENDBRANCH  22  27
ENDBRANCH  21  22
ENDBRANCH   1  21
TORSDOF 5
ENDMDL
MODEL 7
REMARK VINA RESULT:      -8.1      4.819      7.375
REMARK  Name = 
REMARK  8 active torsions:
REMARK  status: ('A' for Active; 'I' for Inactive)
REMARK    1  A    between atoms: C_1  and  O_2
REMARK    2  A    between atoms: O_2  and  C_3
REMARK    3  A    between atoms: C_7  and  O_8
REMARK    4  A    between atoms: O_8  and  C_9
REMARK    5  A    between atoms: C_9  and  C_10
REMARK    6  A    between atoms: C_14  and  N_15
REMARK    7  A    between atoms: C_22  and  C_23
REMARK    8  A    between atoms: C_22  and  C_24
REMARK                            x       y       z     vdW  Elec       q    Type
REMARK                         _______ _______ _______ _____ _____    ______ ____
ROOT
ATOM      1  C   UNL     1       1.549   8.468  19.642  0.00  0.00    +0.000 A 
ATOM      2  C   UNL     1       1.810   9.080  18.420  0.00  0.00    +0.000 A 
ATOM      3  C   UNL     1       2.620   8.441  17.498  0.00  0.00    +0.000 A 
ATOM      4  C   UNL     1       3.128   7.171  17.785  0.00  0.00    +0.000 A 
ATOM      5  C   UNL     1       2.980   6.561  19.038  0.00  0.00    +0.000 A 
ATOM      6  C   UNL     1       2.214   7.275  19.972  0.00  0.00    +0.000 A 
ENDROOT
BRANCH   5   7
ATOM      7  N   UNL     1       3.481   5.257  19.319  0.00  0.00    +0.000 N 
ATOM      8  C   UNL     1       4.804   4.873  19.217  0.00  0.00    +0.000 C 
ATOM      9  N   UNL     1       5.750   5.807  18.903  0.00  0.00    +0.000 N 
ATOM     10  N   UNL     1       5.264   3.675  19.397  0.00  0.00    +0.000 NA
ATOM     11  C   UNL     1       4.389   2.706  19.762  0.00  0.00    +0.000 C 
ATOM     12  N   UNL     1       4.932   1.536  20.160  0.00  0.00    +0.000 N 
ATOM     13  N   UNL     1       3.113   2.819  19.725  0.00  0.00    +0.000 NA
ATOM     14  C   UNL     1       2.535   4.098  19.307  0.00  0.00    +0.000 C 
ATOM     15  C   UNL     1       2.013   3.880  17.876  0.00  0.00    +0.000 C 
ATOM     16  C   UNL     1       1.325   4.242  20.248  0.00  0.00    +0.000 C 
ATOM     17  H   UNL     1       5.597   6.729  19.286  0.00  0.00    +0.000 HD
ATOM     18  H   UNL     1       6.695   5.469  19.042  0.00  0.00    +0.000 HD
ATOM     19  H   UNL     1       5.857   1.386  19.779  0.00  0.00    +0.000 HD
ATOM     20  H   UNL     1       4.294   0.757  20.045  0.00  0.00    +0.000 HD
ENDBRANCH   5   7
BRANCH   1  21
ATOM     21  C   UNL     1       0.534   9.046  20.590  0.00  0.00    +0.000 C 
BRANCH  21  22
ATOM     22  O   UNL     1       0.408  10.439  20.344  0.00  0.00    +0.000 OA
BRANCH  22  27
ATOM     23  C   UNL     1      -2.607  10.848  18.213  0.00  0.00    +0.000 A 
ATOM     24  C   UNL     1      -3.208  11.894  18.913  0.00  0.00    +0.000 A 
ATOM     25  C   UNL     1      -2.607  12.417  20.058  0.00  0.00    +0.000 A 
ATOM     26  C   UNL     1      -1.397  11.894  20.505  0.00  0.00    +0.000 A 
ATOM     27  C   UNL     1      -0.784  10.849  19.813  0.00  0.00    +0.000 A 
ATOM     28  C   UNL     1      -1.397  10.321  18.671  0.00  0.00    +0.000 A 
BRANCH  23  30
ATOM     29  C   UNL     1      -2.763  10.847  15.838  0.00  0.00    +0.000 C 
ATOM     30  O   UNL     1      -3.283  10.434  17.097  0.00  0.00    +0.000 OA
ENDBRANCH  23  30
ENDBRANCH  22  27
ENDBRANCH  21  22
ENDBRANCH   1  21
TORSDOF 5
ENDMDL
MODEL 8
REMARK VINA RESULT:      -8.1      5.204      7.058
REMARK  Name = 
REMARK  8 active torsions:
REMARK  status: ('A' for Active; 'I' for Inactive)
REMARK    1  A    between atoms: C_1  and  O_2
REMARK    2  A    between atoms: O_2  and  C_3
REMARK    3  A    between atoms: C_7  and  O_8
REMARK    4  A    between atoms: O_8  and  C_9
REMARK    5  A    between atoms: C_9  and  C_10
REMARK    6  A    between atoms: C_14  and  N_15
REMARK    7  A    between atoms: C_22  and  C_23
REMARK    8  A    between atoms: C_22  and  C_24
REMARK                            x       y       z     vdW  Elec       q    Type
REMARK                         _______ _______ _______ _____ _____    ______ ____
ROOT
ATOM      1  C   UNL     1       1.455   8.431  20.125  0.00  0.00    +0.000 A 
ATOM      2  C   UNL     1       1.456   9.038  18.873  0.00  0.00    +0.000 A 
ATOM      3  C   UNL     1       2.072   8.404  17.809  0.00  0.00    +0.000 A 
ATOM      4  C   UNL     1       2.646   7.143  17.992  0.00  0.00    +0.000 A 
ATOM      5  C   UNL     1       2.762   6.538  19.252  0.00  0.00    +0.000 A 
ATOM      6  C   UNL     1       2.190   7.249  20.318  0.00  0.00    +0.000 A 
ENDROOT
BRANCH   5   7
ATOM      7  N   UNL     1       3.328   5.243  19.431  0.00  0.00    +0.000 N 
ATOM      8  C   UNL     1       4.658   4.922  19.245  0.00  0.00    +0.000 C 
ATOM      9  N   UNL     1       5.550   5.912  18.944  0.00  0.00    +0.000 N 
ATOM     10  N   UNL     1       5.173   3.737  19.332  0.00  0.00    +0.000 NA
ATOM     11  C   UNL     1       4.356   2.711  19.678  0.00  0.00    +0.000 C 
ATOM     12  N   UNL     1       4.964   1.544  19.979  0.00  0.00    +0.000 N 
ATOM     13  N   UNL     1       3.076   2.772  19.706  0.00  0.00    +0.000 NA
ATOM     14  C   UNL     1       2.429   4.048  19.393  0.00  0.00    +0.000 C 
ATOM     15  C   UNL     1       1.848   3.891  17.976  0.00  0.00    +0.000 C 
ATOM     16  C   UNL     1       1.261   4.085  20.395  0.00  0.00    +0.000 C 
ATOM     17  H   UNL     1       5.379   6.804  19.389  0.00  0.00    +0.000 HD
ATOM     18  H   UNL     1       6.513   5.607  19.020  0.00  0.00    +0.000 HD
ATOM     19  H   UNL     1       5.875   1.456  19.548  0.00  0.00    +0.000 HD
ATOM     20  H   UNL     1       4.353   0.747  19.847  0.00  0.00    +0.000 HD
ENDBRANCH   5   7
BRANCH   1  21
ATOM     21  C   UNL     1       0.644   9.001  21.255  0.00  0.00    +0.000 C 
BRANCH  21  22
ATOM     22  O   UNL     1      -0.308   9.914  20.730  0.00  0.00    +0.000 OA
BRANCH  22  27
ATOM     23  C   UNL     1      -1.040  12.935  22.765  0.00  0.00    +0.000 A 
ATOM     24  C   UNL     1      -0.111  13.799  22.184  0.00  0.00    +0.000 A 
ATOM     25  C   UNL     1       0.722  13.356  21.156  0.00  0.00    +0.000 A 
ATOM     26  C   UNL     1       0.625  12.043  20.705  0.00  0.00    +0.000 A 
ATOM     27  C   UNL     1      -0.301  11.169  21.276  0.00  0.00    +0.000 A 
ATOM     28  C   UNL     1      -1.126  11.617  22.313  0.00  0.00    +0.000 A 
BRANCH  23  30
ATOM     29  C   UNL     1      -1.409  14.765  24.241  0.00  0.00    +0.000 C 
ATOM     30  O   UNL     1      -1.811  13.491  23.750  0.00  0.00    +0.000 OA
ENDBRANCH  23  30
ENDBRANCH  22  27
ENDBRANCH  21  22
ENDBRANCH   1  21
TORSDOF 5
ENDMDL
MODEL 9
REMARK VINA RESULT:      -8.0      4.605      6.272
REMARK  Name = 
REMARK  8 active torsions:
REMARK  status: ('A' for Active; 'I' for Inactive)
REMARK    1  A    between atoms: C_1  and  O_2
REMARK    2  A    between atoms: O_2  and  C_3
REMARK    3  A    between atoms: C_7  and  O_8
REMARK    4  A    between atoms: O_8  and  C_9
REMARK    5  A    between atoms: C_9  and  C_10
REMARK    6  A    between atoms: C_14  and  N_15
REMARK    7  A    between atoms: C_22  and  C_23
REMARK    8  A    between atoms: C_22  and  C_24
REMARK                            x       y       z     vdW  Elec       q    Type
REMARK                         _______ _______ _______ _____ _____    ______ ____
ROOT
ATOM      1  C   UNL     1       1.440   8.443  20.131  0.00  0.00    +0.000 A 
ATOM      2  C   UNL     1       1.441   9.053  18.881  0.00  0.00    +0.000 A 
ATOM      3  C   UNL     1       2.058   8.423  17.815  0.00  0.00    +0.000 A 
ATOM      4  C   UNL     1       2.632   7.161  17.995  0.00  0.00    +0.000 A 
ATOM      5  C   UNL     1       2.747   6.553  19.253  0.00  0.00    +0.000 A 
ATOM      6  C   UNL     1       2.175   7.261  20.322  0.00  0.00    +0.000 A 
ENDROOT
BRANCH   5   7
ATOM      7  N   UNL     1       3.313   5.257  19.429  0.00  0.00    +0.000 N 
ATOM      8  C   UNL     1       4.641   4.934  19.231  0.00  0.00    +0.000 C 
ATOM      9  N   UNL     1       5.532   5.923  18.920  0.00  0.00    +0.000 N 
ATOM     10  N   UNL     1       5.156   3.749  19.315  0.00  0.00    +0.000 NA
ATOM     11  C   UNL     1       4.341   2.725  19.670  0.00  0.00    +0.000 C 
ATOM     12  N   UNL     1       4.951   1.558  19.968  0.00  0.00    +0.000 N 
ATOM     13  N   UNL     1       3.062   2.787  19.711  0.00  0.00    +0.000 NA
ATOM     14  C   UNL     1       2.413   4.063  19.402  0.00  0.00    +0.000 C 
ATOM     15  C   UNL     1       1.818   3.904  17.991  0.00  0.00    +0.000 C 
ATOM     16  C   UNL     1       1.255   4.104  20.415  0.00  0.00    +0.000 C 
ATOM     17  H   UNL     1       5.366   6.816  19.365  0.00  0.00    +0.000 HD
ATOM     18  H   UNL     1       6.495   5.617  18.986  0.00  0.00    +0.000 HD
ATOM     19  H   UNL     1       5.857   1.468  19.528  0.00  0.00    +0.000 HD
ATOM     20  H   UNL     1       4.338   0.761  19.843  0.00  0.00    +0.000 HD
ENDBRANCH   5   7
BRANCH   1  21
ATOM     21  C   UNL     1       0.628   9.010  21.263  0.00  0.00    +0.000 C 
BRANCH  21  22
ATOM     22  O   UNL     1       1.164  10.272  21.633  0.00  0.00    +0.000 OA
BRANCH  22  27
ATOM     23  C   UNL     1       0.650  13.508  19.883  0.00  0.00    +0.000 A 
ATOM     24  C   UNL     1      -0.744  13.487  19.827  0.00  0.00    +0.000 A 
ATOM     25  C   UNL     1      -1.459  12.412  20.356  0.00  0.00    +0.000 A 
ATOM     26  C   UNL     1      -0.776  11.353  20.948  0.00  0.00    +0.000 A 
ATOM     27  C   UNL     1       0.618  11.361  21.012  0.00  0.00    +0.000 A 
ATOM     28  C   UNL     1       1.329  12.438  20.470  0.00  0.00    +0.000 A 
BRANCH  23  30
ATOM     29  C   UNL     1       2.361  14.418  18.502  0.00  0.00    +0.000 C 
ATOM     30  O   UNL     1       1.235  14.624  19.347  0.00  0.00    +0.000 OA
ENDBRANCH  23  30
ENDBRANCH  22  27
ENDBRANCH  21  22
ENDBRANCH   1  21
TORSDOF 5
ENDMDL
