MODEL 1
REMARK VINA RESULT:      -7.0      0.000      0.000
REMARK  Name = 
REMARK  4 active torsions:
REMARK  status: ('A' for Active; 'I' for Inactive)
REMARK    1  A    between atoms: C_4  and  C_5
REMARK    2  A    between atoms: C_5  and  N_6
REMARK    3  A    between atoms: N_6  and  C_7
REMARK    4  A    between atoms: C_7  and  C_8
REMARK                            x       y       z     vdW  Elec       q    Type
REMARK                         _______ _______ _______ _____ _____    ______ ____
ROOT
ATOM      1  C   UNL     1       5.053   5.123  18.878  0.00  0.00    +0.000 A 
ATOM      2  C   UNL     1       4.192   5.913  18.100  0.00  0.00    +0.000 A 
ATOM      3  C   UNL     1       2.905   5.471  17.792  0.00  0.00    +0.000 A 
ATOM      4  C   UNL     1       2.468   4.233  18.256  0.00  0.00    +0.000 A 
ATOM      5  C   UNL     1       3.331   3.422  18.999  0.00  0.00    +0.000 A 
ATOM      6  C   UNL     1       4.612   3.867  19.319  0.00  0.00    +0.000 A 
ATOM      7  O   UNL     1       2.980   2.180  19.466  0.00  0.00    +0.000 OA
ATOM      8  C   UNL     1       1.799   1.695  18.817  0.00  0.00    +0.000 C 
ATOM      9  C   UNL     1       0.736   2.780  18.751  0.00  0.00    +0.000 C 
ATOM     10  O   UNL     1       1.181   3.875  17.944  0.00  0.00    +0.000 OA
ENDROOT
BRANCH   1  11
ATOM     11  C   UNL     1       6.427   5.628  19.255  0.00  0.00    +0.000 C 
BRANCH  11  12
ATOM     12  N   UNL     1       7.302   5.821  18.100  0.00  0.00    +0.000 NA
ATOM     13  H   UNL     1       6.806   6.370  17.397  0.00  0.00    +0.000 HD
BRANCH  12  14
ATOM     14  C   UNL     1       7.684   4.551  17.474  0.00  0.00    +0.000 C 
BRANCH  14  18
ATOM     15  C   UNL     1       5.947   4.079  14.229  0.00  0.00    +0.000 A 
ATOM     16  C   UNL     1       6.967   4.971  13.995  0.00  0.00    +0.000 A 
ATOM     17  O   UNL     1       7.662   5.214  15.136  0.00  0.00    +0.000 OA
ATOM     18  C   UNL     1       7.080   4.466  16.118  0.00  0.00    +0.000 A 
ATOM     19  C   UNL     1       6.019   3.749  15.603  0.00  0.00    +0.000 A 
ENDBRANCH  14  18
ENDBRANCH  12  14
ENDBRANCH  11  12
ENDBRANCH   1  11
TORSDOF 4
ENDMDL
MODEL 2
REMARK VINA RESULT:      -7.0      1.949      2.935
REMARK  Name = 
REMARK  4 active torsions:
REMARK  status: ('A' for Active; 'I' for Inactive)
REMARK    1  A    between atoms: C_4  and  C_5
REMARK    2  A    between atoms: C_5  and  N_6
REMARK    3  A    between atoms: N_6  and  C_7
REMARK    4  A    between atoms: C_7  and  C_8
REMARK                            x       y       z     vdW  Elec       q    Type
REMARK                         _______ _______ _______ _____ _____    ______ ____
ROOT
ATOM      1  C   UNL     1       3.957   4.357  17.337  0.00  0.00    +0.000 A 
ATOM      2  C   UNL     1       3.873   5.612  17.961  0.00  0.00    +0.000 A 
ATOM      3  C   UNL     1       3.281   5.744  19.218  0.00  0.00    +0.000 A 
ATOM      4  C   UNL     1       2.763   4.622  19.860  0.00  0.00    +0.000 A 
ATOM      5  C   UNL     1       2.806   3.374  19.231  0.00  0.00    +0.000 A 
ATOM      6  C   UNL     1       3.409   3.238  17.982  0.00  0.00    +0.000 A 
ATOM      7  O   UNL     1       2.293   2.231  19.791  0.00  0.00    +0.000 OA
ATOM      8  C   UNL     1       1.426   2.535  20.890  0.00  0.00    +0.000 C 
ATOM      9  C   UNL     1       2.055   3.578  21.800  0.00  0.00    +0.000 C 
ATOM     10  O   UNL     1       2.225   4.818  21.107  0.00  0.00    +0.000 OA
ENDROOT
BRANCH   1  11
ATOM     11  C   UNL     1       4.646   4.208  16.000  0.00  0.00    +0.000 C 
BRANCH  11  12
ATOM     12  N   UNL     1       5.974   3.606  16.105  0.00  0.00    +0.000 NA
ATOM     13  H   UNL     1       6.117   3.287  17.064  0.00  0.00    +0.000 HD
BRANCH  12  14
ATOM     14  C   UNL     1       7.043   4.562  15.797  0.00  0.00    +0.000 C 
BRANCH  14  18
ATOM     15  C   UNL     1       7.839   6.830  18.624  0.00  0.00    +0.000 A 
ATOM     16  C   UNL     1       7.928   5.550  19.119  0.00  0.00    +0.000 A 
ATOM     17  O   UNL     1       7.644   4.642  18.151  0.00  0.00    +0.000 OA
ATOM     18  C   UNL     1       7.370   5.348  17.016  0.00  0.00    +0.000 A 
ATOM     19  C   UNL     1       7.480   6.702  17.261  0.00  0.00    +0.000 A 
ENDBRANCH  14  18
ENDBRANCH  12  14
ENDBRANCH  11  12
ENDBRANCH   1  11
TORSDOF 4
ENDMDL
MODEL 3
REMARK VINA RESULT:      -7.0      2.111      5.197
REMARK  Name = 
REMARK  4 active torsions:
REMARK  status: ('A' for Active; 'I' for Inactive)
REMARK    1  A    between atoms: C_4  and  C_5
REMARK    2  A    between atoms: C_5  and  N_6
REMARK    3  A    between atoms: N_6  and  C_7
REMARK    4  A    between atoms: C_7  and  C_8
REMARK                            x       y       z     vdW  Elec       q    Type
REMARK                         _______ _______ _______ _____ _____    ______ ____
ROOT
ATOM      1  C   UNL     1       3.425   6.268  19.060  0.00  0.00    +0.000 A 
ATOM      2  C   UNL     1       3.371   7.014  17.872  0.00  0.00    +0.000 A 
ATOM      3  C   UNL     1       4.371   6.888  16.907  0.00  0.00    +0.000 A 
ATOM      4  C   UNL     1       5.436   6.016  17.123  0.00  0.00    +0.000 A 
ATOM      5  C   UNL     1       5.519   5.298  18.319  0.00  0.00    +0.000 A 
ATOM      6  C   UNL     1       4.515   5.413  19.278  0.00  0.00    +0.000 A 
ATOM      7  O   UNL     1       6.551   4.442  18.612  0.00  0.00    +0.000 OA
ATOM      8  C   UNL     1       7.662   4.647  17.733  0.00  0.00    +0.000 C 
ATOM      9  C   UNL     1       7.194   4.762  16.291  0.00  0.00    +0.000 C 
ATOM     10  O   UNL     1       6.366   5.917  16.119  0.00  0.00    +0.000 OA
ENDROOT
BRANCH   1  11
ATOM     11  C   UNL     1       2.313   6.367  20.080  0.00  0.00    +0.000 C 
BRANCH  11  12
ATOM     12  N   UNL     1       2.273   5.227  20.995  0.00  0.00    +0.000 NA
ATOM     13  H   UNL     1       3.178   4.756  20.976  0.00  0.00    +0.000 HD
BRANCH  12  14
ATOM     14  C   UNL     1       1.258   4.242  20.609  0.00  0.00    +0.000 C 
BRANCH  14  18
ATOM     15  C   UNL     1       2.355   2.214  17.701  0.00  0.00    +0.000 A 
ATOM     16  C   UNL     1       3.100   1.785  18.774  0.00  0.00    +0.000 A 
ATOM     17  O   UNL     1       2.771   2.479  19.893  0.00  0.00    +0.000 OA
ATOM     18  C   UNL     1       1.799   3.368  19.535  0.00  0.00    +0.000 A 
ATOM     19  C   UNL     1       1.510   3.238  18.192  0.00  0.00    +0.000 A 
ENDBRANCH  14  18
ENDBRANCH  12  14
ENDBRANCH  11  12
ENDBRANCH   1  11
TORSDOF 4
ENDMDL
MODEL 4
REMARK VINA RESULT:      -6.8      1.967      2.982
REMARK  Name = 
REMARK  4 active torsions:
REMARK  status: ('A' for Active; 'I' for Inactive)
REMARK    1  A    between atoms: C_4  and  C_5
REMARK    2  A    between atoms: C_5  and  N_6
REMARK    3  A    between atoms: N_6  and  C_7
REMARK    4  A    between atoms: C_7  and  C_8
REMARK                            x       y       z     vdW  Elec       q    Type
REMARK                         _______ _______ _______ _____ _____    ______ ____
ROOT
ATOM      1  C   UNL     1       3.637   3.904  17.331  0.00  0.00    +0.000 A 
ATOM      2  C   UNL     1       2.252   4.020  17.129  0.00  0.00    +0.000 A 
ATOM      3  C   UNL     1       1.357   3.727  18.159  0.00  0.00    +0.000 A 
ATOM      4  C   UNL     1       1.839   3.313  19.398  0.00  0.00    +0.000 A 
ATOM      5  C   UNL     1       3.213   3.158  19.598  0.00  0.00    +0.000 A 
ATOM      6  C   UNL     1       4.110   3.462  18.574  0.00  0.00    +0.000 A 
ATOM      7  O   UNL     1       3.758   2.729  20.782  0.00  0.00    +0.000 OA
ATOM      8  C   UNL     1       2.763   2.142  21.629  0.00  0.00    +0.000 C 
ATOM      9  C   UNL     1       1.513   3.005  21.669  0.00  0.00    +0.000 C 
ATOM     10  O   UNL     1       0.905   3.074  20.375  0.00  0.00    +0.000 OA
ENDROOT
BRANCH   1  11
ATOM     11  C   UNL     1       4.607   4.273  16.230  0.00  0.00    +0.000 C 
BRANCH  11  12
ATOM     12  N   UNL     1       5.823   3.461  16.245  0.00  0.00    +0.000 NA
ATOM     13  H   UNL     1       5.950   3.072  17.179  0.00  0.00    +0.000 HD
BRANCH  12  14
ATOM     14  C   UNL     1       7.019   4.249  15.931  0.00  0.00    +0.000 C 
BRANCH  14  18
ATOM     15  C   UNL     1       7.752   6.801  18.523  0.00  0.00    +0.000 A 
ATOM     16  C   UNL     1       7.880   5.578  19.139  0.00  0.00    +0.000 A 
ATOM     17  O   UNL     1       7.623   4.573  18.263  0.00  0.00    +0.000 OA
ATOM     18  C   UNL     1       7.325   5.158  17.067  0.00  0.00    +0.000 A 
ATOM     19  C   UNL     1       7.393   6.532  17.181  0.00  0.00    +0.000 A 
ENDBRANCH  14  18
ENDBRANCH  12  14
ENDBRANCH  11  12
ENDBRANCH   1  11
TORSDOF 4
ENDMDL
MODEL 5
REMARK VINA RESULT:      -6.6      1.926      3.055
REMARK  Name = 
REMARK  4 active torsions:
REMARK  status: ('A' for Active; 'I' for Inactive)
REMARK    1  A    between atoms: C_4  and  C_5
REMARK    2  A    between atoms: C_5  and  N_6
REMARK    3  A    between atoms: N_6  and  C_7
REMARK    4  A    between atoms: C_7  and  C_8
REMARK                            x       y       z     vdW  Elec       q    Type
REMARK                         _______ _______ _______ _____ _____    ______ ____
ROOT
ATOM      1  C   UNL     1       4.057   3.964  17.139  0.00  0.00    +0.000 A 
ATOM      2  C   UNL     1       3.805   2.582  17.140  0.00  0.00    +0.000 A 
ATOM      3  C   UNL     1       3.110   1.986  18.193  0.00  0.00    +0.000 A 
ATOM      4  C   UNL     1       2.663   2.766  19.257  0.00  0.00    +0.000 A 
ATOM      5  C   UNL     1       2.942   4.135  19.285  0.00  0.00    +0.000 A 
ATOM      6  C   UNL     1       3.625   4.735  18.228  0.00  0.00    +0.000 A 
ATOM      7  O   UNL     1       2.557   4.961  20.312  0.00  0.00    +0.000 OA
ATOM      8  C   UNL     1       2.170   4.207  21.466  0.00  0.00    +0.000 C 
ATOM      9  C   UNL     1       1.262   3.052  21.076  0.00  0.00    +0.000 C 
ATOM     10  O   UNL     1       1.959   2.121  20.241  0.00  0.00    +0.000 OA
ENDROOT
BRANCH   1  11
ATOM     11  C   UNL     1       4.763   4.615  15.972  0.00  0.00    +0.000 C 
BRANCH  11  12
ATOM     12  N   UNL     1       5.891   3.828  15.475  0.00  0.00    +0.000 NA
ATOM     13  H   UNL     1       6.078   3.068  16.130  0.00  0.00    +0.000 HD
BRANCH  12  14
ATOM     14  C   UNL     1       7.117   4.624  15.364  0.00  0.00    +0.000 C 
BRANCH  14  18
ATOM     15  C   UNL     1       7.764   5.988  18.755  0.00  0.00    +0.000 A 
ATOM     16  C   UNL     1       7.680   7.071  17.912  0.00  0.00    +0.000 A 
ATOM     17  O   UNL     1       7.449   6.669  16.637  0.00  0.00    +0.000 OA
ATOM     18  C   UNL     1       7.383   5.306  16.659  0.00  0.00    +0.000 A 
ATOM     19  C   UNL     1       7.571   4.843  17.945  0.00  0.00    +0.000 A 
ENDBRANCH  14  18
ENDBRANCH  12  14
ENDBRANCH  11  12
ENDBRANCH   1  11
TORSDOF 4
ENDMDL
MODEL 6
REMARK VINA RESULT:      -6.5      1.706      2.080
REMARK  Name = 
REMARK  4 active torsions:
REMARK  status: ('A' for Active; 'I' for Inactive)
REMARK    1  A    between atoms: C_4  and  C_5
REMARK    2  A    between atoms: C_5  and  N_6
REMARK    3  A    between atoms: N_6  and  C_7
REMARK    4  A    between atoms: C_7  and  C_8
REMARK                            x       y       z     vdW  Elec       q    Type
REMARK                         _______ _______ _______ _____ _____    ______ ____
ROOT
ATOM      1  C   UNL     1       4.555   5.315  17.911  0.00  0.00    +0.000 A 
ATOM      2  C   UNL     1       4.233   4.178  17.153  0.00  0.00    +0.000 A 
ATOM      3  C   UNL     1       3.356   3.215  17.653  0.00  0.00    +0.000 A 
ATOM      4  C   UNL     1       2.795   3.379  18.917  0.00  0.00    +0.000 A 
ATOM      5  C   UNL     1       3.139   4.487  19.696  0.00  0.00    +0.000 A 
ATOM      6  C   UNL     1       4.005   5.457  19.193  0.00  0.00    +0.000 A 
ATOM      7  O   UNL     1       2.647   4.701  20.960  0.00  0.00    +0.000 OA
ATOM      8  C   UNL     1       2.050   3.513  21.492  0.00  0.00    +0.000 C 
ATOM      9  C   UNL     1       1.152   2.852  20.459  0.00  0.00    +0.000 C 
ATOM     10  O   UNL     1       1.916   2.411  19.333  0.00  0.00    +0.000 OA
ENDROOT
BRANCH   1  11
ATOM     11  C   UNL     1       5.464   6.383  17.345  0.00  0.00    +0.000 C 
BRANCH  11  12
ATOM     12  N   UNL     1       5.698   6.233  15.910  0.00  0.00    +0.000 NA
ATOM     13  H   UNL     1       4.919   5.717  15.500  0.00  0.00    +0.000 HD
BRANCH  12  14
ATOM     14  C   UNL     1       6.923   5.480  15.623  0.00  0.00    +0.000 C 
BRANCH  14  18
ATOM     15  C   UNL     1       6.368   3.599  12.473  0.00  0.00    +0.000 A 
ATOM     16  C   UNL     1       7.345   4.528  12.201  0.00  0.00    +0.000 A 
ATOM     17  O   UNL     1       7.615   5.275  13.302  0.00  0.00    +0.000 OA
ATOM     18  C   UNL     1       6.799   4.820  14.297  0.00  0.00    +0.000 A 
ATOM     19  C   UNL     1       6.013   3.786  13.830  0.00  0.00    +0.000 A 
ENDBRANCH  14  18
ENDBRANCH  12  14
ENDBRANCH  11  12
ENDBRANCH   1  11
TORSDOF 4
ENDMDL
MODEL 7
REMARK VINA RESULT:      -6.5      1.352      1.495
REMARK  Name = 
REMARK  4 active torsions:
REMARK  status: ('A' for Active; 'I' for Inactive)
REMARK    1  A    between atoms: C_4  and  C_5
REMARK    2  A    between atoms: C_5  and  N_6
REMARK    3  A    between atoms: N_6  and  C_7
REMARK    4  A    between atoms: C_7  and  C_8
REMARK                            x       y       z     vdW  Elec       q    Type
REMARK                         _______ _______ _______ _____ _____    ______ ____
ROOT
ATOM      1  C   UNL     1       4.127   5.884  17.896  0.00  0.00    +0.000 A 
ATOM      2  C   UNL     1       3.296   6.811  18.545  0.00  0.00    +0.000 A 
ATOM      3  C   UNL     1       2.329   6.384  19.455  0.00  0.00    +0.000 A 
ATOM      4  C   UNL     1       2.181   5.025  19.723  0.00  0.00    +0.000 A 
ATOM      5  C   UNL     1       2.978   4.091  19.054  0.00  0.00    +0.000 A 
ATOM      6  C   UNL     1       3.953   4.516  18.154  0.00  0.00    +0.000 A 
ATOM      7  O   UNL     1       2.871   2.736  19.246  0.00  0.00    +0.000 OA
ATOM      8  C   UNL     1       1.650   2.401  19.917  0.00  0.00    +0.000 C 
ATOM      9  C   UNL     1       1.412   3.329  21.097  0.00  0.00    +0.000 C 
ATOM     10  O   UNL     1       1.234   4.678  20.652  0.00  0.00    +0.000 OA
ENDROOT
BRANCH   1  11
ATOM     11  C   UNL     1       5.210   6.353  16.951  0.00  0.00    +0.000 C 
BRANCH  11  12
ATOM     12  N   UNL     1       6.553   6.242  17.519  0.00  0.00    +0.000 NA
ATOM     13  H   UNL     1       7.130   7.000  17.153  0.00  0.00    +0.000 HD
BRANCH  12  14
ATOM     14  C   UNL     1       7.205   4.980  17.159  0.00  0.00    +0.000 C 
BRANCH  14  18
ATOM     15  C   UNL     1       6.255   3.905  13.736  0.00  0.00    +0.000 A 
ATOM     16  C   UNL     1       7.179   4.912  13.582  0.00  0.00    +0.000 A 
ATOM     17  O   UNL     1       7.585   5.377  14.791  0.00  0.00    +0.000 OA
ATOM     18  C   UNL     1       6.912   4.659  15.737  0.00  0.00    +0.000 A 
ATOM     19  C   UNL     1       6.082   3.738  15.131  0.00  0.00    +0.000 A 
ENDBRANCH  14  18
ENDBRANCH  12  14
ENDBRANCH  11  12
ENDBRANCH   1  11
TORSDOF 4
ENDMDL
MODEL 8
REMARK VINA RESULT:      -6.5      1.882      5.294
REMARK  Name = 
REMARK  4 active torsions:
REMARK  status: ('A' for Active; 'I' for Inactive)
REMARK    1  A    between atoms: C_4  and  C_5
REMARK    2  A    between atoms: C_5  and  N_6
REMARK    3  A    between atoms: N_6  and  C_7
REMARK    4  A    between atoms: C_7  and  C_8
REMARK                            x       y       z     vdW  Elec       q    Type
REMARK                         _______ _______ _______ _____ _____    ______ ____
ROOT
ATOM      1  C   UNL     1       4.150   5.727  18.669  0.00  0.00    +0.000 A 
ATOM      2  C   UNL     1       5.375   5.449  19.298  0.00  0.00    +0.000 A 
ATOM      3  C   UNL     1       6.487   5.059  18.550  0.00  0.00    +0.000 A 
ATOM      4  C   UNL     1       6.382   4.940  17.166  0.00  0.00    +0.000 A 
ATOM      5  C   UNL     1       5.158   5.177  16.534  0.00  0.00    +0.000 A 
ATOM      6  C   UNL     1       4.050   5.578  17.279  0.00  0.00    +0.000 A 
ATOM      7  O   UNL     1       4.974   5.053  15.180  0.00  0.00    +0.000 OA
ATOM      8  C   UNL     1       6.053   4.333  14.573  0.00  0.00    +0.000 C 
ATOM      9  C   UNL     1       7.393   4.835  15.087  0.00  0.00    +0.000 C 
ATOM     10  O   UNL     1       7.522   4.585  16.490  0.00  0.00    +0.000 OA
ENDROOT
BRANCH   1  11
ATOM     11  C   UNL     1       2.963   6.200  19.476  0.00  0.00    +0.000 C 
BRANCH  11  12
ATOM     12  N   UNL     1       2.729   5.396  20.675  0.00  0.00    +0.000 NA
ATOM     13  H   UNL     1       3.598   4.929  20.934  0.00  0.00    +0.000 HD
BRANCH  12  14
ATOM     14  C   UNL     1       1.719   4.355  20.456  0.00  0.00    +0.000 C 
BRANCH  14  18
ATOM     15  C   UNL     1       3.388   1.644  18.549  0.00  0.00    +0.000 A 
ATOM     16  C   UNL     1       2.401   2.141  17.731  0.00  0.00    +0.000 A 
ATOM     17  O   UNL     1       1.725   3.142  18.350  0.00  0.00    +0.000 OA
ATOM     18  C   UNL     1       2.286   3.292  19.585  0.00  0.00    +0.000 A 
ATOM     19  C   UNL     1       3.316   2.389  19.751  0.00  0.00    +0.000 A 
ENDBRANCH  14  18
ENDBRANCH  12  14
ENDBRANCH  11  12
ENDBRANCH   1  11
TORSDOF 4
ENDMDL
MODEL 9
REMARK VINA RESULT:      -6.4      1.983      5.992
REMARK  Name = 
REMARK  4 active torsions:
REMARK  status: ('A' for Active; 'I' for Inactive)
REMARK    1  A    between atoms: C_4  and  C_5
REMARK    2  A    between atoms: C_5  and  N_6
REMARK    3  A    between atoms: N_6  and  C_7
REMARK    4  A    between atoms: C_7  and  C_8
REMARK                            x       y       z     vdW  Elec       q    Type
REMARK                         _______ _______ _______ _____ _____    ______ ____
ROOT
ATOM      1  C   UNL     1       5.071   4.982  18.578  0.00  0.00    +0.000 A 
ATOM      2  C   UNL     1       6.436   5.256  18.759  0.00  0.00    +0.000 A 
ATOM      3  C   UNL     1       7.318   5.217  17.678  0.00  0.00    +0.000 A 
ATOM      4  C   UNL     1       6.844   4.899  16.408  0.00  0.00    +0.000 A 
ATOM      5  C   UNL     1       5.494   4.586  16.224  0.00  0.00    +0.000 A 
ATOM      6  C   UNL     1       4.609   4.637  17.300  0.00  0.00    +0.000 A 
ATOM      7  O   UNL     1       4.961   4.238  15.008  0.00  0.00    +0.000 OA
ATOM      8  C   UNL     1       5.988   3.900  14.069  0.00  0.00    +0.000 C 
ATOM      9  C   UNL     1       7.113   4.922  14.110  0.00  0.00    +0.000 C 
ATOM     10  O   UNL     1       7.759   4.911  15.387  0.00  0.00    +0.000 OA
ENDROOT
BRANCH   1  11
ATOM     11  C   UNL     1       4.108   5.077  19.740  0.00  0.00    +0.000 C 
BRANCH  11  12
ATOM     12  N   UNL     1       3.238   6.250  19.667  0.00  0.00    +0.000 NA
ATOM     13  H   UNL     1       3.728   7.050  20.068  0.00  0.00    +0.000 HD
BRANCH  12  14
ATOM     14  C   UNL     1       1.997   6.068  20.428  0.00  0.00    +0.000 C 
BRANCH  14  18
ATOM     15  C   UNL     1       1.047   2.482  20.348  0.00  0.00    +0.000 A 
ATOM     16  C   UNL     1       1.662   2.691  21.559  0.00  0.00    +0.000 A 
ATOM     17  O   UNL     1       2.054   3.986  21.679  0.00  0.00    +0.000 OA
ATOM     18  C   UNL     1       1.686   4.618  20.528  0.00  0.00    +0.000 A 
ATOM     19  C   UNL     1       1.060   3.729  19.678  0.00  0.00    +0.000 A 
ENDBRANCH  14  18
ENDBRANCH  12  14
ENDBRANCH  11  12
ENDBRANCH   1  11
TORSDOF 4
ENDMDL
