MODEL 1
REMARK VINA RESULT:      -8.5      0.000      0.000
REMARK  Name = 
REMARK  7 active torsions:
REMARK  status: ('A' for Active; 'I' for Inactive)
REMARK    1  A    between atoms: C_1  and  N_2
REMARK    2  A    between atoms: N_2  and  C_3
REMARK    3  A    between atoms: N_6  and  C_7
REMARK    4  A    between atoms: C_10  and  C_11
REMARK    5  A    between atoms: C_21  and  O_22
REMARK    6  A    between atoms: O_22  and  C_23
REMARK    7  A    between atoms: C_26  and  C_27
REMARK                            x       y       z     vdW  Elec       q    Type
REMARK                         _______ _______ _______ _____ _____    ______ ____
ROOT
ATOM      1  C   UNL     1       1.414   9.432  18.925  0.00  0.00    +0.000 A 
ATOM      2  C   UNL     1       2.212   9.215  17.792  0.00  0.00    +0.000 A 
ATOM      3  C   UNL     1       2.969   8.066  17.645  0.00  0.00    +0.000 A 
ATOM      4  C   UNL     1       2.877   7.048  18.589  0.00  0.00    +0.000 A 
ATOM      5  C   UNL     1       2.133   7.267  19.759  0.00  0.00    +0.000 A 
ATOM      6  F   UNL     1       2.130   6.321  20.714  0.00  0.00    +0.000 F 
ATOM      7  C   UNL     1       1.396   8.452  19.937  0.00  0.00    +0.000 A 
ENDROOT
BRANCH   1  11
ATOM      8  C   UNL     1      -2.480  10.248  17.413  0.00  0.00    +0.000 A 
ATOM      9  N   UNL     1      -1.169  10.175  17.702  0.00  0.00    +0.000 NA
ATOM     10  C   UNL     1      -0.653  10.846  18.740  0.00  0.00    +0.000 A 
ATOM     11  N   UNL     1       0.682  10.632  19.074  0.00  0.00    +0.000 N 
ATOM     12  N   UNL     1      -1.375  11.671  19.495  0.00  0.00    +0.000 NA
ATOM     13  C   UNL     1      -2.691  11.751  19.194  0.00  0.00    +0.000 A 
ATOM     14  C   UNL     1      -3.296  11.043  18.165  0.00  0.00    +0.000 A 
ATOM     15  H   UNL     1       1.001  11.247  19.811  0.00  0.00    +0.000 HD
BRANCH  14  16
ATOM     16  C   UNL     1      -4.767  11.185  17.976  0.00  0.00    +0.000 C 
ATOM     17  F   UNL     1      -5.162  11.534  16.720  0.00  0.00    +0.000 F 
ATOM     18  F   UNL     1      -5.421  10.012  18.234  0.00  0.00    +0.000 F 
ATOM     19  F   UNL     1      -5.323  12.099  18.814  0.00  0.00    +0.000 F 
ENDBRANCH  14  16
BRANCH   8  21
ATOM     20  C   UNL     1      -2.807  10.217  15.017  0.00  0.00    +0.000 C 
ATOM     21  N   UNL     1      -2.940   9.534  16.305  0.00  0.00    +0.000 N 
ATOM     22  H   UNL     1      -2.563   8.591  16.279  0.00  0.00    +0.000 HD
ENDBRANCH   8  21
ENDBRANCH   1  11
BRANCH   4  23
ATOM     23  C   UNL     1       3.583   5.755  18.386  0.00  0.00    +0.000 C 
ATOM     24  O   UNL     1       4.812   5.772  18.421  0.00  0.00    +0.000 OA
ATOM     25  N   UNL     1       2.860   4.575  18.180  0.00  0.00    +0.000 N 
ATOM     26  C   UNL     1       1.405   4.424  18.016  0.00  0.00    +0.000 C 
ATOM     27  C   UNL     1       0.871   3.137  18.652  0.00  0.00    +0.000 C 
ATOM     28  O   UNL     1       1.619   1.989  18.242  0.00  0.00    +0.000 OA
ATOM     29  C   UNL     1       3.000   2.145  18.602  0.00  0.00    +0.000 C 
ATOM     30  C   UNL     1       3.612   3.350  17.881  0.00  0.00    +0.000 C 
ENDBRANCH   4  23
BRANCH   7  31
ATOM     31  O   UNL     1       0.654   8.775  21.049  0.00  0.00    +0.000 OA
ATOM     32  C   UNL     1       1.369   9.133  22.225  0.00  0.00    +0.000 C 
ENDBRANCH   7  31
TORSDOF 5
ENDMDL
MODEL 2
REMARK VINA RESULT:      -8.1      1.402      2.384
REMARK  Name = 
REMARK  7 active torsions:
REMARK  status: ('A' for Active; 'I' for Inactive)
REMARK    1  A    between atoms: C_1  and  N_2
REMARK    2  A    between atoms: N_2  and  C_3
REMARK    3  A    between atoms: N_6  and  C_7
REMARK    4  A    between atoms: C_10  and  C_11
REMARK    5  A    between atoms: C_21  and  O_22
REMARK    6  A    between atoms: O_22  and  C_23
REMARK    7  A    between atoms: C_26  and  C_27
REMARK                            x       y       z     vdW  Elec       q    Type
REMARK                         _______ _______ _______ _____ _____    ______ ____
ROOT
ATOM      1  C   UNL     1       1.423   9.442  18.915  0.00  0.00    +0.000 A 
ATOM      2  C   UNL     1       2.011   9.167  17.672  0.00  0.00    +0.000 A 
ATOM      3  C   UNL     1       2.692   7.984  17.435  0.00  0.00    +0.000 A 
ATOM      4  C   UNL     1       2.722   6.993  18.412  0.00  0.00    +0.000 A 
ATOM      5  C   UNL     1       2.193   7.270  19.682  0.00  0.00    +0.000 A 
ATOM      6  F   UNL     1       2.316   6.348  20.652  0.00  0.00    +0.000 F 
ATOM      7  C   UNL     1       1.540   8.489  19.944  0.00  0.00    +0.000 A 
ENDROOT
BRANCH   1  11
ATOM      8  C   UNL     1      -2.480  10.544  17.619  0.00  0.00    +0.000 A 
ATOM      9  N   UNL     1      -1.164  10.384  17.844  0.00  0.00    +0.000 NA
ATOM     10  C   UNL     1      -0.564  10.978  18.884  0.00  0.00    +0.000 A 
ATOM     11  N   UNL     1       0.769  10.674  19.147  0.00  0.00    +0.000 N 
ATOM     12  N   UNL     1      -1.203  11.809  19.705  0.00  0.00    +0.000 NA
ATOM     13  C   UNL     1      -2.523  11.976  19.470  0.00  0.00    +0.000 A 
ATOM     14  C   UNL     1      -3.214  11.349  18.441  0.00  0.00    +0.000 A 
ATOM     15  H   UNL     1       1.156  11.237  19.893  0.00  0.00    +0.000 HD
BRANCH  14  16
ATOM     16  C   UNL     1      -4.680  11.583  18.327  0.00  0.00    +0.000 C 
ATOM     17  F   UNL     1      -5.452  10.460  18.325  0.00  0.00    +0.000 F 
ATOM     18  F   UNL     1      -5.153  12.329  19.371  0.00  0.00    +0.000 F 
ATOM     19  F   UNL     1      -5.021  12.275  17.208  0.00  0.00    +0.000 F 
ENDBRANCH  14  16
BRANCH   8  21
ATOM     20  C   UNL     1      -2.869  10.614  15.234  0.00  0.00    +0.000 C 
ATOM     21  N   UNL     1      -3.028   9.906  16.506  0.00  0.00    +0.000 N 
ATOM     22  H   UNL     1      -2.737   8.935  16.443  0.00  0.00    +0.000 HD
ENDBRANCH   8  21
ENDBRANCH   1  11
BRANCH   4  23
ATOM     23  C   UNL     1       3.337   5.669  18.133  0.00  0.00    +0.000 C 
ATOM     24  O   UNL     1       2.588   4.694  18.104  0.00  0.00    +0.000 OA
ATOM     25  N   UNL     1       4.713   5.558  17.903  0.00  0.00    +0.000 N 
ATOM     26  C   UNL     1       5.733   6.613  18.005  0.00  0.00    +0.000 C 
ATOM     27  C   UNL     1       6.835   6.473  16.948  0.00  0.00    +0.000 C 
ATOM     28  O   UNL     1       7.375   5.149  16.916  0.00  0.00    +0.000 OA
ATOM     29  C   UNL     1       6.337   4.199  16.633  0.00  0.00    +0.000 C 
ATOM     30  C   UNL     1       5.277   4.213  17.737  0.00  0.00    +0.000 C 
ENDBRANCH   4  23
BRANCH   7  31
ATOM     31  O   UNL     1       1.006   8.868  21.154  0.00  0.00    +0.000 OA
ATOM     32  C   UNL     1      -0.264   8.329  21.501  0.00  0.00    +0.000 C 
ENDBRANCH   7  31
TORSDOF 5
ENDMDL
MODEL 3
REMARK VINA RESULT:      -7.8      3.277      4.244
REMARK  Name = 
REMARK  7 active torsions:
REMARK  status: ('A' for Active; 'I' for Inactive)
REMARK    1  A    between atoms: C_1  and  N_2
REMARK    2  A    between atoms: N_2  and  C_3
REMARK    3  A    between atoms: N_6  and  C_7
REMARK    4  A    between atoms: C_10  and  C_11
REMARK    5  A    between atoms: C_21  and  O_22
REMARK    6  A    between atoms: O_22  and  C_23
REMARK    7  A    between atoms: C_26  and  C_27
REMARK                            x       y       z     vdW  Elec       q    Type
REMARK                         _______ _______ _______ _____ _____    ______ ____
ROOT
ATOM      1  C   UNL     1       0.966   9.391  19.065  0.00  0.00    +0.000 A 
ATOM      2  C   UNL     1       1.636   9.324  17.835  0.00  0.00    +0.000 A 
ATOM      3  C   UNL     1       2.548   8.319  17.557  0.00  0.00    +0.000 A 
ATOM      4  C   UNL     1       2.745   7.289  18.470  0.00  0.00    +0.000 A 
ATOM      5  C   UNL     1       2.132   7.366  19.731  0.00  0.00    +0.000 A 
ATOM      6  F   UNL     1       2.406   6.421  20.646  0.00  0.00    +0.000 F 
ATOM      7  C   UNL     1       1.239   8.409  20.038  0.00  0.00    +0.000 A 
ENDROOT
BRANCH   1  11
ATOM      8  C   UNL     1       1.933  13.521  19.422  0.00  0.00    +0.000 A 
ATOM      9  N   UNL     1       1.582  12.233  19.581  0.00  0.00    +0.000 NA
ATOM     10  C   UNL     1       0.344  11.813  19.287  0.00  0.00    +0.000 A 
ATOM     11  N   UNL     1       0.072  10.449  19.344  0.00  0.00    +0.000 N 
ATOM     12  N   UNL     1      -0.622  12.641  18.896  0.00  0.00    +0.000 NA
ATOM     13  C   UNL     1      -0.269  13.938  18.747  0.00  0.00    +0.000 A 
ATOM     14  C   UNL     1       1.008  14.426  18.986  0.00  0.00    +0.000 A 
ATOM     15  H   UNL     1      -0.907  10.242  19.193  0.00  0.00    +0.000 HD
BRANCH  14  16
ATOM     16  C   UNL     1       1.274  15.869  18.733  0.00  0.00    +0.000 C 
ATOM     17  F   UNL     1       2.287  16.132  17.860  0.00  0.00    +0.000 F 
ATOM     18  F   UNL     1       0.182  16.494  18.198  0.00  0.00    +0.000 F 
ATOM     19  F   UNL     1       1.565  16.561  19.867  0.00  0.00    +0.000 F 
ENDBRANCH  14  16
BRANCH   8  21
ATOM     20  C   UNL     1       3.472  14.097  21.195  0.00  0.00    +0.000 C 
ATOM     21  N   UNL     1       3.236  13.884  19.766  0.00  0.00    +0.000 N 
ATOM     22  H   UNL     1       3.924  13.262  19.352  0.00  0.00    +0.000 HD
ENDBRANCH   8  21
ENDBRANCH   1  11
BRANCH   4  23
ATOM     23  C   UNL     1       3.622   6.135  18.138  0.00  0.00    +0.000 C 
ATOM     24  O   UNL     1       4.835   6.338  18.108  0.00  0.00    +0.000 OA
ATOM     25  N   UNL     1       3.072   4.873  17.887  0.00  0.00    +0.000 N 
ATOM     26  C   UNL     1       1.649   4.511  17.791  0.00  0.00    +0.000 C 
ATOM     27  C   UNL     1       1.354   3.120  18.362  0.00  0.00    +0.000 C 
ATOM     28  O   UNL     1       2.238   2.128  17.831  0.00  0.00    +0.000 OA
ATOM     29  C   UNL     1       3.600   2.472  18.127  0.00  0.00    +0.000 C 
ATOM     30  C   UNL     1       3.979   3.799  17.463  0.00  0.00    +0.000 C 
ENDBRANCH   4  23
BRANCH   7  31
ATOM     31  O   UNL     1       0.602   8.590  21.244  0.00  0.00    +0.000 OA
ATOM     32  C   UNL     1       1.365   9.154  22.303  0.00  0.00    +0.000 C 
ENDBRANCH   7  31
TORSDOF 5
ENDMDL
MODEL 4
REMARK VINA RESULT:      -7.3      1.620      2.483
REMARK  Name = 
REMARK  7 active torsions:
REMARK  status: ('A' for Active; 'I' for Inactive)
REMARK    1  A    between atoms: C_1  and  N_2
REMARK    2  A    between atoms: N_2  and  C_3
REMARK    3  A    between atoms: N_6  and  C_7
REMARK    4  A    between atoms: C_10  and  C_11
REMARK    5  A    between atoms: C_21  and  O_22
REMARK    6  A    between atoms: O_22  and  C_23
REMARK    7  A    between atoms: C_26  and  C_27
REMARK                            x       y       z     vdW  Elec       q    Type
REMARK                         _______ _______ _______ _____ _____    ______ ____
ROOT
ATOM      1  C   UNL     1       1.371   9.700  19.311  0.00  0.00    +0.000 A 
ATOM      2  C   UNL     1       1.808   9.485  17.996  0.00  0.00    +0.000 A 
ATOM      3  C   UNL     1       2.297   8.256  17.584  0.00  0.00    +0.000 A 
ATOM      4  C   UNL     1       2.274   7.172  18.456  0.00  0.00    +0.000 A 
ATOM      5  C   UNL     1       1.898   7.378  19.792  0.00  0.00    +0.000 A 
ATOM      6  F   UNL     1       1.975   6.350  20.655  0.00  0.00    +0.000 F 
ATOM      7  C   UNL     1       1.443   8.635  20.231  0.00  0.00    +0.000 A 
ENDROOT
BRANCH   1  11
ATOM      8  C   UNL     1      -2.476  11.381  18.610  0.00  0.00    +0.000 A 
ATOM      9  N   UNL     1      -1.176  11.043  18.654  0.00  0.00    +0.000 NA
ATOM     10  C   UNL     1      -0.387  11.460  19.654  0.00  0.00    +0.000 A 
ATOM     11  N   UNL     1       0.916  10.974  19.722  0.00  0.00    +0.000 N 
ATOM     12  N   UNL     1      -0.814  12.279  20.612  0.00  0.00    +0.000 NA
ATOM     13  C   UNL     1      -2.119  12.626  20.559  0.00  0.00    +0.000 A 
ATOM     14  C   UNL     1      -2.999  12.187  19.579  0.00  0.00    +0.000 A 
ATOM     15  H   UNL     1       1.456  11.413  20.456  0.00  0.00    +0.000 HD
BRANCH  14  16
ATOM     16  C   UNL     1      -4.426  12.605  19.669  0.00  0.00    +0.000 C 
ATOM     17  F   UNL     1      -4.639  13.846  20.190  0.00  0.00    +0.000 F 
ATOM     18  F   UNL     1      -5.017  12.638  18.436  0.00  0.00    +0.000 F 
ATOM     19  F   UNL     1      -5.183  11.751  20.408  0.00  0.00    +0.000 F 
ENDBRANCH  14  16
BRANCH   8  21
ATOM     20  C   UNL     1      -2.629   9.824  16.767  0.00  0.00    +0.000 C 
ATOM     21  N   UNL     1      -3.228  10.922  17.527  0.00  0.00    +0.000 N 
ATOM     22  H   UNL     1      -4.189  10.728  17.789  0.00  0.00    +0.000 HD
ENDBRANCH   8  21
ENDBRANCH   1  11
BRANCH   4  23
ATOM     23  C   UNL     1       2.675   5.816  17.995  0.00  0.00    +0.000 C 
ATOM     24  O   UNL     1       1.789   4.968  17.899  0.00  0.00    +0.000 OA
ATOM     25  N   UNL     1       4.008   5.541  17.674  0.00  0.00    +0.000 N 
ATOM     26  C   UNL     1       5.177   6.420  17.835  0.00  0.00    +0.000 C 
ATOM     27  C   UNL     1       6.201   6.252  16.708  0.00  0.00    +0.000 C 
ATOM     28  O   UNL     1       6.539   4.879  16.496  0.00  0.00    +0.000 OA
ATOM     29  C   UNL     1       5.362   4.126  16.168  0.00  0.00    +0.000 C 
ATOM     30  C   UNL     1       4.360   4.158  17.326  0.00  0.00    +0.000 C 
ENDBRANCH   4  23
BRANCH   7  31
ATOM     31  O   UNL     1       1.072   8.949  21.517  0.00  0.00    +0.000 OA
ATOM     32  C   UNL     1      -0.240   8.579  21.923  0.00  0.00    +0.000 C 
ENDBRANCH   7  31
TORSDOF 5
ENDMDL
MODEL 5
REMARK VINA RESULT:      -7.2      3.219      8.799
REMARK  Name = 
REMARK  7 active torsions:
REMARK  status: ('A' for Active; 'I' for Inactive)
REMARK    1  A    between atoms: C_1  and  N_2
REMARK    2  A    between atoms: N_2  and  C_3
REMARK    3  A    between atoms: N_6  and  C_7
REMARK    4  A    between atoms: C_10  and  C_11
REMARK    5  A    between atoms: C_21  and  O_22
REMARK    6  A    between atoms: O_22  and  C_23
REMARK    7  A    between atoms: C_26  and  C_27
REMARK                            x       y       z     vdW  Elec       q    Type
REMARK                         _______ _______ _______ _____ _____    ______ ____
ROOT
ATOM      1  C   UNL     1      -0.564  11.643  18.659  0.00  0.00    +0.000 A 
ATOM      2  C   UNL     1      -0.503  12.735  19.536  0.00  0.00    +0.000 A 
ATOM      3  C   UNL     1      -1.645  13.287  20.092  0.00  0.00    +0.000 A 
ATOM      4  C   UNL     1      -2.884  12.697  19.861  0.00  0.00    +0.000 A 
ATOM      5  C   UNL     1      -2.977  11.641  18.941  0.00  0.00    +0.000 A 
ATOM      6  F   UNL     1      -4.189  11.143  18.645  0.00  0.00    +0.000 F 
ATOM      7  C   UNL     1      -1.825  11.105  18.336  0.00  0.00    +0.000 A 
ENDROOT
BRANCH   1  11
ATOM      8  C   UNL     1       1.656   8.251  19.959  0.00  0.00    +0.000 A 
ATOM      9  N   UNL     1       1.175   9.464  19.635  0.00  0.00    +0.000 NA
ATOM     10  C   UNL     1       1.240   9.919  18.377  0.00  0.00    +0.000 A 
ATOM     11  N   UNL     1       0.611  11.122  18.070  0.00  0.00    +0.000 N 
ATOM     12  N   UNL     1       1.839   9.244  17.398  0.00  0.00    +0.000 NA
ATOM     13  C   UNL     1       2.331   8.029  17.730  0.00  0.00    +0.000 A 
ATOM     14  C   UNL     1       2.250   7.480  19.002  0.00  0.00    +0.000 A 
ATOM     15  H   UNL     1       0.791  11.424  17.121  0.00  0.00    +0.000 HD
BRANCH  14  16
ATOM     16  C   UNL     1       2.789   6.109  19.218  0.00  0.00    +0.000 C 
ATOM     17  F   UNL     1       3.934   6.041  19.953  0.00  0.00    +0.000 F 
ATOM     18  F   UNL     1       1.896   5.320  19.890  0.00  0.00    +0.000 F 
ATOM     19  F   UNL     1       3.046   5.451  18.057  0.00  0.00    +0.000 F 
ENDBRANCH  14  16
BRANCH   8  21
ATOM     20  C   UNL     1       1.209   8.913  22.241  0.00  0.00    +0.000 C 
ATOM     21  N   UNL     1       1.566   7.855  21.295  0.00  0.00    +0.000 N 
ATOM     22  H   UNL     1       0.987   7.029  21.407  0.00  0.00    +0.000 HD
ENDBRANCH   8  21
ENDBRANCH   1  11
BRANCH   4  23
ATOM     23  C   UNL     1      -4.104  13.196  20.549  0.00  0.00    +0.000 C 
ATOM     24  O   UNL     1      -5.020  13.612  19.842  0.00  0.00    +0.000 OA
ATOM     25  N   UNL     1      -4.193  13.171  21.945  0.00  0.00    +0.000 N 
ATOM     26  C   UNL     1      -3.147  12.799  22.911  0.00  0.00    +0.000 C 
ATOM     27  C   UNL     1      -3.707  12.063  24.133  0.00  0.00    +0.000 C 
ATOM     28  O   UNL     1      -4.808  12.765  24.718  0.00  0.00    +0.000 OA
ATOM     29  C   UNL     1      -5.858  12.928  23.753  0.00  0.00    +0.000 C 
ATOM     30  C   UNL     1      -5.378  13.773  22.570  0.00  0.00    +0.000 C 
ENDBRANCH   4  23
BRANCH   7  31
ATOM     31  O   UNL     1      -1.807  10.088  17.410  0.00  0.00    +0.000 OA
ATOM     32  C   UNL     1      -2.422  10.343  16.154  0.00  0.00    +0.000 C 
ENDBRANCH   7  31
TORSDOF 5
ENDMDL
MODEL 6
REMARK VINA RESULT:      -7.1      1.491      2.041
REMARK  Name = 
REMARK  7 active torsions:
REMARK  status: ('A' for Active; 'I' for Inactive)
REMARK    1  A    between atoms: C_1  and  N_2
REMARK    2  A    between atoms: N_2  and  C_3
REMARK    3  A    between atoms: N_6  and  C_7
REMARK    4  A    between atoms: C_10  and  C_11
REMARK    5  A    between atoms: C_21  and  O_22
REMARK    6  A    between atoms: O_22  and  C_23
REMARK    7  A    between atoms: C_26  and  C_27
REMARK                            x       y       z     vdW  Elec       q    Type
REMARK                         _______ _______ _______ _____ _____    ______ ____
ROOT
ATOM      1  C   UNL     1       1.109   9.605  19.571  0.00  0.00    +0.000 A 
ATOM      2  C   UNL     1       1.016   8.643  20.588  0.00  0.00    +0.000 A 
ATOM      3  C   UNL     1       1.656   7.419  20.491  0.00  0.00    +0.000 A 
ATOM      4  C   UNL     1       2.492   7.156  19.411  0.00  0.00    +0.000 A 
ATOM      5  C   UNL     1       2.553   8.077  18.353  0.00  0.00    +0.000 A 
ATOM      6  F   UNL     1       3.281   7.772  17.266  0.00  0.00    +0.000 F 
ATOM      7  C   UNL     1       1.868   9.305  18.424  0.00  0.00    +0.000 A 
ENDROOT
BRANCH   1  11
ATOM      8  C   UNL     1      -2.627  10.574  17.775  0.00  0.00    +0.000 A 
ATOM      9  N   UNL     1      -1.346  10.450  18.161  0.00  0.00    +0.000 NA
ATOM     10  C   UNL     1      -0.883  11.098  19.239  0.00  0.00    +0.000 A 
ATOM     11  N   UNL     1       0.413  10.832  19.671  0.00  0.00    +0.000 N 
ATOM     12  N   UNL     1      -1.629  11.947  19.942  0.00  0.00    +0.000 NA
ATOM     13  C   UNL     1      -2.914  12.078  19.544  0.00  0.00    +0.000 A 
ATOM     14  C   UNL     1      -3.467  11.397  18.469  0.00  0.00    +0.000 A 
ATOM     15  H   UNL     1       0.699  11.432  20.434  0.00  0.00    +0.000 HD
BRANCH  14  16
ATOM     16  C   UNL     1      -4.912  11.596  18.170  0.00  0.00    +0.000 C 
ATOM     17  F   UNL     1      -5.659  10.457  18.118  0.00  0.00    +0.000 F 
ATOM     18  F   UNL     1      -5.519  12.368  19.122  0.00  0.00    +0.000 F 
ATOM     19  F   UNL     1      -5.127  12.241  16.994  0.00  0.00    +0.000 F 
ENDBRANCH  14  16
BRANCH   8  21
ATOM     20  C   UNL     1      -2.775  10.563  15.362  0.00  0.00    +0.000 C 
ATOM     21  N   UNL     1      -3.029   9.880  16.632  0.00  0.00    +0.000 N 
ATOM     22  H   UNL     1      -2.686   8.925  16.629  0.00  0.00    +0.000 HD
ENDBRANCH   8  21
ENDBRANCH   1  11
BRANCH   4  23
ATOM     23  C   UNL     1       3.286   5.900  19.351  0.00  0.00    +0.000 C 
ATOM     24  O   UNL     1       4.488   6.004  19.113  0.00  0.00    +0.000 OA
ATOM     25  N   UNL     1       2.675   4.662  19.574  0.00  0.00    +0.000 N 
ATOM     26  C   UNL     1       1.244   4.382  19.769  0.00  0.00    +0.000 C 
ATOM     27  C   UNL     1       0.995   3.254  20.776  0.00  0.00    +0.000 C 
ATOM     28  O   UNL     1       1.773   2.092  20.477  0.00  0.00    +0.000 OA
ATOM     29  C   UNL     1       3.171   2.419  20.484  0.00  0.00    +0.000 C 
ATOM     30  C   UNL     1       3.489   3.452  19.399  0.00  0.00    +0.000 C 
ENDBRANCH   4  23
BRANCH   7  31
ATOM     31  O   UNL     1       1.845  10.266  17.440  0.00  0.00    +0.000 OA
ATOM     32  C   UNL     1       2.558  11.470  17.692  0.00  0.00    +0.000 C 
ENDBRANCH   7  31
TORSDOF 5
ENDMDL
MODEL 7
REMARK VINA RESULT:      -7.0      3.072      4.476
REMARK  Name = 
REMARK  7 active torsions:
REMARK  status: ('A' for Active; 'I' for Inactive)
REMARK    1  A    between atoms: C_1  and  N_2
REMARK    2  A    between atoms: N_2  and  C_3
REMARK    3  A    between atoms: N_6  and  C_7
REMARK    4  A    between atoms: C_10  and  C_11
REMARK    5  A    between atoms: C_21  and  O_22
REMARK    6  A    between atoms: O_22  and  C_23
REMARK    7  A    between atoms: C_26  and  C_27
REMARK                            x       y       z     vdW  Elec       q    Type
REMARK                         _______ _______ _______ _____ _____    ______ ____
ROOT
ATOM      1  C   UNL     1       2.191   6.353  20.207  0.00  0.00    +0.000 A 
ATOM      2  C   UNL     1       2.483   6.996  18.995  0.00  0.00    +0.000 A 
ATOM      3  C   UNL     1       3.137   6.342  17.964  0.00  0.00    +0.000 A 
ATOM      4  C   UNL     1       3.437   4.988  18.080  0.00  0.00    +0.000 A 
ATOM      5  C   UNL     1       3.209   4.341  19.305  0.00  0.00    +0.000 A 
ATOM      6  F   UNL     1       3.594   3.061  19.444  0.00  0.00    +0.000 F 
ATOM      7  C   UNL     1       2.585   5.011  20.373  0.00  0.00    +0.000 A 
ENDROOT
BRANCH   1  11
ATOM      8  C   UNL     1       0.757  10.360  20.114  0.00  0.00    +0.000 A 
ATOM      9  N   UNL     1       1.400   9.197  20.316  0.00  0.00    +0.000 NA
ATOM     10  C   UNL     1       0.932   8.293  21.187  0.00  0.00    +0.000 A 
ATOM     11  N   UNL     1       1.560   7.052  21.261  0.00  0.00    +0.000 N 
ATOM     12  N   UNL     1      -0.138   8.512  21.948  0.00  0.00    +0.000 NA
ATOM     13  C   UNL     1      -0.776   9.688  21.749  0.00  0.00    +0.000 A 
ATOM     14  C   UNL     1      -0.371  10.644  20.827  0.00  0.00    +0.000 A 
ATOM     15  H   UNL     1       1.192   6.475  22.006  0.00  0.00    +0.000 HD
BRANCH  14  16
ATOM     16  C   UNL     1      -1.195  11.875  20.674  0.00  0.00    +0.000 C 
ATOM     17  F   UNL     1      -1.803  12.024  19.464  0.00  0.00    +0.000 F 
ATOM     18  F   UNL     1      -2.216  11.912  21.585  0.00  0.00    +0.000 F 
ATOM     19  F   UNL     1      -0.487  13.016  20.883  0.00  0.00    +0.000 F 
ENDBRANCH  14  16
BRANCH   8  21
ATOM     20  C   UNL     1       1.977  10.651  18.046  0.00  0.00    +0.000 C 
ATOM     21  N   UNL     1       1.317  11.258  19.203  0.00  0.00    +0.000 N 
ATOM     22  H   UNL     1       0.658  11.982  18.932  0.00  0.00    +0.000 HD
ENDBRANCH   8  21
ENDBRANCH   1  11
BRANCH   4  23
ATOM     23  C   UNL     1       4.024   4.238  16.939  0.00  0.00    +0.000 C 
ATOM     24  O   UNL     1       3.315   3.394  16.394  0.00  0.00    +0.000 OA
ATOM     25  N   UNL     1       5.327   4.507  16.507  0.00  0.00    +0.000 N 
ATOM     26  C   UNL     1       6.314   5.409  17.121  0.00  0.00    +0.000 C 
ATOM     27  C   UNL     1       7.184   6.126  16.083  0.00  0.00    +0.000 C 
ATOM     28  O   UNL     1       7.748   5.212  15.138  0.00  0.00    +0.000 OA
ATOM     29  C   UNL     1       6.704   4.501  14.457  0.00  0.00    +0.000 C 
ATOM     30  C   UNL     1       5.888   3.662  15.445  0.00  0.00    +0.000 C 
ENDBRANCH   4  23
BRANCH   7  31
ATOM     31  O   UNL     1       2.335   4.479  21.616  0.00  0.00    +0.000 OA
ATOM     32  C   UNL     1       1.651   3.232  21.663  0.00  0.00    +0.000 C 
ENDBRANCH   7  31
TORSDOF 5
ENDMDL
MODEL 8
REMARK VINA RESULT:      -6.9      3.700      8.727
REMARK  Name = 
REMARK  7 active torsions:
REMARK  status: ('A' for Active; 'I' for Inactive)
REMARK    1  A    between atoms: C_1  and  N_2
REMARK    2  A    between atoms: N_2  and  C_3
REMARK    3  A    between atoms: N_6  and  C_7
REMARK    4  A    between atoms: C_10  and  C_11
REMARK    5  A    between atoms: C_21  and  O_22
REMARK    6  A    between atoms: O_22  and  C_23
REMARK    7  A    between atoms: C_26  and  C_27
REMARK                            x       y       z     vdW  Elec       q    Type
REMARK                         _______ _______ _______ _____ _____    ______ ____
ROOT
ATOM      1  C   UNL     1       1.755   8.507  20.465  0.00  0.00    +0.000 A 
ATOM      2  C   UNL     1       1.804   8.590  21.864  0.00  0.00    +0.000 A 
ATOM      3  C   UNL     1       0.967   9.436  22.572  0.00  0.00    +0.000 A 
ATOM      4  C   UNL     1      -0.017  10.157  21.904  0.00  0.00    +0.000 A 
ATOM      5  C   UNL     1      -0.046  10.136  20.500  0.00  0.00    +0.000 A 
ATOM      6  F   UNL     1      -0.932  10.914  19.856  0.00  0.00    +0.000 F 
ATOM      7  C   UNL     1       0.833   9.313  19.771  0.00  0.00    +0.000 A 
ENDROOT
BRANCH   1  11
ATOM      8  C   UNL     1       1.499   4.277  20.057  0.00  0.00    +0.000 A 
ATOM      9  N   UNL     1       1.800   5.556  20.343  0.00  0.00    +0.000 NA
ATOM     10  C   UNL     1       2.479   6.316  19.473  0.00  0.00    +0.000 A 
ATOM     11  N   UNL     1       2.648   7.668  19.760  0.00  0.00    +0.000 N 
ATOM     12  N   UNL     1       2.953   5.844  18.322  0.00  0.00    +0.000 NA
ATOM     13  C   UNL     1       2.658   4.554  18.043  0.00  0.00    +0.000 A 
ATOM     14  C   UNL     1       1.917   3.730  18.879  0.00  0.00    +0.000 A 
ATOM     15  H   UNL     1       3.247   8.135  19.091  0.00  0.00    +0.000 HD
BRANCH  14  16
ATOM     16  C   UNL     1       1.621   2.342  18.425  0.00  0.00    +0.000 C 
ATOM     17  F   UNL     1       0.302   2.002  18.411  0.00  0.00    +0.000 F 
ATOM     18  F   UNL     1       2.050   2.132  17.143  0.00  0.00    +0.000 F 
ATOM     19  F   UNL     1       2.246   1.395  19.173  0.00  0.00    +0.000 F 
ENDBRANCH  14  16
BRANCH   8  21
ATOM     20  C   UNL     1       1.639   2.775  21.947  0.00  0.00    +0.000 C 
ATOM     21  N   UNL     1       0.805   3.545  21.022  0.00  0.00    +0.000 N 
ATOM     22  H   UNL     1       0.119   4.114  21.508  0.00  0.00    +0.000 HD
ENDBRANCH   8  21
ENDBRANCH   1  11
BRANCH   4  23
ATOM     23  C   UNL     1      -1.008  10.972  22.656  0.00  0.00    +0.000 C 
ATOM     24  O   UNL     1      -1.814  10.370  23.363  0.00  0.00    +0.000 OA
ATOM     25  N   UNL     1      -0.996  12.368  22.563  0.00  0.00    +0.000 N 
ATOM     26  C   UNL     1      -0.163  13.209  21.689  0.00  0.00    +0.000 C 
ATOM     27  C   UNL     1       0.258  14.521  22.360  0.00  0.00    +0.000 C 
ATOM     28  O   UNL     1      -0.860  15.211  22.928  0.00  0.00    +0.000 OA
ATOM     29  C   UNL     1      -1.509  14.380  23.901  0.00  0.00    +0.000 C 
ATOM     30  C   UNL     1      -2.063  13.112  23.246  0.00  0.00    +0.000 C 
ENDBRANCH   4  23
BRANCH   7  31
ATOM     31  O   UNL     1       0.902   9.232  18.400  0.00  0.00    +0.000 OA
ATOM     32  C   UNL     1       1.772  10.142  17.739  0.00  0.00    +0.000 C 
ENDBRANCH   7  31
TORSDOF 5
ENDMDL
MODEL 9
REMARK VINA RESULT:      -6.8      3.584      9.390
REMARK  Name = 
REMARK  7 active torsions:
REMARK  status: ('A' for Active; 'I' for Inactive)
REMARK    1  A    between atoms: C_1  and  N_2
REMARK    2  A    between atoms: N_2  and  C_3
REMARK    3  A    between atoms: N_6  and  C_7
REMARK    4  A    between atoms: C_10  and  C_11
REMARK    5  A    between atoms: C_21  and  O_22
REMARK    6  A    between atoms: O_22  and  C_23
REMARK    7  A    between atoms: C_26  and  C_27
REMARK                            x       y       z     vdW  Elec       q    Type
REMARK                         _______ _______ _______ _____ _____    ______ ____
ROOT
ATOM      1  C   UNL     1      -0.583  11.869  19.154  0.00  0.00    +0.000 A 
ATOM      2  C   UNL     1      -0.435  12.476  20.410  0.00  0.00    +0.000 A 
ATOM      3  C   UNL     1      -1.523  12.964  21.114  0.00  0.00    +0.000 A 
ATOM      4  C   UNL     1      -2.811  12.772  20.624  0.00  0.00    +0.000 A 
ATOM      5  C   UNL     1      -2.979  12.222  19.343  0.00  0.00    +0.000 A 
ATOM      6  F   UNL     1      -4.219  12.133  18.832  0.00  0.00    +0.000 F 
ATOM      7  C   UNL     1      -1.875  11.765  18.601  0.00  0.00    +0.000 A 
ENDROOT
BRANCH   1  11
ATOM      8  C   UNL     1       1.696   8.358  19.926  0.00  0.00    +0.000 A 
ATOM      9  N   UNL     1       1.203   9.599  19.769  0.00  0.00    +0.000 NA
ATOM     10  C   UNL     1       1.186  10.187  18.565  0.00  0.00    +0.000 A 
ATOM     11  N   UNL     1       0.545  11.416  18.433  0.00  0.00    +0.000 N 
ATOM     12  N   UNL     1       1.712   9.622  17.481  0.00  0.00    +0.000 NA
ATOM     13  C   UNL     1       2.217   8.379  17.645  0.00  0.00    +0.000 A 
ATOM     14  C   UNL     1       2.218   7.695  18.853  0.00  0.00    +0.000 A 
ATOM     15  H   UNL     1       0.663  11.818  17.513  0.00  0.00    +0.000 HD
BRANCH  14  16
ATOM     16  C   UNL     1       2.761   6.309  18.883  0.00  0.00    +0.000 C 
ATOM     17  F   UNL     1       3.216   5.834  17.690  0.00  0.00    +0.000 F 
ATOM     18  F   UNL     1       3.831   6.207  19.730  0.00  0.00    +0.000 F 
ATOM     19  F   UNL     1       1.859   5.396  19.332  0.00  0.00    +0.000 F 
ENDBRANCH  14  16
BRANCH   8  21
ATOM     20  C   UNL     1       1.125   8.679  22.254  0.00  0.00    +0.000 C 
ATOM     21  N   UNL     1       1.695   7.820  21.214  0.00  0.00    +0.000 N 
ATOM     22  H   UNL     1       1.302   6.884  21.233  0.00  0.00    +0.000 HD
ENDBRANCH   8  21
ENDBRANCH   1  11
BRANCH   4  23
ATOM     23  C   UNL     1      -3.998  13.174  21.424  0.00  0.00    +0.000 C 
ATOM     24  O   UNL     1      -4.632  12.280  21.982  0.00  0.00    +0.000 OA
ATOM     25  N   UNL     1      -4.355  14.523  21.537  0.00  0.00    +0.000 N 
ATOM     26  C   UNL     1      -3.754  15.677  20.850  0.00  0.00    +0.000 C 
ATOM     27  C   UNL     1      -3.711  16.930  21.730  0.00  0.00    +0.000 C 
ATOM     28  O   UNL     1      -4.983  17.210  22.322  0.00  0.00    +0.000 OA
ATOM     29  C   UNL     1      -5.411  16.097  23.120  0.00  0.00    +0.000 C 
ATOM     30  C   UNL     1      -5.595  14.848  22.252  0.00  0.00    +0.000 C 
ENDBRANCH   4  23
BRANCH   7  31
ATOM     31  O   UNL     1      -1.926  11.231  17.335  0.00  0.00    +0.000 OA
ATOM     32  C   UNL     1      -2.394   9.893  17.213  0.00  0.00    +0.000 C 
ENDBRANCH   7  31
TORSDOF 5
ENDMDL
