MODEL 1
REMARK VINA RESULT:      -8.6      0.000      0.000
REMARK  Name = 
REMARK  8 active torsions:
REMARK  status: ('A' for Active; 'I' for Inactive)
REMARK    1  A    between atoms: C_1  and  O_2
REMARK    2  A    between atoms: O_2  and  C_3
REMARK    3  A    between atoms: C_8  and  C_9
REMARK    4  A    between atoms: C_12  and  C_13
REMARK    5  A    between atoms: C_17  and  C_18
REMARK    6  A    between atoms: C_22  and  C_23
REMARK    7  A    between atoms: C_23  and  N_24
REMARK    8  A    between atoms: C_25  and  C_26
REMARK                            x       y       z     vdW  Elec       q    Type
REMARK                         _______ _______ _______ _____ _____    ______ ____
ROOT
ATOM      1  C   UNL     1       1.874   7.400  19.904  0.00  0.00    +0.000 A 
ATOM      2  C   UNL     1       2.769   6.725  19.108  0.00  0.00    +0.000 A 
ATOM      3  N   UNL     1       2.840   5.446  19.605  0.00  0.00    +0.000 N 
ATOM      4  C   UNL     1       3.645   4.372  19.218  0.00  0.00    +0.000 A 
ATOM      5  C   UNL     1       3.563   3.199  19.892  0.00  0.00    +0.000 A 
ATOM      6  C   UNL     1       2.515   3.190  20.993  0.00  0.00    +0.000 A 
ATOM      7  C   UNL     1       2.297   1.925  21.803  0.00  0.00    +0.000 C 
ATOM      8  N   UNL     1       1.769   4.202  21.335  0.00  0.00    +0.000 NA
ATOM      9  C   UNL     1       1.934   5.365  20.650  0.00  0.00    +0.000 A 
ATOM     10  N   UNL     1       1.345   6.529  20.837  0.00  0.00    +0.000 NA
ENDROOT
BRANCH   4  11
ATOM     11  C   UNL     1       4.577   4.536  18.090  0.00  0.00    +0.000 A 
ATOM     12  C   UNL     1       4.205   4.151  16.799  0.00  0.00    +0.000 A 
ATOM     13  F   UNL     1       2.995   3.617  16.577  0.00  0.00    +0.000 F 
ATOM     14  C   UNL     1       5.078   4.299  15.721  0.00  0.00    +0.000 A 
ATOM     15  C   UNL     1       6.353   4.837  15.919  0.00  0.00    +0.000 A 
ATOM     16  C   UNL     1       7.305   5.009  14.774  0.00  0.00    +0.000 C 
ATOM     17  C   UNL     1       6.730   5.229  17.212  0.00  0.00    +0.000 A 
ATOM     18  C   UNL     1       5.849   5.074  18.276  0.00  0.00    +0.000 A 
ATOM     19  F   UNL     1       6.248   5.448  19.501  0.00  0.00    +0.000 F 
ENDBRANCH   4  11
BRANCH   1  25
ATOM     20  C   UNL     1       1.147   9.613  20.958  0.00  0.00    +0.000 A 
ATOM     21  C   UNL     1       0.819  10.967  20.774  0.00  0.00    +0.000 A 
ATOM     22  C   UNL     1       0.786  11.533  19.495  0.00  0.00    +0.000 A 
ATOM     23  C   UNL     1       1.100  10.755  18.394  0.00  0.00    +0.000 A 
ATOM     24  C   UNL     1       1.460   9.416  18.566  0.00  0.00    +0.000 A 
ATOM     25  C   UNL     1       1.501   8.817  19.843  0.00  0.00    +0.000 A 
BRANCH  20  27
ATOM     26  C   UNL     1       0.123   9.449  23.089  0.00  0.00    +0.000 C 
ATOM     27  O   UNL     1       1.178   9.061  22.215  0.00  0.00    +0.000 OA
ENDBRANCH  20  27
ENDBRANCH   1  25
BRANCH   5  28
ATOM     28  C   UNL     1       4.361   1.960  19.585  0.00  0.00    +0.000 C 
BRANCH  28  29
ATOM     29  N   UNL     1       3.739   1.124  18.568  0.00  0.00    +0.000 NA
ATOM     30  H   UNL     1       2.735   1.058  18.747  0.00  0.00    +0.000 HD
ATOM     31  H   UNL     1       4.093   0.171  18.659  0.00  0.00    +0.000 HD
ENDBRANCH  28  29
ENDBRANCH   5  28
TORSDOF 5
ENDMDL
MODEL 2
REMARK VINA RESULT:      -8.6      0.026      1.532
REMARK  Name = 
REMARK  8 active torsions:
REMARK  status: ('A' for Active; 'I' for Inactive)
REMARK    1  A    between atoms: C_1  and  O_2
REMARK    2  A    between atoms: O_2  and  C_3
REMARK    3  A    between atoms: C_8  and  C_9
REMARK    4  A    between atoms: C_12  and  C_13
REMARK    5  A    between atoms: C_17  and  C_18
REMARK    6  A    between atoms: C_22  and  C_23
REMARK    7  A    between atoms: C_23  and  N_24
REMARK    8  A    between atoms: C_25  and  C_26
REMARK                            x       y       z     vdW  Elec       q    Type
REMARK                         _______ _______ _______ _____ _____    ______ ____
ROOT
ATOM      1  C   UNL     1       1.886   7.387  19.896  0.00  0.00    +0.000 A 
ATOM      2  C   UNL     1       2.778   6.710  19.098  0.00  0.00    +0.000 A 
ATOM      3  N   UNL     1       2.853   5.434  19.602  0.00  0.00    +0.000 N 
ATOM      4  C   UNL     1       3.659   4.359  19.216  0.00  0.00    +0.000 A 
ATOM      5  C   UNL     1       3.583   3.189  19.897  0.00  0.00    +0.000 A 
ATOM      6  C   UNL     1       2.541   3.185  21.004  0.00  0.00    +0.000 A 
ATOM      7  C   UNL     1       2.330   1.924  21.823  0.00  0.00    +0.000 C 
ATOM      8  N   UNL     1       1.794   4.197  21.345  0.00  0.00    +0.000 NA
ATOM      9  C   UNL     1       1.954   5.357  20.652  0.00  0.00    +0.000 A 
ATOM     10  N   UNL     1       1.363   6.520  20.836  0.00  0.00    +0.000 NA
ENDROOT
BRANCH   4  11
ATOM     11  C   UNL     1       4.585   4.518  18.082  0.00  0.00    +0.000 A 
ATOM     12  C   UNL     1       5.862   5.050  18.278  0.00  0.00    +0.000 A 
ATOM     13  F   UNL     1       6.255   5.431  19.502  0.00  0.00    +0.000 F 
ATOM     14  C   UNL     1       6.749   5.209  17.213  0.00  0.00    +0.000 A 
ATOM     15  C   UNL     1       6.368   4.837  15.920  0.00  0.00    +0.000 A 
ATOM     16  C   UNL     1       7.307   4.995  14.762  0.00  0.00    +0.000 C 
ATOM     17  C   UNL     1       5.088   4.299  15.720  0.00  0.00    +0.000 A 
ATOM     18  C   UNL     1       4.215   4.148  16.790  0.00  0.00    +0.000 A 
ATOM     19  F   UNL     1       2.995   3.642  16.559  0.00  0.00    +0.000 F 
ENDBRANCH   4  11
BRANCH   1  25
ATOM     20  C   UNL     1       1.158   9.604  20.940  0.00  0.00    +0.000 A 
ATOM     21  C   UNL     1       0.827  10.957  20.751  0.00  0.00    +0.000 A 
ATOM     22  C   UNL     1       0.788  11.516  19.470  0.00  0.00    +0.000 A 
ATOM     23  C   UNL     1       1.098  10.732  18.371  0.00  0.00    +0.000 A 
ATOM     24  C   UNL     1       1.462   9.395  18.549  0.00  0.00    +0.000 A 
ATOM     25  C   UNL     1       1.510   8.803  19.828  0.00  0.00    +0.000 A 
BRANCH  20  27
ATOM     26  C   UNL     1       0.120   9.415  23.063  0.00  0.00    +0.000 C 
ATOM     27  O   UNL     1       1.196   9.059  22.201  0.00  0.00    +0.000 OA
ENDBRANCH  20  27
ENDBRANCH   1  25
BRANCH   5  28
ATOM     28  C   UNL     1       4.382   1.951  19.594  0.00  0.00    +0.000 C 
BRANCH  28  29
ATOM     29  N   UNL     1       3.776   1.127  18.555  0.00  0.00    +0.000 NA
ATOM     30  H   UNL     1       3.467   0.241  18.960  0.00  0.00    +0.000 HD
ATOM     31  H   UNL     1       4.490   0.878  17.870  0.00  0.00    +0.000 HD
ENDBRANCH  28  29
ENDBRANCH   5  28
TORSDOF 5
ENDMDL
MODEL 3
REMARK VINA RESULT:      -7.4      0.985      1.755
REMARK  Name = 
REMARK  8 active torsions:
REMARK  status: ('A' for Active; 'I' for Inactive)
REMARK    1  A    between atoms: C_1  and  O_2
REMARK    2  A    between atoms: O_2  and  C_3
REMARK    3  A    between atoms: C_8  and  C_9
REMARK    4  A    between atoms: C_12  and  C_13
REMARK    5  A    between atoms: C_17  and  C_18
REMARK    6  A    between atoms: C_22  and  C_23
REMARK    7  A    between atoms: C_23  and  N_24
REMARK    8  A    between atoms: C_25  and  C_26
REMARK                            x       y       z     vdW  Elec       q    Type
REMARK                         _______ _______ _______ _____ _____    ______ ____
ROOT
ATOM      1  C   UNL     1       1.821   7.065  20.201  0.00  0.00    +0.000 A 
ATOM      2  C   UNL     1       2.722   6.457  19.359  0.00  0.00    +0.000 A 
ATOM      3  N   UNL     1       2.847   5.161  19.798  0.00  0.00    +0.000 N 
ATOM      4  C   UNL     1       3.680   4.133  19.349  0.00  0.00    +0.000 A 
ATOM      5  C   UNL     1       3.652   2.930  19.972  0.00  0.00    +0.000 A 
ATOM      6  C   UNL     1       2.627   2.837  21.091  0.00  0.00    +0.000 A 
ATOM      7  C   UNL     1       2.470   1.532  21.849  0.00  0.00    +0.000 C 
ATOM      8  N   UNL     1       1.854   3.807  21.491  0.00  0.00    +0.000 NA
ATOM      9  C   UNL     1       1.966   5.003  20.855  0.00  0.00    +0.000 A 
ATOM     10  N   UNL     1       1.341   6.136  21.104  0.00  0.00    +0.000 NA
ENDROOT
BRANCH   4  11
ATOM     11  C   UNL     1       4.583   4.379  18.212  0.00  0.00    +0.000 A 
ATOM     12  C   UNL     1       4.184   4.070  16.909  0.00  0.00    +0.000 A 
ATOM     13  F   UNL     1       2.975   3.536  16.682  0.00  0.00    +0.000 F 
ATOM     14  C   UNL     1       5.029   4.295  15.822  0.00  0.00    +0.000 A 
ATOM     15  C   UNL     1       6.303   4.836  16.023  0.00  0.00    +0.000 A 
ATOM     16  C   UNL     1       7.226   5.090  14.869  0.00  0.00    +0.000 C 
ATOM     17  C   UNL     1       6.706   5.152  17.329  0.00  0.00    +0.000 A 
ATOM     18  C   UNL     1       5.853   4.921  18.401  0.00  0.00    +0.000 A 
ATOM     19  F   UNL     1       6.277   5.223  19.638  0.00  0.00    +0.000 F 
ENDBRANCH   4  11
BRANCH   1  25
ATOM     20  C   UNL     1       1.276   9.287  19.061  0.00  0.00    +0.000 A 
ATOM     21  C   UNL     1       0.850  10.620  19.194  0.00  0.00    +0.000 A 
ATOM     22  C   UNL     1       0.593  11.171  20.453  0.00  0.00    +0.000 A 
ATOM     23  C   UNL     1       0.742  10.390  21.586  0.00  0.00    +0.000 A 
ATOM     24  C   UNL     1       1.132   9.054  21.465  0.00  0.00    +0.000 A 
ATOM     25  C   UNL     1       1.399   8.470  20.209  0.00  0.00    +0.000 A 
BRANCH  20  27
ATOM     26  C   UNL     1       2.830   8.983  17.296  0.00  0.00    +0.000 C 
ATOM     27  O   UNL     1       1.527   8.749  17.822  0.00  0.00    +0.000 OA
ENDBRANCH  20  27
ENDBRANCH   1  25
BRANCH   5  28
ATOM     28  C   UNL     1       4.486   1.735  19.596  0.00  0.00    +0.000 C 
BRANCH  28  29
ATOM     29  N   UNL     1       3.874   0.925  18.550  0.00  0.00    +0.000 NA
ATOM     30  H   UNL     1       4.577   0.305  18.145  0.00  0.00    +0.000 HD
ATOM     31  H   UNL     1       3.579   1.536  17.788  0.00  0.00    +0.000 HD
ENDBRANCH  28  29
ENDBRANCH   5  28
TORSDOF 5
ENDMDL
MODEL 4
REMARK VINA RESULT:      -7.4      0.986      2.330
REMARK  Name = 
REMARK  8 active torsions:
REMARK  status: ('A' for Active; 'I' for Inactive)
REMARK    1  A    between atoms: C_1  and  O_2
REMARK    2  A    between atoms: O_2  and  C_3
REMARK    3  A    between atoms: C_8  and  C_9
REMARK    4  A    between atoms: C_12  and  C_13
REMARK    5  A    between atoms: C_17  and  C_18
REMARK    6  A    between atoms: C_22  and  C_23
REMARK    7  A    between atoms: C_23  and  N_24
REMARK    8  A    between atoms: C_25  and  C_26
REMARK                            x       y       z     vdW  Elec       q    Type
REMARK                         _______ _______ _______ _____ _____    ______ ____
ROOT
ATOM      1  C   UNL     1       1.822   7.065  20.195  0.00  0.00    +0.000 A 
ATOM      2  C   UNL     1       2.720   6.455  19.351  0.00  0.00    +0.000 A 
ATOM      3  N   UNL     1       2.846   5.160  19.794  0.00  0.00    +0.000 N 
ATOM      4  C   UNL     1       3.678   4.131  19.344  0.00  0.00    +0.000 A 
ATOM      5  C   UNL     1       3.652   2.929  19.971  0.00  0.00    +0.000 A 
ATOM      6  C   UNL     1       2.630   2.839  21.094  0.00  0.00    +0.000 A 
ATOM      7  C   UNL     1       2.475   1.536  21.856  0.00  0.00    +0.000 C 
ATOM      8  N   UNL     1       1.859   3.810  21.494  0.00  0.00    +0.000 NA
ATOM      9  C   UNL     1       1.969   5.005  20.854  0.00  0.00    +0.000 A 
ATOM     10  N   UNL     1       1.344   6.139  21.102  0.00  0.00    +0.000 NA
ENDROOT
BRANCH   4  11
ATOM     11  C   UNL     1       4.577   4.373  18.203  0.00  0.00    +0.000 A 
ATOM     12  C   UNL     1       5.847   4.919  18.403  0.00  0.00    +0.000 A 
ATOM     13  F   UNL     1       6.257   5.240  19.640  0.00  0.00    +0.000 F 
ATOM     14  C   UNL     1       6.709   5.156  17.332  0.00  0.00    +0.000 A 
ATOM     15  C   UNL     1       6.309   4.849  16.028  0.00  0.00    +0.000 A 
ATOM     16  C   UNL     1       7.221   5.091  14.863  0.00  0.00    +0.000 C 
ATOM     17  C   UNL     1       5.036   4.296  15.823  0.00  0.00    +0.000 A 
ATOM     18  C   UNL     1       4.188   4.067  16.900  0.00  0.00    +0.000 A 
ATOM     19  F   UNL     1       2.974   3.549  16.664  0.00  0.00    +0.000 F 
ENDBRANCH   4  11
BRANCH   1  25
ATOM     20  C   UNL     1       1.277   9.285  19.050  0.00  0.00    +0.000 A 
ATOM     21  C   UNL     1       0.851  10.618  19.181  0.00  0.00    +0.000 A 
ATOM     22  C   UNL     1       0.594  11.172  20.440  0.00  0.00    +0.000 A 
ATOM     23  C   UNL     1       0.743  10.392  21.574  0.00  0.00    +0.000 A 
ATOM     24  C   UNL     1       1.133   9.056  21.455  0.00  0.00    +0.000 A 
ATOM     25  C   UNL     1       1.400   8.470  20.200  0.00  0.00    +0.000 A 
BRANCH  20  27
ATOM     26  C   UNL     1       2.835   8.965  17.293  0.00  0.00    +0.000 C 
ATOM     27  O   UNL     1       1.528   8.745  17.812  0.00  0.00    +0.000 OA
ENDBRANCH  20  27
ENDBRANCH   1  25
BRANCH   5  28
ATOM     28  C   UNL     1       4.484   1.733  19.596  0.00  0.00    +0.000 C 
BRANCH  28  29
ATOM     29  N   UNL     1       3.870   0.921  18.553  0.00  0.00    +0.000 NA
ATOM     30  H   UNL     1       3.020   1.381  18.219  0.00  0.00    +0.000 HD
ATOM     31  H   UNL     1       3.559   0.038  18.959  0.00  0.00    +0.000 HD
ENDBRANCH  28  29
ENDBRANCH   5  28
TORSDOF 5
ENDMDL
MODEL 5
REMARK VINA RESULT:      -6.6      5.537     10.771
REMARK  Name = 
REMARK  8 active torsions:
REMARK  status: ('A' for Active; 'I' for Inactive)
REMARK    1  A    between atoms: C_1  and  O_2
REMARK    2  A    between atoms: O_2  and  C_3
REMARK    3  A    between atoms: C_8  and  C_9
REMARK    4  A    between atoms: C_12  and  C_13
REMARK    5  A    between atoms: C_17  and  C_18
REMARK    6  A    between atoms: C_22  and  C_23
REMARK    7  A    between atoms: C_23  and  N_24
REMARK    8  A    between atoms: C_25  and  C_26
REMARK                            x       y       z     vdW  Elec       q    Type
REMARK                         _______ _______ _______ _____ _____    ______ ____
ROOT
ATOM      1  C   UNL     1       0.639  11.227  19.307  0.00  0.00    +0.000 A 
ATOM      2  C   UNL     1      -0.373  11.676  20.123  0.00  0.00    +0.000 A 
ATOM      3  N   UNL     1      -0.491  13.024  19.887  0.00  0.00    +0.000 N 
ATOM      4  C   UNL     1      -1.311  13.977  20.496  0.00  0.00    +0.000 A 
ATOM      5  C   UNL     1      -1.224  15.275  20.114  0.00  0.00    +0.000 A 
ATOM      6  C   UNL     1      -0.242  15.521  18.980  0.00  0.00    +0.000 A 
ATOM      7  C   UNL     1      -0.072  16.928  18.435  0.00  0.00    +0.000 C 
ATOM      8  N   UNL     1       0.511  14.616  18.422  0.00  0.00    +0.000 NA
ATOM      9  C   UNL     1       0.410  13.341  18.884  0.00  0.00    +0.000 A 
ATOM     10  N   UNL     1       1.090  12.272  18.523  0.00  0.00    +0.000 NA
ENDROOT
BRANCH   4  11
ATOM     11  C   UNL     1      -2.250  13.557  21.550  0.00  0.00    +0.000 A 
ATOM     12  C   UNL     1      -1.858  13.556  22.891  0.00  0.00    +0.000 A 
ATOM     13  F   UNL     1      -0.615  13.928  23.231  0.00  0.00    +0.000 F 
ATOM     14  C   UNL     1      -2.735  13.159  23.900  0.00  0.00    +0.000 A 
ATOM     15  C   UNL     1      -4.034  12.749  23.580  0.00  0.00    +0.000 A 
ATOM     16  C   UNL     1      -4.994  12.323  24.649  0.00  0.00    +0.000 C 
ATOM     17  C   UNL     1      -4.434  12.754  22.236  0.00  0.00    +0.000 A 
ATOM     18  C   UNL     1      -3.547  13.151  21.242  0.00  0.00    +0.000 A 
ATOM     19  F   UNL     1      -3.960  13.130  19.966  0.00  0.00    +0.000 F 
ENDBRANCH   4  11
BRANCH   1  25
ATOM     20  C   UNL     1       1.296   8.974  20.317  0.00  0.00    +0.000 A 
ATOM     21  C   UNL     1       1.854   7.698  20.120  0.00  0.00    +0.000 A 
ATOM     22  C   UNL     1       2.374   7.324  18.877  0.00  0.00    +0.000 A 
ATOM     23  C   UNL     1       2.323   8.214  17.818  0.00  0.00    +0.000 A 
ATOM     24  C   UNL     1       1.740   9.472  17.991  0.00  0.00    +0.000 A 
ATOM     25  C   UNL     1       1.208   9.878  19.233  0.00  0.00    +0.000 A 
BRANCH  20  27
ATOM     26  C   UNL     1      -0.359   8.611  21.975  0.00  0.00    +0.000 C 
ATOM     27  O   UNL     1       0.786   9.337  21.540  0.00  0.00    +0.000 OA
ENDBRANCH  20  27
ENDBRANCH   1  25
BRANCH   5  28
ATOM     28  C   UNL     1      -2.045  16.405  20.675  0.00  0.00    +0.000 C 
BRANCH  28  29
ATOM     29  N   UNL     1      -3.306  16.592  19.970  0.00  0.00    +0.000 NA
ATOM     30  H   UNL     1      -4.057  16.133  20.488  0.00  0.00    +0.000 HD
ATOM     31  H   UNL     1      -3.260  16.107  19.073  0.00  0.00    +0.000 HD
ENDBRANCH  28  29
ENDBRANCH   5  28
TORSDOF 5
ENDMDL
MODEL 6
REMARK VINA RESULT:      -6.6      1.475      1.714
REMARK  Name = 
REMARK  8 active torsions:
REMARK  status: ('A' for Active; 'I' for Inactive)
REMARK    1  A    between atoms: C_1  and  O_2
REMARK    2  A    between atoms: O_2  and  C_3
REMARK    3  A    between atoms: C_8  and  C_9
REMARK    4  A    between atoms: C_12  and  C_13
REMARK    5  A    between atoms: C_17  and  C_18
REMARK    6  A    between atoms: C_22  and  C_23
REMARK    7  A    between atoms: C_23  and  N_24
REMARK    8  A    between atoms: C_25  and  C_26
REMARK                            x       y       z     vdW  Elec       q    Type
REMARK                         _______ _______ _______ _____ _____    ______ ____
ROOT
ATOM      1  C   UNL     1       1.948   8.459  19.001  0.00  0.00    +0.000 A 
ATOM      2  C   UNL     1       2.796   7.616  18.323  0.00  0.00    +0.000 A 
ATOM      3  N   UNL     1       2.813   6.437  19.029  0.00  0.00    +0.000 N 
ATOM      4  C   UNL     1       3.559   5.273  18.822  0.00  0.00    +0.000 A 
ATOM      5  C   UNL     1       3.432   4.236  19.685  0.00  0.00    +0.000 A 
ATOM      6  C   UNL     1       2.401   4.466  20.780  0.00  0.00    +0.000 A 
ATOM      7  C   UNL     1       2.136   3.368  21.794  0.00  0.00    +0.000 C 
ATOM      8  N   UNL     1       1.711   5.557  20.951  0.00  0.00    +0.000 NA
ATOM      9  C   UNL     1       1.921   6.578  20.078  0.00  0.00    +0.000 A 
ATOM     10  N   UNL     1       1.392   7.785  20.071  0.00  0.00    +0.000 NA
ENDROOT
BRANCH   4  11
ATOM     11  C   UNL     1       4.480   5.198  17.675  0.00  0.00    +0.000 A 
ATOM     12  C   UNL     1       4.115   4.511  16.515  0.00  0.00    +0.000 A 
ATOM     13  F   UNL     1       2.922   3.903  16.438  0.00  0.00    +0.000 F 
ATOM     14  C   UNL     1       4.977   4.430  15.421  0.00  0.00    +0.000 A 
ATOM     15  C   UNL     1       6.235   5.039  15.473  0.00  0.00    +0.000 A 
ATOM     16  C   UNL     1       7.176   4.967  14.308  0.00  0.00    +0.000 C 
ATOM     17  C   UNL     1       6.605   5.733  16.634  0.00  0.00    +0.000 A 
ATOM     18  C   UNL     1       5.735   5.804  17.715  0.00  0.00    +0.000 A 
ATOM     19  F   UNL     1       6.127   6.466  18.814  0.00  0.00    +0.000 F 
ENDBRANCH   4  11
BRANCH   1  25
ATOM     20  C   UNL     1       0.362  10.454  18.802  0.00  0.00    +0.000 A 
ATOM     21  C   UNL     1       0.196  11.817  18.500  0.00  0.00    +0.000 A 
ATOM     22  C   UNL     1       1.271  12.591  18.053  0.00  0.00    +0.000 A 
ATOM     23  C   UNL     1       2.522  12.015  17.922  0.00  0.00    +0.000 A 
ATOM     24  C   UNL     1       2.708  10.669  18.250  0.00  0.00    +0.000 A 
ATOM     25  C   UNL     1       1.643   9.863  18.703  0.00  0.00    +0.000 A 
BRANCH  20  27
ATOM     26  C   UNL     1      -1.956   9.983  18.641  0.00  0.00    +0.000 C 
ATOM     27  O   UNL     1      -0.697   9.697  19.241  0.00  0.00    +0.000 OA
ENDBRANCH  20  27
ENDBRANCH   1  25
BRANCH   5  28
ATOM     28  C   UNL     1       4.164   2.925  19.586  0.00  0.00    +0.000 C 
BRANCH  28  29
ATOM     29  N   UNL     1       3.392   1.896  18.901  0.00  0.00    +0.000 NA
ATOM     30  H   UNL     1       2.762   2.335  18.227  0.00  0.00    +0.000 HD
ATOM     31  H   UNL     1       2.784   1.432  19.578  0.00  0.00    +0.000 HD
ENDBRANCH  28  29
ENDBRANCH   5  28
TORSDOF 5
ENDMDL
MODEL 7
REMARK VINA RESULT:      -6.6      5.579     10.706
REMARK  Name = 
REMARK  8 active torsions:
REMARK  status: ('A' for Active; 'I' for Inactive)
REMARK    1  A    between atoms: C_1  and  O_2
REMARK    2  A    between atoms: O_2  and  C_3
REMARK    3  A    between atoms: C_8  and  C_9
REMARK    4  A    between atoms: C_12  and  C_13
REMARK    5  A    between atoms: C_17  and  C_18
REMARK    6  A    between atoms: C_22  and  C_23
REMARK    7  A    between atoms: C_23  and  N_24
REMARK    8  A    between atoms: C_25  and  C_26
REMARK                            x       y       z     vdW  Elec       q    Type
REMARK                         _______ _______ _______ _____ _____    ______ ____
ROOT
ATOM      1  C   UNL     1       0.594  11.272  19.329  0.00  0.00    +0.000 A 
ATOM      2  C   UNL     1      -0.417  11.710  20.153  0.00  0.00    +0.000 A 
ATOM      3  N   UNL     1      -0.542  13.059  19.926  0.00  0.00    +0.000 N 
ATOM      4  C   UNL     1      -1.366  14.004  20.545  0.00  0.00    +0.000 A 
ATOM      5  C   UNL     1      -1.287  15.305  20.171  0.00  0.00    +0.000 A 
ATOM      6  C   UNL     1      -0.309  15.564  19.036  0.00  0.00    +0.000 A 
ATOM      7  C   UNL     1      -0.149  16.975  18.499  0.00  0.00    +0.000 C 
ATOM      8  N   UNL     1       0.446  14.667  18.468  0.00  0.00    +0.000 NA
ATOM      9  C   UNL     1       0.352  13.388  18.922  0.00  0.00    +0.000 A 
ATOM     10  N   UNL     1       1.037  12.325  18.551  0.00  0.00    +0.000 NA
ENDROOT
BRANCH   4  11
ATOM     11  C   UNL     1      -2.299  13.572  21.599  0.00  0.00    +0.000 A 
ATOM     12  C   UNL     1      -3.595  13.164  21.277  0.00  0.00    +0.000 A 
ATOM     13  F   UNL     1      -4.008  13.172  20.001  0.00  0.00    +0.000 F 
ATOM     14  C   UNL     1      -4.490  12.753  22.265  0.00  0.00    +0.000 A 
ATOM     15  C   UNL     1      -4.100  12.748  23.608  0.00  0.00    +0.000 A 
ATOM     16  C   UNL     1      -5.044  12.307  24.685  0.00  0.00    +0.000 C 
ATOM     17  C   UNL     1      -2.797  13.153  23.936  0.00  0.00    +0.000 A 
ATOM     18  C   UNL     1      -1.918  13.560  22.940  0.00  0.00    +0.000 A 
ATOM     19  F   UNL     1      -0.684  13.953  23.292  0.00  0.00    +0.000 F 
ENDBRANCH   4  11
BRANCH   1  25
ATOM     20  C   UNL     1       1.281   9.021  20.326  0.00  0.00    +0.000 A 
ATOM     21  C   UNL     1       1.843   7.749  20.118  0.00  0.00    +0.000 A 
ATOM     22  C   UNL     1       2.344   7.380  18.866  0.00  0.00    +0.000 A 
ATOM     23  C   UNL     1       2.271   8.271  17.809  0.00  0.00    +0.000 A 
ATOM     24  C   UNL     1       1.684   9.525  17.994  0.00  0.00    +0.000 A 
ATOM     25  C   UNL     1       1.170   9.927  19.245  0.00  0.00    +0.000 A 
BRANCH  20  27
ATOM     26  C   UNL     1      -0.334   8.635  22.018  0.00  0.00    +0.000 C 
ATOM     27  O   UNL     1       0.789   9.380  21.557  0.00  0.00    +0.000 OA
ENDBRANCH  20  27
ENDBRANCH   1  25
BRANCH   5  28
ATOM     28  C   UNL     1      -2.111  16.427  20.743  0.00  0.00    +0.000 C 
BRANCH  28  29
ATOM     29  N   UNL     1      -3.363  16.631  20.026  0.00  0.00    +0.000 NA
ATOM     30  H   UNL     1      -3.170  16.740  19.028  0.00  0.00    +0.000 HD
ATOM     31  H   UNL     1      -3.773  17.518  20.321  0.00  0.00    +0.000 HD
ENDBRANCH  28  29
ENDBRANCH   5  28
TORSDOF 5
ENDMDL
MODEL 8
REMARK VINA RESULT:      -6.6      8.869     10.873
REMARK  Name = 
REMARK  8 active torsions:
REMARK  status: ('A' for Active; 'I' for Inactive)
REMARK    1  A    between atoms: C_1  and  O_2
REMARK    2  A    between atoms: O_2  and  C_3
REMARK    3  A    between atoms: C_8  and  C_9
REMARK    4  A    between atoms: C_12  and  C_13
REMARK    5  A    between atoms: C_17  and  C_18
REMARK    6  A    between atoms: C_22  and  C_23
REMARK    7  A    between atoms: C_23  and  N_24
REMARK    8  A    between atoms: C_25  and  C_26
REMARK                            x       y       z     vdW  Elec       q    Type
REMARK                         _______ _______ _______ _____ _____    ______ ____
ROOT
ATOM      1  C   UNL     1       7.274  15.944  20.674  0.00  0.00    +0.000 A 
ATOM      2  C   UNL     1       7.735  14.733  20.213  0.00  0.00    +0.000 A 
ATOM      3  N   UNL     1       8.898  14.997  19.532  0.00  0.00    +0.000 N 
ATOM      4  C   UNL     1       9.733  14.140  18.809  0.00  0.00    +0.000 A 
ATOM      5  C   UNL     1      10.824  14.644  18.181  0.00  0.00    +0.000 A 
ATOM      6  C   UNL     1      11.035  16.133  18.408  0.00  0.00    +0.000 A 
ATOM      7  C   UNL     1      12.240  16.816  17.787  0.00  0.00    +0.000 C 
ATOM      8  N   UNL     1      10.247  16.913  19.091  0.00  0.00    +0.000 NA
ATOM      9  C   UNL     1       9.144  16.354  19.656  0.00  0.00    +0.000 A 
ATOM     10  N   UNL     1       8.180  16.933  20.342  0.00  0.00    +0.000 NA
ENDROOT
BRANCH   4  11
ATOM     11  C   UNL     1       9.408  12.706  18.732  0.00  0.00    +0.000 A 
ATOM     12  C   UNL     1       9.956  11.804  19.647  0.00  0.00    +0.000 A 
ATOM     13  F   UNL     1      10.795  12.235  20.600  0.00  0.00    +0.000 F 
ATOM     14  C   UNL     1       9.658  10.442  19.586  0.00  0.00    +0.000 A 
ATOM     15  C   UNL     1       8.800   9.955  18.595  0.00  0.00    +0.000 A 
ATOM     16  C   UNL     1       8.463   8.497  18.514  0.00  0.00    +0.000 C 
ATOM     17  C   UNL     1       8.244  10.858  17.677  0.00  0.00    +0.000 A 
ATOM     18  C   UNL     1       8.551  12.211  17.750  0.00  0.00    +0.000 A 
ATOM     19  F   UNL     1       8.011  13.044  16.848  0.00  0.00    +0.000 F 
ENDBRANCH   4  11
BRANCH   1  25
ATOM     20  C   UNL     1       4.943  16.971  20.883  0.00  0.00    +0.000 A 
ATOM     21  C   UNL     1       3.791  17.159  21.666  0.00  0.00    +0.000 A 
ATOM     22  C   UNL     1       3.717  16.658  22.970  0.00  0.00    +0.000 A 
ATOM     23  C   UNL     1       4.786  15.949  23.492  0.00  0.00    +0.000 A 
ATOM     24  C   UNL     1       5.923  15.726  22.712  0.00  0.00    +0.000 A 
ATOM     25  C   UNL     1       6.027  16.220  21.394  0.00  0.00    +0.000 A 
BRANCH  20  27
ATOM     26  C   UNL     1       4.466  16.630  18.586  0.00  0.00    +0.000 C 
ATOM     27  O   UNL     1       5.011  17.465  19.602  0.00  0.00    +0.000 OA
ENDBRANCH  20  27
ENDBRANCH   1  25
BRANCH   5  28
ATOM     28  C   UNL     1      11.811  13.845  17.374  0.00  0.00    +0.000 C 
BRANCH  28  29
ATOM     29  N   UNL     1      11.456  13.766  15.963  0.00  0.00    +0.000 NA
ATOM     30  H   UNL     1      10.482  14.049  15.840  0.00  0.00    +0.000 HD
ATOM     31  H   UNL     1      11.495  12.791  15.665  0.00  0.00    +0.000 HD
ENDBRANCH  28  29
ENDBRANCH   5  28
TORSDOF 5
ENDMDL
MODEL 9
REMARK VINA RESULT:      -6.5      1.475      2.284
REMARK  Name = 
REMARK  8 active torsions:
REMARK  status: ('A' for Active; 'I' for Inactive)
REMARK    1  A    between atoms: C_1  and  O_2
REMARK    2  A    between atoms: O_2  and  C_3
REMARK    3  A    between atoms: C_8  and  C_9
REMARK    4  A    between atoms: C_12  and  C_13
REMARK    5  A    between atoms: C_17  and  C_18
REMARK    6  A    between atoms: C_22  and  C_23
REMARK    7  A    between atoms: C_23  and  N_24
REMARK    8  A    between atoms: C_25  and  C_26
REMARK                            x       y       z     vdW  Elec       q    Type
REMARK                         _______ _______ _______ _____ _____    ______ ____
ROOT
ATOM      1  C   UNL     1       1.938   8.448  18.996  0.00  0.00    +0.000 A 
ATOM      2  C   UNL     1       2.783   7.603  18.315  0.00  0.00    +0.000 A 
ATOM      3  N   UNL     1       2.801   6.425  19.021  0.00  0.00    +0.000 N 
ATOM      4  C   UNL     1       3.545   5.260  18.812  0.00  0.00    +0.000 A 
ATOM      5  C   UNL     1       3.420   4.224  19.676  0.00  0.00    +0.000 A 
ATOM      6  C   UNL     1       2.395   4.455  20.775  0.00  0.00    +0.000 A 
ATOM      7  C   UNL     1       2.133   3.358  21.791  0.00  0.00    +0.000 C 
ATOM      8  N   UNL     1       1.707   5.547  20.949  0.00  0.00    +0.000 NA
ATOM      9  C   UNL     1       1.915   6.568  20.075  0.00  0.00    +0.000 A 
ATOM     10  N   UNL     1       1.386   7.775  20.070  0.00  0.00    +0.000 NA
ENDROOT
BRANCH   4  11
ATOM     11  C   UNL     1       4.461   5.184  17.661  0.00  0.00    +0.000 A 
ATOM     12  C   UNL     1       5.707   5.814  17.702  0.00  0.00    +0.000 A 
ATOM     13  F   UNL     1       6.078   6.507  18.789  0.00  0.00    +0.000 F 
ATOM     14  C   UNL     1       6.585   5.752  16.619  0.00  0.00    +0.000 A 
ATOM     15  C   UNL     1       6.224   5.052  15.463  0.00  0.00    +0.000 A 
ATOM     16  C   UNL     1       7.154   4.969  14.290  0.00  0.00    +0.000 C 
ATOM     17  C   UNL     1       4.976   4.413  15.420  0.00  0.00    +0.000 A 
ATOM     18  C   UNL     1       4.113   4.486  16.506  0.00  0.00    +0.000 A 
ATOM     19  F   UNL     1       2.922   3.874  16.424  0.00  0.00    +0.000 F 
ENDBRANCH   4  11
BRANCH   1  25
ATOM     20  C   UNL     1       0.354  10.445  18.806  0.00  0.00    +0.000 A 
ATOM     21  C   UNL     1       0.189  11.808  18.505  0.00  0.00    +0.000 A 
ATOM     22  C   UNL     1       1.262  12.581  18.050  0.00  0.00    +0.000 A 
ATOM     23  C   UNL     1       2.512  12.002  17.911  0.00  0.00    +0.000 A 
ATOM     24  C   UNL     1       2.697  10.657  18.239  0.00  0.00    +0.000 A 
ATOM     25  C   UNL     1       1.634   9.852  18.700  0.00  0.00    +0.000 A 
BRANCH  20  27
ATOM     26  C   UNL     1      -1.968   9.988  18.672  0.00  0.00    +0.000 C 
ATOM     27  O   UNL     1      -0.703   9.690  19.254  0.00  0.00    +0.000 OA
ENDBRANCH  20  27
ENDBRANCH   1  25
BRANCH   5  28
ATOM     28  C   UNL     1       4.151   2.912  19.574  0.00  0.00    +0.000 C 
BRANCH  28  29
ATOM     29  N   UNL     1       3.382   1.889  18.877  0.00  0.00    +0.000 NA
ATOM     30  H   UNL     1       3.716   1.808  17.915  0.00  0.00    +0.000 HD
ATOM     31  H   UNL     1       2.412   2.197  18.802  0.00  0.00    +0.000 HD
ENDBRANCH  28  29
ENDBRANCH   5  28
TORSDOF 5
ENDMDL
