MODEL 1
REMARK VINA RESULT:      -8.7      0.000      0.000
REMARK  Name = 
REMARK  4 active torsions:
REMARK  status: ('A' for Active; 'I' for Inactive)
REMARK    1  A    between atoms: C_1  and  N_2
REMARK    2  A    between atoms: C_4  and  C_5
REMARK    3  A    between atoms: C_15  and  C_16
REMARK    4  A    between atoms: C_17  and  C_18
REMARK                            x       y       z     vdW  Elec       q    Type
REMARK                         _______ _______ _______ _____ _____    ______ ____
ROOT
ATOM      1  C   UNL     1       8.520   5.594  19.924  0.00  0.00    +0.000 C 
ATOM      2  N   UNL     1       7.630   6.055  18.836  0.00  0.00    +0.000 N 
ATOM      3  C   UNL     1       6.689   5.186  18.381  0.00  0.00    +0.000 A 
ATOM      4  C   UNL     1       5.814   5.532  17.356  0.00  0.00    +0.000 A 
ATOM      5  C   UNL     1       5.880   6.807  16.819  0.00  0.00    +0.000 A 
ATOM      6  C   UNL     1       6.857   7.685  17.274  0.00  0.00    +0.000 A 
ATOM      7  C   UNL     1       7.743   7.311  18.300  0.00  0.00    +0.000 A 
ENDROOT
BRANCH   4   8
ATOM      8  C   UNL     1       4.764   4.553  16.998  0.00  0.00    +0.000 C 
ATOM      9  O   UNL     1       4.759   4.196  15.824  0.00  0.00    +0.000 OA
ATOM     10  N   UNL     1       3.882   4.080  17.962  0.00  0.00    +0.000 N 
ATOM     11  C   UNL     1       3.060   2.906  17.648  0.00  0.00    +0.000 C 
ATOM     12  C   UNL     1       1.571   3.212  17.780  0.00  0.00    +0.000 C 
ATOM     13  C   UNL     1       1.249   3.822  19.143  0.00  0.00    +0.000 C 
ATOM     14  C   UNL     1       2.122   5.044  19.401  0.00  0.00    +0.000 C 
ATOM     15  C   UNL     1       3.600   4.702  19.260  0.00  0.00    +0.000 C 
ENDBRANCH   4   8
BRANCH   7  16
ATOM     16  C   UNL     1       8.666   8.304  18.880  0.00  0.00    +0.000 C 
ATOM     17  C   UNL     1       8.650   9.632  18.644  0.00  0.00    +0.000 C 
BRANCH  17  18
ATOM     18  C   UNL     1       9.495  10.584  19.303  0.00  0.00    +0.000 A 
ATOM     19  C   UNL     1       9.541  10.795  20.666  0.00  0.00    +0.000 A 
ATOM     20  N   UNL     1      10.459  11.784  20.911  0.00  0.00    +0.000 N 
ATOM     21  C   UNL     1      10.996  12.237  19.733  0.00  0.00    +0.000 A 
ATOM     22  C   UNL     1      11.957  13.233  19.515  0.00  0.00    +0.000 A 
ATOM     23  C   UNL     1      12.321  13.510  18.196  0.00  0.00    +0.000 A 
ATOM     24  C   UNL     1      11.739  12.817  17.136  0.00  0.00    +0.000 A 
ATOM     25  C   UNL     1      10.783  11.820  17.370  0.00  0.00    +0.000 A 
ATOM     26  C   UNL     1      10.400  11.515  18.696  0.00  0.00    +0.000 A 
ATOM     27  H   UNL     1      10.696  12.149  21.824  0.00  0.00    +0.000 HD
ENDBRANCH  17  18
ENDBRANCH   7  16
TORSDOF 3
ENDMDL
MODEL 2
REMARK VINA RESULT:      -8.5      1.529      1.643
REMARK  Name = 
REMARK  4 active torsions:
REMARK  status: ('A' for Active; 'I' for Inactive)
REMARK    1  A    between atoms: C_1  and  N_2
REMARK    2  A    between atoms: C_4  and  C_5
REMARK    3  A    between atoms: C_15  and  C_16
REMARK    4  A    between atoms: C_17  and  C_18
REMARK                            x       y       z     vdW  Elec       q    Type
REMARK                         _______ _______ _______ _____ _____    ______ ____
ROOT
ATOM      1  C   UNL     1       8.296   5.593  19.629  0.00  0.00    +0.000 C 
ATOM      2  N   UNL     1       7.221   5.882  18.653  0.00  0.00    +0.000 N 
ATOM      3  C   UNL     1       6.262   4.936  18.475  0.00  0.00    +0.000 A 
ATOM      4  C   UNL     1       5.218   5.118  17.574  0.00  0.00    +0.000 A 
ATOM      5  C   UNL     1       5.136   6.312  16.875  0.00  0.00    +0.000 A 
ATOM      6  C   UNL     1       6.131   7.268  17.046  0.00  0.00    +0.000 A 
ATOM      7  C   UNL     1       7.187   7.057  17.950  0.00  0.00    +0.000 A 
ENDROOT
BRANCH   4   8
ATOM      8  C   UNL     1       4.172   4.074  17.524  0.00  0.00    +0.000 C 
ATOM      9  O   UNL     1       4.045   3.512  16.439  0.00  0.00    +0.000 OA
ATOM     10  N   UNL     1       3.424   3.768  18.654  0.00  0.00    +0.000 N 
ATOM     11  C   UNL     1       2.617   2.543  18.653  0.00  0.00    +0.000 C 
ATOM     12  C   UNL     1       1.142   2.843  18.906  0.00  0.00    +0.000 C 
ATOM     13  C   UNL     1       0.956   3.682  20.169  0.00  0.00    +0.000 C 
ATOM     14  C   UNL     1       1.806   4.945  20.100  0.00  0.00    +0.000 C 
ATOM     15  C   UNL     1       3.270   4.608  19.846  0.00  0.00    +0.000 C 
ENDBRANCH   4   8
BRANCH   7  16
ATOM     16  C   UNL     1       8.144   8.142  18.238  0.00  0.00    +0.000 C 
ATOM     17  C   UNL     1       8.009   9.433  17.872  0.00  0.00    +0.000 C 
BRANCH  17  18
ATOM     18  C   UNL     1       8.905  10.484  18.254  0.00  0.00    +0.000 A 
ATOM     19  C   UNL     1      10.081  10.307  18.956  0.00  0.00    +0.000 A 
ATOM     20  N   UNL     1      10.655  11.539  19.139  0.00  0.00    +0.000 N 
ATOM     21  C   UNL     1       9.866  12.518  18.589  0.00  0.00    +0.000 A 
ATOM     22  C   UNL     1      10.062  13.905  18.548  0.00  0.00    +0.000 A 
ATOM     23  C   UNL     1       9.082  14.683  17.930  0.00  0.00    +0.000 A 
ATOM     24  C   UNL     1       7.947  14.093  17.379  0.00  0.00    +0.000 A 
ATOM     25  C   UNL     1       7.766  12.705  17.422  0.00  0.00    +0.000 A 
ATOM     26  C   UNL     1       8.745  11.891  18.037  0.00  0.00    +0.000 A 
ATOM     27  H   UNL     1      11.524  11.714  19.626  0.00  0.00    +0.000 HD
ENDBRANCH  17  18
ENDBRANCH   7  16
TORSDOF 3
ENDMDL
MODEL 3
REMARK VINA RESULT:      -8.3      1.214      1.986
REMARK  Name = 
REMARK  4 active torsions:
REMARK  status: ('A' for Active; 'I' for Inactive)
REMARK    1  A    between atoms: C_1  and  N_2
REMARK    2  A    between atoms: C_4  and  C_5
REMARK    3  A    between atoms: C_15  and  C_16
REMARK    4  A    between atoms: C_17  and  C_18
REMARK                            x       y       z     vdW  Elec       q    Type
REMARK                         _______ _______ _______ _____ _____    ______ ____
ROOT
ATOM      1  C   UNL     1       8.335   5.652  19.852  0.00  0.00    +0.000 C 
ATOM      2  N   UNL     1       7.310   5.961  18.830  0.00  0.00    +0.000 N 
ATOM      3  C   UNL     1       6.314   5.055  18.644  0.00  0.00    +0.000 A 
ATOM      4  C   UNL     1       5.312   5.258  17.701  0.00  0.00    +0.000 A 
ATOM      5  C   UNL     1       5.312   6.433  16.966  0.00  0.00    +0.000 A 
ATOM      6  C   UNL     1       6.343   7.347  17.146  0.00  0.00    +0.000 A 
ATOM      7  C   UNL     1       7.356   7.114  18.094  0.00  0.00    +0.000 A 
ENDROOT
BRANCH   4   8
ATOM      8  C   UNL     1       4.221   4.262  17.641  0.00  0.00    +0.000 C 
ATOM      9  O   UNL     1       4.074   3.710  16.554  0.00  0.00    +0.000 OA
ATOM     10  N   UNL     1       3.455   3.985  18.767  0.00  0.00    +0.000 N 
ATOM     11  C   UNL     1       2.593   2.798  18.758  0.00  0.00    +0.000 C 
ATOM     12  C   UNL     1       1.132   3.163  19.005  0.00  0.00    +0.000 C 
ATOM     13  C   UNL     1       0.979   4.005  20.270  0.00  0.00    +0.000 C 
ATOM     14  C   UNL     1       1.884   5.229  20.211  0.00  0.00    +0.000 C 
ATOM     15  C   UNL     1       3.333   4.827  19.962  0.00  0.00    +0.000 C 
ENDBRANCH   4   8
BRANCH   7  16
ATOM     16  C   UNL     1       8.352   8.162  18.385  0.00  0.00    +0.000 C 
ATOM     17  C   UNL     1       8.290   9.447  17.979  0.00  0.00    +0.000 C 
BRANCH  17  18
ATOM     18  C   UNL     1       9.222  10.466  18.364  0.00  0.00    +0.000 A 
ATOM     19  C   UNL     1      10.247  10.944  17.573  0.00  0.00    +0.000 A 
ATOM     20  N   UNL     1      10.922  11.902  18.287  0.00  0.00    +0.000 N 
ATOM     21  C   UNL     1      10.371  12.041  19.535  0.00  0.00    +0.000 A 
ATOM     22  C   UNL     1      10.742  12.892  20.586  0.00  0.00    +0.000 A 
ATOM     23  C   UNL     1      10.010  12.819  21.772  0.00  0.00    +0.000 A 
ATOM     24  C   UNL     1       8.950  11.925  21.902  0.00  0.00    +0.000 A 
ATOM     25  C   UNL     1       8.586  11.084  20.842  0.00  0.00    +0.000 A 
ATOM     26  C   UNL     1       9.306  11.139  19.627  0.00  0.00    +0.000 A 
ATOM     27  H   UNL     1      11.725  12.420  17.957  0.00  0.00    +0.000 HD
ENDBRANCH  17  18
ENDBRANCH   7  16
TORSDOF 3
ENDMDL
MODEL 4
REMARK VINA RESULT:      -8.2      6.859     10.428
REMARK  Name = 
REMARK  4 active torsions:
REMARK  status: ('A' for Active; 'I' for Inactive)
REMARK    1  A    between atoms: C_1  and  N_2
REMARK    2  A    between atoms: C_4  and  C_5
REMARK    3  A    between atoms: C_15  and  C_16
REMARK    4  A    between atoms: C_17  and  C_18
REMARK                            x       y       z     vdW  Elec       q    Type
REMARK                         _______ _______ _______ _____ _____    ______ ____
ROOT
ATOM      1  C   UNL     1       2.071   8.715  17.792  0.00  0.00    +0.000 C 
ATOM      2  N   UNL     1       1.435   9.196  19.037  0.00  0.00    +0.000 N 
ATOM      3  C   UNL     1       0.805  10.399  18.998  0.00  0.00    +0.000 A 
ATOM      4  C   UNL     1       0.185  10.934  20.123  0.00  0.00    +0.000 A 
ATOM      5  C   UNL     1       0.177  10.198  21.297  0.00  0.00    +0.000 A 
ATOM      6  C   UNL     1       0.840   8.977  21.338  0.00  0.00    +0.000 A 
ATOM      7  C   UNL     1       1.474   8.462  20.193  0.00  0.00    +0.000 A 
ENDROOT
BRANCH   4   8
ATOM      8  C   UNL     1      -0.556  12.203  19.954  0.00  0.00    +0.000 C 
ATOM      9  O   UNL     1      -1.759  12.082  19.739  0.00  0.00    +0.000 OA
ATOM     10  N   UNL     1       0.099  13.423  20.061  0.00  0.00    +0.000 N 
ATOM     11  C   UNL     1      -0.704  14.645  20.185  0.00  0.00    +0.000 C 
ATOM     12  C   UNL     1      -0.391  15.637  19.069  0.00  0.00    +0.000 C 
ATOM     13  C   UNL     1       1.109  15.913  18.978  0.00  0.00    +0.000 C 
ATOM     14  C   UNL     1       1.884  14.609  18.834  0.00  0.00    +0.000 C 
ATOM     15  C   UNL     1       1.546  13.643  19.963  0.00  0.00    +0.000 C 
ENDBRANCH   4   8
BRANCH   7  16
ATOM     16  C   UNL     1       2.034   7.098  20.208  0.00  0.00    +0.000 C 
ATOM     17  C   UNL     1       1.423   5.997  20.692  0.00  0.00    +0.000 C 
BRANCH  17  18
ATOM     18  C   UNL     1       1.951   4.668  20.599  0.00  0.00    +0.000 A 
ATOM     19  C   UNL     1       2.257   3.858  21.674  0.00  0.00    +0.000 A 
ATOM     20  N   UNL     1       2.743   2.672  21.187  0.00  0.00    +0.000 N 
ATOM     21  C   UNL     1       2.782   2.700  19.817  0.00  0.00    +0.000 A 
ATOM     22  C   UNL     1       3.208   1.716  18.915  0.00  0.00    +0.000 A 
ATOM     23  C   UNL     1       3.154   2.014  17.552  0.00  0.00    +0.000 A 
ATOM     24  C   UNL     1       2.696   3.254  17.111  0.00  0.00    +0.000 A 
ATOM     25  C   UNL     1       2.268   4.227  18.024  0.00  0.00    +0.000 A 
ATOM     26  C   UNL     1       2.306   3.950  19.410  0.00  0.00    +0.000 A 
ATOM     27  H   UNL     1       3.052   1.890  21.750  0.00  0.00    +0.000 HD
ENDBRANCH  17  18
ENDBRANCH   7  16
TORSDOF 3
ENDMDL
MODEL 5
REMARK VINA RESULT:      -8.2      6.493      9.942
REMARK  Name = 
REMARK  4 active torsions:
REMARK  status: ('A' for Active; 'I' for Inactive)
REMARK    1  A    between atoms: C_1  and  N_2
REMARK    2  A    between atoms: C_4  and  C_5
REMARK    3  A    between atoms: C_15  and  C_16
REMARK    4  A    between atoms: C_17  and  C_18
REMARK                            x       y       z     vdW  Elec       q    Type
REMARK                         _______ _______ _______ _____ _____    ______ ____
ROOT
ATOM      1  C   UNL     1       0.852   8.530  21.563  0.00  0.00    +0.000 C 
ATOM      2  N   UNL     1       1.346   8.528  20.169  0.00  0.00    +0.000 N 
ATOM      3  C   UNL     1       2.221   7.551  19.812  0.00  0.00    +0.000 A 
ATOM      4  C   UNL     1       2.743   7.475  18.525  0.00  0.00    +0.000 A 
ATOM      5  C   UNL     1       2.325   8.396  17.577  0.00  0.00    +0.000 A 
ATOM      6  C   UNL     1       1.446   9.405  17.952  0.00  0.00    +0.000 A 
ATOM      7  C   UNL     1       0.943   9.473  19.264  0.00  0.00    +0.000 A 
ENDROOT
BRANCH   4   8
ATOM      8  C   UNL     1       3.611   6.320  18.209  0.00  0.00    +0.000 C 
ATOM      9  O   UNL     1       4.659   6.595  17.632  0.00  0.00    +0.000 OA
ATOM     10  N   UNL     1       3.236   5.033  18.577  0.00  0.00    +0.000 N 
ATOM     11  C   UNL     1       4.239   3.964  18.518  0.00  0.00    +0.000 C 
ATOM     12  C   UNL     1       3.792   2.825  17.606  0.00  0.00    +0.000 C 
ATOM     13  C   UNL     1       2.402   2.322  17.989  0.00  0.00    +0.000 C 
ATOM     14  C   UNL     1       1.405   3.474  18.015  0.00  0.00    +0.000 C 
ATOM     15  C   UNL     1       1.884   4.592  18.934  0.00  0.00    +0.000 C 
ENDBRANCH   4   8
BRANCH   7  16
ATOM     16  C   UNL     1      -0.108  10.451  19.603  0.00  0.00    +0.000 C 
ATOM     17  C   UNL     1      -1.150  10.796  18.820  0.00  0.00    +0.000 C 
BRANCH  17  18
ATOM     18  C   UNL     1      -2.211  11.673  19.219  0.00  0.00    +0.000 A 
ATOM     19  C   UNL     1      -2.091  12.696  20.138  0.00  0.00    +0.000 A 
ATOM     20  N   UNL     1      -3.315  13.301  20.261  0.00  0.00    +0.000 N 
ATOM     21  C   UNL     1      -4.237  12.679  19.458  0.00  0.00    +0.000 A 
ATOM     22  C   UNL     1      -5.597  12.960  19.276  0.00  0.00    +0.000 A 
ATOM     23  C   UNL     1      -6.318  12.149  18.397  0.00  0.00    +0.000 A 
ATOM     24  C   UNL     1      -5.699  11.094  17.731  0.00  0.00    +0.000 A 
ATOM     25  C   UNL     1      -4.336  10.828  17.918  0.00  0.00    +0.000 A 
ATOM     26  C   UNL     1      -3.580  11.636  18.798  0.00  0.00    +0.000 A 
ATOM     27  H   UNL     1      -3.525  14.081  20.871  0.00  0.00    +0.000 HD
ENDBRANCH  17  18
ENDBRANCH   7  16
TORSDOF 3
ENDMDL
MODEL 6
REMARK VINA RESULT:      -8.1      7.488     11.365
REMARK  Name = 
REMARK  4 active torsions:
REMARK  status: ('A' for Active; 'I' for Inactive)
REMARK    1  A    between atoms: C_1  and  N_2
REMARK    2  A    between atoms: C_4  and  C_5
REMARK    3  A    between atoms: C_15  and  C_16
REMARK    4  A    between atoms: C_17  and  C_18
REMARK                            x       y       z     vdW  Elec       q    Type
REMARK                         _______ _______ _______ _____ _____    ______ ____
ROOT
ATOM      1  C   UNL     1       0.510  11.051  19.234  0.00  0.00    +0.000 C 
ATOM      2  N   UNL     1       0.132  10.703  20.621  0.00  0.00    +0.000 N 
ATOM      3  C   UNL     1      -0.693  11.557  21.282  0.00  0.00    +0.000 A 
ATOM      4  C   UNL     1      -1.095  11.314  22.592  0.00  0.00    +0.000 A 
ATOM      5  C   UNL     1      -0.674  10.151  23.217  0.00  0.00    +0.000 A 
ATOM      6  C   UNL     1       0.186   9.292  22.545  0.00  0.00    +0.000 A 
ATOM      7  C   UNL     1       0.594   9.565  21.226  0.00  0.00    +0.000 A 
ENDROOT
BRANCH   4   8
ATOM      8  C   UNL     1      -2.071  12.251  23.190  0.00  0.00    +0.000 C 
ATOM      9  O   UNL     1      -3.173  11.771  23.438  0.00  0.00    +0.000 OA
ATOM     10  N   UNL     1      -1.714  13.567  23.455  0.00  0.00    +0.000 N 
ATOM     11  C   UNL     1      -2.592  14.376  24.309  0.00  0.00    +0.000 C 
ATOM     12  C   UNL     1      -3.069  15.635  23.591  0.00  0.00    +0.000 C 
ATOM     13  C   UNL     1      -1.893  16.426  23.021  0.00  0.00    +0.000 C 
ATOM     14  C   UNL     1      -1.033  15.537  22.132  0.00  0.00    +0.000 C 
ATOM     15  C   UNL     1      -0.576  14.291  22.880  0.00  0.00    +0.000 C 
ENDBRANCH   4   8
BRANCH   7  16
ATOM     16  C   UNL     1       1.376   8.567  20.472  0.00  0.00    +0.000 C 
ATOM     17  C   UNL     1       1.458   7.250  20.752  0.00  0.00    +0.000 C 
BRANCH  17  18
ATOM     18  C   UNL     1       2.144   6.289  19.940  0.00  0.00    +0.000 A 
ATOM     19  C   UNL     1       3.119   6.587  19.010  0.00  0.00    +0.000 A 
ATOM     20  N   UNL     1       3.528   5.413  18.432  0.00  0.00    +0.000 N 
ATOM     21  C   UNL     1       2.823   4.357  18.951  0.00  0.00    +0.000 A 
ATOM     22  C   UNL     1       2.910   2.991  18.650  0.00  0.00    +0.000 A 
ATOM     23  C   UNL     1       2.053   2.119  19.324  0.00  0.00    +0.000 A 
ATOM     24  C   UNL     1       1.141   2.600  20.261  0.00  0.00    +0.000 A 
ATOM     25  C   UNL     1       1.069   3.968  20.556  0.00  0.00    +0.000 A 
ATOM     26  C   UNL     1       1.928   4.873  19.893  0.00  0.00    +0.000 A 
ATOM     27  H   UNL     1       4.233   5.329  17.711  0.00  0.00    +0.000 HD
ENDBRANCH  17  18
ENDBRANCH   7  16
TORSDOF 3
ENDMDL
MODEL 7
REMARK VINA RESULT:      -8.0      6.199      8.967
REMARK  Name = 
REMARK  4 active torsions:
REMARK  status: ('A' for Active; 'I' for Inactive)
REMARK    1  A    between atoms: C_1  and  N_2
REMARK    2  A    between atoms: C_4  and  C_5
REMARK    3  A    between atoms: C_15  and  C_16
REMARK    4  A    between atoms: C_17  and  C_18
REMARK                            x       y       z     vdW  Elec       q    Type
REMARK                         _______ _______ _______ _____ _____    ______ ____
ROOT
ATOM      1  C   UNL     1       1.112   8.409  21.446  0.00  0.00    +0.000 C 
ATOM      2  N   UNL     1       1.643   8.290  20.070  0.00  0.00    +0.000 N 
ATOM      3  C   UNL     1       2.398   7.197  19.779  0.00  0.00    +0.000 A 
ATOM      4  C   UNL     1       2.944   7.006  18.514  0.00  0.00    +0.000 A 
ATOM      5  C   UNL     1       2.674   7.933  17.520  0.00  0.00    +0.000 A 
ATOM      6  C   UNL     1       1.919   9.058  17.828  0.00  0.00    +0.000 A 
ATOM      7  C   UNL     1       1.390   9.241  19.118  0.00  0.00    +0.000 A 
ENDROOT
BRANCH   4   8
ATOM      8  C   UNL     1       3.668   5.739  18.270  0.00  0.00    +0.000 C 
ATOM      9  O   UNL     1       4.714   5.848  17.636  0.00  0.00    +0.000 OA
ATOM     10  N   UNL     1       3.173   4.537  18.761  0.00  0.00    +0.000 N 
ATOM     11  C   UNL     1       4.052   3.362  18.761  0.00  0.00    +0.000 C 
ATOM     12  C   UNL     1       3.446   2.208  17.967  0.00  0.00    +0.000 C 
ATOM     13  C   UNL     1       2.027   1.896  18.440  0.00  0.00    +0.000 C 
ATOM     14  C   UNL     1       1.163   3.150  18.401  0.00  0.00    +0.000 C 
ATOM     15  C   UNL     1       1.799   4.280  19.201  0.00  0.00    +0.000 C 
ENDBRANCH   4   8
BRANCH   7  16
ATOM     16  C   UNL     1       0.462  10.355  19.386  0.00  0.00    +0.000 C 
ATOM     17  C   UNL     1      -0.881  10.312  19.267  0.00  0.00    +0.000 C 
BRANCH  17  18
ATOM     18  C   UNL     1      -1.764  11.381  19.633  0.00  0.00    +0.000 A 
ATOM     19  C   UNL     1      -2.724  11.934  18.810  0.00  0.00    +0.000 A 
ATOM     20  N   UNL     1      -3.357  12.931  19.507  0.00  0.00    +0.000 N 
ATOM     21  C   UNL     1      -2.814  13.053  20.761  0.00  0.00    +0.000 A 
ATOM     22  C   UNL     1      -3.147  13.936  21.797  0.00  0.00    +0.000 A 
ATOM     23  C   UNL     1      -2.415  13.856  22.982  0.00  0.00    +0.000 A 
ATOM     24  C   UNL     1      -1.385  12.929  23.122  0.00  0.00    +0.000 A 
ATOM     25  C   UNL     1      -1.066  12.048  22.080  0.00  0.00    +0.000 A 
ATOM     26  C   UNL     1      -1.794  12.103  20.870  0.00  0.00    +0.000 A 
ATOM     27  H   UNL     1      -4.104  13.512  19.150  0.00  0.00    +0.000 HD
ENDBRANCH  17  18
ENDBRANCH   7  16
TORSDOF 3
ENDMDL
MODEL 8
REMARK VINA RESULT:      -8.0      7.426     11.166
REMARK  Name = 
REMARK  4 active torsions:
REMARK  status: ('A' for Active; 'I' for Inactive)
REMARK    1  A    between atoms: C_1  and  N_2
REMARK    2  A    between atoms: C_4  and  C_5
REMARK    3  A    between atoms: C_15  and  C_16
REMARK    4  A    between atoms: C_17  and  C_18
REMARK                            x       y       z     vdW  Elec       q    Type
REMARK                         _______ _______ _______ _____ _____    ______ ____
ROOT
ATOM      1  C   UNL     1       1.415  11.634  18.985  0.00  0.00    +0.000 C 
ATOM      2  N   UNL     1       0.747  11.270  20.254  0.00  0.00    +0.000 N 
ATOM      3  C   UNL     1       0.092  12.254  20.925  0.00  0.00    +0.000 A 
ATOM      4  C   UNL     1      -0.559  12.005  22.129  0.00  0.00    +0.000 A 
ATOM      5  C   UNL     1      -0.571  10.713  22.630  0.00  0.00    +0.000 A 
ATOM      6  C   UNL     1       0.117   9.715  21.950  0.00  0.00    +0.000 A 
ATOM      7  C   UNL     1       0.783   9.991  20.742  0.00  0.00    +0.000 A 
ENDROOT
BRANCH   4   8
ATOM      8  C   UNL     1      -1.324  13.117  22.732  0.00  0.00    +0.000 C 
ATOM      9  O   UNL     1      -0.828  13.607  23.743  0.00  0.00    +0.000 OA
ATOM     10  N   UNL     1      -2.506  13.559  22.150  0.00  0.00    +0.000 N 
ATOM     11  C   UNL     1      -3.074  14.837  22.593  0.00  0.00    +0.000 C 
ATOM     12  C   UNL     1      -4.495  14.667  23.121  0.00  0.00    +0.000 C 
ATOM     13  C   UNL     1      -5.377  13.937  22.109  0.00  0.00    +0.000 C 
ATOM     14  C   UNL     1      -4.743  12.613  21.703  0.00  0.00    +0.000 C 
ATOM     15  C   UNL     1      -3.325  12.822  21.183  0.00  0.00    +0.000 C 
ENDBRANCH   4   8
BRANCH   7  16
ATOM     16  C   UNL     1       1.372   8.893  19.954  0.00  0.00    +0.000 C 
ATOM     17  C   UNL     1       1.723   7.679  20.426  0.00  0.00    +0.000 C 
BRANCH  17  18
ATOM     18  C   UNL     1       2.198   6.598  19.614  0.00  0.00    +0.000 A 
ATOM     19  C   UNL     1       2.976   6.738  18.483  0.00  0.00    +0.000 A 
ATOM     20  N   UNL     1       3.220   5.486  17.978  0.00  0.00    +0.000 N 
ATOM     21  C   UNL     1       2.597   4.535  18.745  0.00  0.00    +0.000 A 
ATOM     22  C   UNL     1       2.574   3.141  18.595  0.00  0.00    +0.000 A 
ATOM     23  C   UNL     1       1.840   2.399  19.522  0.00  0.00    +0.000 A 
ATOM     24  C   UNL     1       1.152   3.029  20.556  0.00  0.00    +0.000 A 
ATOM     25  C   UNL     1       1.188   4.423  20.697  0.00  0.00    +0.000 A 
ATOM     26  C   UNL     1       1.928   5.200  19.776  0.00  0.00    +0.000 A 
ATOM     27  H   UNL     1       3.762   5.284  17.148  0.00  0.00    +0.000 HD
ENDBRANCH  17  18
ENDBRANCH   7  16
TORSDOF 3
ENDMDL
MODEL 9
REMARK VINA RESULT:      -8.0      6.538      9.175
REMARK  Name = 
REMARK  4 active torsions:
REMARK  status: ('A' for Active; 'I' for Inactive)
REMARK    1  A    between atoms: C_1  and  N_2
REMARK    2  A    between atoms: C_4  and  C_5
REMARK    3  A    between atoms: C_15  and  C_16
REMARK    4  A    between atoms: C_17  and  C_18
REMARK                            x       y       z     vdW  Elec       q    Type
REMARK                         _______ _______ _______ _____ _____    ______ ____
ROOT
ATOM      1  C   UNL     1       0.951   8.467  21.651  0.00  0.00    +0.000 C 
ATOM      2  N   UNL     1       1.399   8.475  20.241  0.00  0.00    +0.000 N 
ATOM      3  C   UNL     1       2.252   7.493  19.846  0.00  0.00    +0.000 A 
ATOM      4  C   UNL     1       2.730   7.425  18.541  0.00  0.00    +0.000 A 
ATOM      5  C   UNL     1       2.291   8.360  17.618  0.00  0.00    +0.000 A 
ATOM      6  C   UNL     1       1.435   9.374  18.031  0.00  0.00    +0.000 A 
ATOM      7  C   UNL     1       0.976   9.433  19.360  0.00  0.00    +0.000 A 
ENDROOT
BRANCH   4   8
ATOM      8  C   UNL     1       3.575   6.265  18.186  0.00  0.00    +0.000 C 
ATOM      9  O   UNL     1       4.591   6.533  17.550  0.00  0.00    +0.000 OA
ATOM     10  N   UNL     1       3.218   4.983  18.583  0.00  0.00    +0.000 N 
ATOM     11  C   UNL     1       4.213   3.910  18.476  0.00  0.00    +0.000 C 
ATOM     12  C   UNL     1       3.712   2.766  17.598  0.00  0.00    +0.000 C 
ATOM     13  C   UNL     1       2.344   2.271  18.062  0.00  0.00    +0.000 C 
ATOM     14  C   UNL     1       1.354   3.426  18.136  0.00  0.00    +0.000 C 
ATOM     15  C   UNL     1       1.887   4.549  19.018  0.00  0.00    +0.000 C 
ENDBRANCH   4   8
BRANCH   7  16
ATOM     16  C   UNL     1      -0.053  10.417  19.743  0.00  0.00    +0.000 C 
ATOM     17  C   UNL     1       0.176  11.676  20.170  0.00  0.00    +0.000 C 
BRANCH  17  18
ATOM     18  C   UNL     1      -0.849  12.642  20.437  0.00  0.00    +0.000 A 
ATOM     19  C   UNL     1      -1.100  13.764  19.674  0.00  0.00    +0.000 A 
ATOM     20  N   UNL     1      -2.145  14.442  20.248  0.00  0.00    +0.000 N 
ATOM     21  C   UNL     1      -2.565  13.797  21.383  0.00  0.00    +0.000 A 
ATOM     22  C   UNL     1      -3.591  14.135  22.275  0.00  0.00    +0.000 A 
ATOM     23  C   UNL     1      -3.801  13.300  23.374  0.00  0.00    +0.000 A 
ATOM     24  C   UNL     1      -3.010  12.170  23.571  0.00  0.00    +0.000 A 
ATOM     25  C   UNL     1      -1.992  11.840  22.667  0.00  0.00    +0.000 A 
ATOM     26  C   UNL     1      -1.760  12.666  21.543  0.00  0.00    +0.000 A 
ATOM     27  H   UNL     1      -2.542  15.307  19.904  0.00  0.00    +0.000 HD
ENDBRANCH  17  18
ENDBRANCH   7  16
TORSDOF 3
ENDMDL
