MODEL 1
REMARK VINA RESULT:      -6.9      0.000      0.000
REMARK  Name = 
REMARK  7 active torsions:
REMARK  status: ('A' for Active; 'I' for Inactive)
REMARK    1  A    between atoms: C_2  and  C_5
REMARK    2  A    between atoms: C_9  and  O_10
REMARK    3  A    between atoms: O_10  and  C_11
REMARK    4  A    between atoms: C_11  and  C_12
REMARK    5  A    between atoms: C_12  and  C_13
REMARK    6  A    between atoms: C_13  and  C_14
REMARK    7  A    between atoms: C_14  and  C_15
REMARK                            x       y       z     vdW  Elec       q    Type
REMARK                         _______ _______ _______ _____ _____    ______ ____
ROOT
ATOM      1  O   UNL     1       2.699   5.514  18.653  0.00  0.00    +0.000 OA
ENDROOT
BRANCH   1   6
ATOM      2  C   UNL     1       5.792   4.806  16.693  0.00  0.00    +0.000 A 
ATOM      3  C   UNL     1       6.724   4.913  17.734  0.00  0.00    +0.000 A 
ATOM      4  C   UNL     1       6.299   5.206  19.028  0.00  0.00    +0.000 A 
ATOM      5  C   UNL     1       4.941   5.396  19.294  0.00  0.00    +0.000 A 
ATOM      6  C   UNL     1       3.998   5.313  18.268  0.00  0.00    +0.000 A 
ATOM      7  C   UNL     1       4.430   5.027  16.970  0.00  0.00    +0.000 A 
BRANCH   2   9
ATOM      8  F   UNL     1       7.512   4.734  15.014  0.00  0.00    +0.000 F 
ATOM      9  C   UNL     1       6.212   4.436  15.293  0.00  0.00    +0.000 C 
ATOM     10  F   UNL     1       5.470   5.062  14.338  0.00  0.00    +0.000 F 
ATOM     11  F   UNL     1       6.078   3.101  15.051  0.00  0.00    +0.000 F 
ENDBRANCH   2   9
ENDBRANCH   1   6
BRANCH   1  12
ATOM     12  C   UNL     1       2.517   6.162  19.911  0.00  0.00    +0.000 C 
BRANCH  12  13
ATOM     13  C   UNL     1       1.502   5.389  20.751  0.00  0.00    +0.000 C 
BRANCH  13  14
ATOM     14  C   UNL     1       2.198   4.226  21.458  0.00  0.00    +0.000 C 
BRANCH  14  15
ATOM     15  C   UNL     1       1.600   2.871  21.082  0.00  0.00    +0.000 C 
BRANCH  15  16
ATOM     16  C   UNL     1       2.107   2.401  19.762  0.00  0.00    +0.000 A 
ATOM     17  C   UNL     1       1.434   2.264  18.568  0.00  0.00    +0.000 A 
ATOM     18  N   UNL     1       2.358   1.787  17.682  0.00  0.00    +0.000 N 
ATOM     19  C   UNL     1       3.538   1.647  18.357  0.00  0.00    +0.000 A 
ATOM     20  N   UNL     1       3.417   2.007  19.613  0.00  0.00    +0.000 NA
ATOM     21  H   UNL     1       2.205   1.571  16.707  0.00  0.00    +0.000 HD
ENDBRANCH  15  16
ENDBRANCH  14  15
ENDBRANCH  13  14
ENDBRANCH  12  13
ENDBRANCH   1  12
TORSDOF 7
ENDMDL
MODEL 2
REMARK VINA RESULT:      -6.8      1.844      2.674
REMARK  Name = 
REMARK  7 active torsions:
REMARK  status: ('A' for Active; 'I' for Inactive)
REMARK    1  A    between atoms: C_2  and  C_5
REMARK    2  A    between atoms: C_9  and  O_10
REMARK    3  A    between atoms: O_10  and  C_11
REMARK    4  A    between atoms: C_11  and  C_12
REMARK    5  A    between atoms: C_12  and  C_13
REMARK    6  A    between atoms: C_13  and  C_14
REMARK    7  A    between atoms: C_14  and  C_15
REMARK                            x       y       z     vdW  Elec       q    Type
REMARK                         _______ _______ _______ _____ _____    ______ ____
ROOT
ATOM      1  O   UNL     1       3.382   4.800  20.519  0.00  0.00    +0.000 OA
ENDROOT
BRANCH   1   6
ATOM      2  C   UNL     1       5.859   6.042  18.024  0.00  0.00    +0.000 A 
ATOM      3  C   UNL     1       5.004   6.861  17.275  0.00  0.00    +0.000 A 
ATOM      4  C   UNL     1       3.659   6.973  17.621  0.00  0.00    +0.000 A 
ATOM      5  C   UNL     1       3.157   6.269  18.718  0.00  0.00    +0.000 A 
ATOM      6  C   UNL     1       3.987   5.433  19.466  0.00  0.00    +0.000 A 
ATOM      7  C   UNL     1       5.334   5.317  19.110  0.00  0.00    +0.000 A 
BRANCH   2   9
ATOM      8  F   UNL     1       7.644   6.307  16.435  0.00  0.00    +0.000 F 
ATOM      9  C   UNL     1       7.330   5.942  17.708  0.00  0.00    +0.000 C 
ATOM     10  F   UNL     1       7.817   4.680  17.869  0.00  0.00    +0.000 F 
ATOM     11  F   UNL     1       8.085   6.737  18.519  0.00  0.00    +0.000 F 
ENDBRANCH   2   9
ENDBRANCH   1   6
BRANCH   1  12
ATOM     12  C   UNL     1       1.980   5.031  20.660  0.00  0.00    +0.000 C 
BRANCH  12  13
ATOM     13  C   UNL     1       1.247   3.699  20.805  0.00  0.00    +0.000 C 
BRANCH  13  14
ATOM     14  C   UNL     1       0.481   3.390  19.519  0.00  0.00    +0.000 C 
BRANCH  14  15
ATOM     15  C   UNL     1       0.973   2.114  18.836  0.00  0.00    +0.000 C 
BRANCH  15  16
ATOM     16  C   UNL     1       2.288   2.328  18.168  0.00  0.00    +0.000 A 
ATOM     17  C   UNL     1       3.526   1.823  18.499  0.00  0.00    +0.000 A 
ATOM     18  N   UNL     1       4.388   2.338  17.572  0.00  0.00    +0.000 N 
ATOM     19  C   UNL     1       3.659   3.129  16.729  0.00  0.00    +0.000 A 
ATOM     20  N   UNL     1       2.389   3.144  17.065  0.00  0.00    +0.000 NA
ATOM     21  H   UNL     1       5.383   2.173  17.515  0.00  0.00    +0.000 HD
ENDBRANCH  15  16
ENDBRANCH  14  15
ENDBRANCH  13  14
ENDBRANCH  12  13
ENDBRANCH   1  12
TORSDOF 7
ENDMDL
MODEL 3
REMARK VINA RESULT:      -6.8      4.000      6.067
REMARK  Name = 
REMARK  7 active torsions:
REMARK  status: ('A' for Active; 'I' for Inactive)
REMARK    1  A    between atoms: C_2  and  C_5
REMARK    2  A    between atoms: C_9  and  O_10
REMARK    3  A    between atoms: O_10  and  C_11
REMARK    4  A    between atoms: C_11  and  C_12
REMARK    5  A    between atoms: C_12  and  C_13
REMARK    6  A    between atoms: C_13  and  C_14
REMARK    7  A    between atoms: C_14  and  C_15
REMARK                            x       y       z     vdW  Elec       q    Type
REMARK                         _______ _______ _______ _____ _____    ______ ____
ROOT
ATOM      1  O   UNL     1       5.971   4.011  18.809  0.00  0.00    +0.000 OA
ENDROOT
BRANCH   1   6
ATOM      2  C   UNL     1       2.441   3.399  19.844  0.00  0.00    +0.000 A 
ATOM      3  C   UNL     1       2.039   2.617  18.753  0.00  0.00    +0.000 A 
ATOM      4  C   UNL     1       2.940   2.322  17.732  0.00  0.00    +0.000 A 
ATOM      5  C   UNL     1       4.249   2.805  17.792  0.00  0.00    +0.000 A 
ATOM      6  C   UNL     1       4.665   3.601  18.860  0.00  0.00    +0.000 A 
ATOM      7  C   UNL     1       3.754   3.902  19.878  0.00  0.00    +0.000 A 
BRANCH   2   9
ATOM      8  F   UNL     1       0.663   2.663  21.287  0.00  0.00    +0.000 F 
ATOM      9  C   UNL     1       1.506   3.691  20.991  0.00  0.00    +0.000 C 
ATOM     10  F   UNL     1       0.713   4.773  20.760  0.00  0.00    +0.000 F 
ATOM     11  F   UNL     1       2.178   3.963  22.145  0.00  0.00    +0.000 F 
ENDBRANCH   2   9
ENDBRANCH   1   6
BRANCH   1  12
ATOM     12  C   UNL     1       6.239   5.300  19.360  0.00  0.00    +0.000 C 
BRANCH  12  13
ATOM     13  C   UNL     1       7.649   5.744  18.977  0.00  0.00    +0.000 C 
BRANCH  13  14
ATOM     14  C   UNL     1       7.576   6.766  17.842  0.00  0.00    +0.000 C 
BRANCH  14  15
ATOM     15  C   UNL     1       6.227   6.747  17.124  0.00  0.00    +0.000 C 
BRANCH  15  16
ATOM     16  C   UNL     1       6.257   5.850  15.935  0.00  0.00    +0.000 A 
ATOM     17  C   UNL     1       5.230   5.139  15.354  0.00  0.00    +0.000 A 
ATOM     18  N   UNL     1       5.797   4.473  14.304  0.00  0.00    +0.000 N 
ATOM     19  C   UNL     1       7.126   4.791  14.287  0.00  0.00    +0.000 A 
ATOM     20  N   UNL     1       7.433   5.618  15.260  0.00  0.00    +0.000 NA
ATOM     21  H   UNL     1       5.329   3.855  13.657  0.00  0.00    +0.000 HD
ENDBRANCH  15  16
ENDBRANCH  14  15
ENDBRANCH  13  14
ENDBRANCH  12  13
ENDBRANCH   1  12
TORSDOF 7
ENDMDL
MODEL 4
REMARK VINA RESULT:      -6.6      0.761      1.380
REMARK  Name = 
REMARK  7 active torsions:
REMARK  status: ('A' for Active; 'I' for Inactive)
REMARK    1  A    between atoms: C_2  and  C_5
REMARK    2  A    between atoms: C_9  and  O_10
REMARK    3  A    between atoms: O_10  and  C_11
REMARK    4  A    between atoms: C_11  and  C_12
REMARK    5  A    between atoms: C_12  and  C_13
REMARK    6  A    between atoms: C_13  and  C_14
REMARK    7  A    between atoms: C_14  and  C_15
REMARK                            x       y       z     vdW  Elec       q    Type
REMARK                         _______ _______ _______ _____ _____    ______ ____
ROOT
ATOM      1  O   UNL     1       2.791   5.559  18.675  0.00  0.00    +0.000 OA
ENDROOT
BRANCH   1   6
ATOM      2  C   UNL     1       5.801   4.802  16.608  0.00  0.00    +0.000 A 
ATOM      3  C   UNL     1       6.773   4.915  17.611  0.00  0.00    +0.000 A 
ATOM      4  C   UNL     1       6.401   5.228  18.916  0.00  0.00    +0.000 A 
ATOM      5  C   UNL     1       5.055   5.432  19.232  0.00  0.00    +0.000 A 
ATOM      6  C   UNL     1       4.073   5.344  18.244  0.00  0.00    +0.000 A 
ATOM      7  C   UNL     1       4.452   5.038  16.934  0.00  0.00    +0.000 A 
BRANCH   2   9
ATOM      8  F   UNL     1       6.162   3.066  14.984  0.00  0.00    +0.000 F 
ATOM      9  C   UNL     1       6.165   4.411  15.198  0.00  0.00    +0.000 C 
ATOM     10  F   UNL     1       7.403   4.847  14.835  0.00  0.00    +0.000 F 
ATOM     11  F   UNL     1       5.304   4.935  14.280  0.00  0.00    +0.000 F 
ENDBRANCH   2   9
ENDBRANCH   1   6
BRANCH   1  12
ATOM     12  C   UNL     1       2.651   6.438  19.791  0.00  0.00    +0.000 C 
BRANCH  12  13
ATOM     13  C   UNL     1       1.627   5.872  20.772  0.00  0.00    +0.000 C 
BRANCH  13  14
ATOM     14  C   UNL     1       1.301   4.426  20.398  0.00  0.00    +0.000 C 
BRANCH  14  15
ATOM     15  C   UNL     1       2.141   3.416  21.178  0.00  0.00    +0.000 C 
BRANCH  15  16
ATOM     16  C   UNL     1       3.002   2.608  20.269  0.00  0.00    +0.000 A 
ATOM     17  C   UNL     1       4.293   2.167  20.456  0.00  0.00    +0.000 A 
ATOM     18  N   UNL     1       4.613   1.484  19.316  0.00  0.00    +0.000 N 
ATOM     19  C   UNL     1       3.528   1.539  18.487  0.00  0.00    +0.000 A 
ATOM     20  N   UNL     1       2.542   2.213  19.034  0.00  0.00    +0.000 NA
ATOM     21  H   UNL     1       5.489   1.024  19.113  0.00  0.00    +0.000 HD
ENDBRANCH  15  16
ENDBRANCH  14  15
ENDBRANCH  13  14
ENDBRANCH  12  13
ENDBRANCH   1  12
TORSDOF 7
ENDMDL
MODEL 5
REMARK VINA RESULT:      -6.5      4.046      6.173
REMARK  Name = 
REMARK  7 active torsions:
REMARK  status: ('A' for Active; 'I' for Inactive)
REMARK    1  A    between atoms: C_2  and  C_5
REMARK    2  A    between atoms: C_9  and  O_10
REMARK    3  A    between atoms: O_10  and  C_11
REMARK    4  A    between atoms: C_11  and  C_12
REMARK    5  A    between atoms: C_12  and  C_13
REMARK    6  A    between atoms: C_13  and  C_14
REMARK    7  A    between atoms: C_14  and  C_15
REMARK                            x       y       z     vdW  Elec       q    Type
REMARK                         _______ _______ _______ _____ _____    ______ ____
ROOT
ATOM      1  O   UNL     1       5.792   3.870  18.713  0.00  0.00    +0.000 OA
ENDROOT
BRANCH   1   6
ATOM      2  C   UNL     1       2.260   3.342  19.787  0.00  0.00    +0.000 A 
ATOM      3  C   UNL     1       1.851   2.500  18.743  0.00  0.00    +0.000 A 
ATOM      4  C   UNL     1       2.749   2.139  17.741  0.00  0.00    +0.000 A 
ATOM      5  C   UNL     1       4.062   2.617  17.771  0.00  0.00    +0.000 A 
ATOM      6  C   UNL     1       4.483   3.473  18.789  0.00  0.00    +0.000 A 
ATOM      7  C   UNL     1       3.576   3.838  19.789  0.00  0.00    +0.000 A 
BRANCH   2   9
ATOM      8  F   UNL     1       0.228   4.402  20.516  0.00  0.00    +0.000 F 
ATOM      9  C   UNL     1       1.329   3.706  20.915  0.00  0.00    +0.000 C 
ATOM     10  F   UNL     1       1.931   4.471  21.867  0.00  0.00    +0.000 F 
ATOM     11  F   UNL     1       0.856   2.606  21.567  0.00  0.00    +0.000 F 
ENDBRANCH   2   9
ENDBRANCH   1   6
BRANCH   1  12
ATOM     12  C   UNL     1       6.035   5.255  18.957  0.00  0.00    +0.000 C 
BRANCH  12  13
ATOM     13  C   UNL     1       5.237   6.104  17.969  0.00  0.00    +0.000 C 
BRANCH  13  14
ATOM     14  C   UNL     1       6.178   6.687  16.915  0.00  0.00    +0.000 C 
BRANCH  14  15
ATOM     15  C   UNL     1       7.303   5.723  16.538  0.00  0.00    +0.000 C 
BRANCH  15  16
ATOM     16  C   UNL     1       6.985   4.980  15.286  0.00  0.00    +0.000 A 
ATOM     17  C   UNL     1       6.199   3.862  15.112  0.00  0.00    +0.000 A 
ATOM     18  N   UNL     1       6.254   3.585  13.774  0.00  0.00    +0.000 N 
ATOM     19  C   UNL     1       7.061   4.522  13.194  0.00  0.00    +0.000 A 
ATOM     20  N   UNL     1       7.519   5.376  14.081  0.00  0.00    +0.000 NA
ATOM     21  H   UNL     1       5.789   2.827  13.295  0.00  0.00    +0.000 HD
ENDBRANCH  15  16
ENDBRANCH  14  15
ENDBRANCH  13  14
ENDBRANCH  12  13
ENDBRANCH   1  12
TORSDOF 7
ENDMDL
MODEL 6
REMARK VINA RESULT:      -6.4      3.339      5.644
REMARK  Name = 
REMARK  7 active torsions:
REMARK  status: ('A' for Active; 'I' for Inactive)
REMARK    1  A    between atoms: C_2  and  C_5
REMARK    2  A    between atoms: C_9  and  O_10
REMARK    3  A    between atoms: O_10  and  C_11
REMARK    4  A    between atoms: C_11  and  C_12
REMARK    5  A    between atoms: C_12  and  C_13
REMARK    6  A    between atoms: C_13  and  C_14
REMARK    7  A    between atoms: C_14  and  C_15
REMARK                            x       y       z     vdW  Elec       q    Type
REMARK                         _______ _______ _______ _____ _____    ______ ____
ROOT
ATOM      1  O   UNL     1       3.685   6.777  18.051  0.00  0.00    +0.000 OA
ENDROOT
BRANCH   1   6
ATOM      2  C   UNL     1       1.766   3.785  19.181  0.00  0.00    +0.000 A 
ATOM      3  C   UNL     1       1.223   4.321  20.356  0.00  0.00    +0.000 A 
ATOM      4  C   UNL     1       1.504   5.635  20.723  0.00  0.00    +0.000 A 
ATOM      5  C   UNL     1       2.331   6.425  19.920  0.00  0.00    +0.000 A 
ATOM      6  C   UNL     1       2.898   5.905  18.756  0.00  0.00    +0.000 A 
ATOM      7  C   UNL     1       2.619   4.584  18.396  0.00  0.00    +0.000 A 
BRANCH   2   9
ATOM      8  F   UNL     1       2.072   2.017  17.580  0.00  0.00    +0.000 F 
ATOM      9  C   UNL     1       1.438   2.385  18.727  0.00  0.00    +0.000 C 
ATOM     10  F   UNL     1       0.108   2.207  18.495  0.00  0.00    +0.000 F 
ATOM     11  F   UNL     1       1.781   1.450  19.657  0.00  0.00    +0.000 F 
ENDBRANCH   2   9
ENDBRANCH   1   6
BRANCH   1  12
ATOM     12  C   UNL     1       4.616   6.181  17.149  0.00  0.00    +0.000 C 
BRANCH  12  13
ATOM     13  C   UNL     1       5.819   7.103  16.959  0.00  0.00    +0.000 C 
BRANCH  13  14
ATOM     14  C   UNL     1       7.082   6.414  17.474  0.00  0.00    +0.000 C 
BRANCH  14  15
ATOM     15  C   UNL     1       7.073   4.908  17.218  0.00  0.00    +0.000 C 
BRANCH  15  16
ATOM     16  C   UNL     1       6.905   4.604  15.769  0.00  0.00    +0.000 A 
ATOM     17  C   UNL     1       6.101   3.664  15.163  0.00  0.00    +0.000 A 
ATOM     18  N   UNL     1       6.336   3.795  13.823  0.00  0.00    +0.000 N 
ATOM     19  C   UNL     1       7.262   4.787  13.664  0.00  0.00    +0.000 A 
ATOM     20  N   UNL     1       7.627   5.292  14.820  0.00  0.00    +0.000 NA
ATOM     21  H   UNL     1       5.910   3.259  13.080  0.00  0.00    +0.000 HD
ENDBRANCH  15  16
ENDBRANCH  14  15
ENDBRANCH  13  14
ENDBRANCH  12  13
ENDBRANCH   1  12
TORSDOF 7
ENDMDL
MODEL 7
REMARK VINA RESULT:      -6.4      6.926      8.979
REMARK  Name = 
REMARK  7 active torsions:
REMARK  status: ('A' for Active; 'I' for Inactive)
REMARK    1  A    between atoms: C_2  and  C_5
REMARK    2  A    between atoms: C_9  and  O_10
REMARK    3  A    between atoms: O_10  and  C_11
REMARK    4  A    between atoms: C_11  and  C_12
REMARK    5  A    between atoms: C_12  and  C_13
REMARK    6  A    between atoms: C_13  and  C_14
REMARK    7  A    between atoms: C_14  and  C_15
REMARK                            x       y       z     vdW  Elec       q    Type
REMARK                         _______ _______ _______ _____ _____    ______ ____
ROOT
ATOM      1  O   UNL     1       7.722   8.740  17.573  0.00  0.00    +0.000 OA
ENDROOT
BRANCH   1   6
ATOM      2  C   UNL     1       6.929   5.246  16.540  0.00  0.00    +0.000 A 
ATOM      3  C   UNL     1       7.357   4.586  17.700  0.00  0.00    +0.000 A 
ATOM      4  C   UNL     1       7.880   5.312  18.768  0.00  0.00    +0.000 A 
ATOM      5  C   UNL     1       7.981   6.703  18.686  0.00  0.00    +0.000 A 
ATOM      6  C   UNL     1       7.579   7.378  17.532  0.00  0.00    +0.000 A 
ATOM      7  C   UNL     1       7.063   6.644  16.461  0.00  0.00    +0.000 A 
BRANCH   2   9
ATOM      8  F   UNL     1       7.105   4.422  14.288  0.00  0.00    +0.000 F 
ATOM      9  C   UNL     1       6.308   4.494  15.390  0.00  0.00    +0.000 C 
ATOM     10  F   UNL     1       5.137   5.048  14.971  0.00  0.00    +0.000 F 
ATOM     11  F   UNL     1       6.012   3.205  15.718  0.00  0.00    +0.000 F 
ENDBRANCH   2   9
ENDBRANCH   1   6
BRANCH   1  12
ATOM     12  C   UNL     1       8.627   9.239  18.558  0.00  0.00    +0.000 C 
BRANCH  12  13
ATOM     13  C   UNL     1       9.016  10.678  18.222  0.00  0.00    +0.000 C 
BRANCH  13  14
ATOM     14  C   UNL     1      10.148  11.133  19.144  0.00  0.00    +0.000 C 
BRANCH  14  15
ATOM     15  C   UNL     1      11.385  11.588  18.371  0.00  0.00    +0.000 C 
BRANCH  15  16
ATOM     16  C   UNL     1      11.183  12.936  17.768  0.00  0.00    +0.000 A 
ATOM     17  C   UNL     1      11.463  13.369  16.491  0.00  0.00    +0.000 A 
ATOM     18  N   UNL     1      11.101  14.687  16.467  0.00  0.00    +0.000 N 
ATOM     19  C   UNL     1      10.627  15.004  17.709  0.00  0.00    +0.000 A 
ATOM     20  N   UNL     1      10.667  13.969  18.516  0.00  0.00    +0.000 NA
ATOM     21  H   UNL     1      11.169  15.318  15.681  0.00  0.00    +0.000 HD
ENDBRANCH  15  16
ENDBRANCH  14  15
ENDBRANCH  13  14
ENDBRANCH  12  13
ENDBRANCH   1  12
TORSDOF 7
ENDMDL
MODEL 8
REMARK VINA RESULT:      -6.4      4.198      6.454
REMARK  Name = 
REMARK  7 active torsions:
REMARK  status: ('A' for Active; 'I' for Inactive)
REMARK    1  A    between atoms: C_2  and  C_5
REMARK    2  A    between atoms: C_9  and  O_10
REMARK    3  A    between atoms: O_10  and  C_11
REMARK    4  A    between atoms: C_11  and  C_12
REMARK    5  A    between atoms: C_12  and  C_13
REMARK    6  A    between atoms: C_13  and  C_14
REMARK    7  A    between atoms: C_14  and  C_15
REMARK                            x       y       z     vdW  Elec       q    Type
REMARK                         _______ _______ _______ _____ _____    ______ ____
ROOT
ATOM      1  O   UNL     1       4.944   5.821  18.404  0.00  0.00    +0.000 OA
ENDROOT
BRANCH   1   6
ATOM      2  C   UNL     1       2.466   3.614  20.107  0.00  0.00    +0.000 A 
ATOM      3  C   UNL     1       1.759   3.187  18.974  0.00  0.00    +0.000 A 
ATOM      4  C   UNL     1       2.127   3.635  17.708  0.00  0.00    +0.000 A 
ATOM      5  C   UNL     1       3.203   4.514  17.560  0.00  0.00    +0.000 A 
ATOM      6  C   UNL     1       3.908   4.967  18.676  0.00  0.00    +0.000 A 
ATOM      7  C   UNL     1       3.530   4.520  19.946  0.00  0.00    +0.000 A 
BRANCH   2   9
ATOM      8  F   UNL     1       2.887   2.044  21.879  0.00  0.00    +0.000 F 
ATOM      9  C   UNL     1       2.128   3.104  21.485  0.00  0.00    +0.000 C 
ATOM     10  F   UNL     1       0.832   2.701  21.593  0.00  0.00    +0.000 F 
ATOM     11  F   UNL     1       2.300   4.059  22.442  0.00  0.00    +0.000 F 
ENDBRANCH   2   9
ENDBRANCH   1   6
BRANCH   1  12
ATOM     12  C   UNL     1       6.202   5.473  18.982  0.00  0.00    +0.000 C 
BRANCH  12  13
ATOM     13  C   UNL     1       7.073   4.768  17.943  0.00  0.00    +0.000 C 
BRANCH  13  14
ATOM     14  C   UNL     1       6.745   5.302  16.549  0.00  0.00    +0.000 C 
BRANCH  14  15
ATOM     15  C   UNL     1       6.239   4.210  15.608  0.00  0.00    +0.000 C 
BRANCH  15  16
ATOM     16  C   UNL     1       6.728   4.421  14.217  0.00  0.00    +0.000 A 
ATOM     17  C   UNL     1       6.367   3.771  13.058  0.00  0.00    +0.000 A 
ATOM     18  N   UNL     1       7.121   4.340  12.071  0.00  0.00    +0.000 N 
ATOM     19  C   UNL     1       7.906   5.296  12.654  0.00  0.00    +0.000 A 
ATOM     20  N   UNL     1       7.692   5.366  13.948  0.00  0.00    +0.000 NA
ATOM     21  H   UNL     1       7.110   4.103  11.089  0.00  0.00    +0.000 HD
ENDBRANCH  15  16
ENDBRANCH  14  15
ENDBRANCH  13  14
ENDBRANCH  12  13
ENDBRANCH   1  12
TORSDOF 7
ENDMDL
MODEL 9
REMARK VINA RESULT:      -6.4      1.085      1.450
REMARK  Name = 
REMARK  7 active torsions:
REMARK  status: ('A' for Active; 'I' for Inactive)
REMARK    1  A    between atoms: C_2  and  C_5
REMARK    2  A    between atoms: C_9  and  O_10
REMARK    3  A    between atoms: O_10  and  C_11
REMARK    4  A    between atoms: C_11  and  C_12
REMARK    5  A    between atoms: C_12  and  C_13
REMARK    6  A    between atoms: C_13  and  C_14
REMARK    7  A    between atoms: C_14  and  C_15
REMARK                            x       y       z     vdW  Elec       q    Type
REMARK                         _______ _______ _______ _____ _____    ______ ____
ROOT
ATOM      1  O   UNL     1       4.071   5.656  19.769  0.00  0.00    +0.000 OA
ENDROOT
BRANCH   1   6
ATOM      2  C   UNL     1       5.955   5.296  16.571  0.00  0.00    +0.000 A 
ATOM      3  C   UNL     1       7.238   5.115  17.107  0.00  0.00    +0.000 A 
ATOM      4  C   UNL     1       7.427   5.115  18.487  0.00  0.00    +0.000 A 
ATOM      5  C   UNL     1       6.338   5.295  19.344  0.00  0.00    +0.000 A 
ATOM      6  C   UNL     1       5.056   5.496  18.831  0.00  0.00    +0.000 A 
ATOM      7  C   UNL     1       4.872   5.504  17.445  0.00  0.00    +0.000 A 
BRANCH   2   9
ATOM      8  F   UNL     1       5.039   6.330  14.603  0.00  0.00    +0.000 F 
ATOM      9  C   UNL     1       5.709   5.246  15.084  0.00  0.00    +0.000 C 
ATOM     10  F   UNL     1       4.983   4.158  14.708  0.00  0.00    +0.000 F 
ATOM     11  F   UNL     1       6.870   5.182  14.373  0.00  0.00    +0.000 F 
ENDBRANCH   2   9
ENDBRANCH   1   6
BRANCH   1  12
ATOM     12  C   UNL     1       2.892   6.326  19.322  0.00  0.00    +0.000 C 
BRANCH  12  13
ATOM     13  C   UNL     1       1.767   5.314  19.117  0.00  0.00    +0.000 C 
BRANCH  13  14
ATOM     14  C   UNL     1       1.434   4.637  20.447  0.00  0.00    +0.000 C 
BRANCH  14  15
ATOM     15  C   UNL     1       1.283   3.123  20.310  0.00  0.00    +0.000 C 
BRANCH  15  16
ATOM     16  C   UNL     1       2.527   2.499  19.777  0.00  0.00    +0.000 A 
ATOM     17  C   UNL     1       2.758   1.934  18.542  0.00  0.00    +0.000 A 
ATOM     18  N   UNL     1       4.054   1.503  18.577  0.00  0.00    +0.000 N 
ATOM     19  C   UNL     1       4.555   1.808  19.811  0.00  0.00    +0.000 A 
ATOM     20  N   UNL     1       3.656   2.407  20.558  0.00  0.00    +0.000 NA
ATOM     21  H   UNL     1       4.557   1.039  17.833  0.00  0.00    +0.000 HD
ENDBRANCH  15  16
ENDBRANCH  14  15
ENDBRANCH  13  14
ENDBRANCH  12  13
ENDBRANCH   1  12
TORSDOF 7
ENDMDL
