MODEL 1
REMARK VINA RESULT:      -8.5      0.000      0.000
REMARK  Name = 
REMARK  7 active torsions:
REMARK  status: ('A' for Active; 'I' for Inactive)
REMARK    1  A    between atoms: C_1  and  C_2
REMARK    2  A    between atoms: N_4  and  C_5
REMARK    3  A    between atoms: C_8  and  S_9
REMARK    4  A    between atoms: S_9  and  N_12
REMARK    5  A    between atoms: N_15  and  C_16
REMARK    6  A    between atoms: C_16  and  C_17
REMARK    7  A    between atoms: C_21  and  N_22
REMARK                            x       y       z     vdW  Elec       q    Type
REMARK                         _______ _______ _______ _____ _____    ______ ____
ROOT
ATOM      1  N   UNL     1       4.345   5.715  19.123  0.00  0.00    +0.000 NA
ATOM      2  C   UNL     1       5.032   4.386  19.168  0.00  0.00    +0.000 C 
ATOM      3  C   UNL     1       4.887   3.587  17.846  0.00  0.00    +0.000 C 
ATOM      4  N   UNL     1       5.114   4.310  16.572  0.00  0.00    +0.000 NA
ATOM      5  C   UNL     1       4.525   5.666  16.620  0.00  0.00    +0.000 C 
ATOM      6  C   UNL     1       4.818   6.458  17.910  0.00  0.00    +0.000 C 
ENDROOT
BRANCH   1   7
ATOM      7  S   UNL     1       2.642   5.736  19.328  0.00  0.00    +0.000 S 
ATOM      8  O   UNL     1       2.341   5.244  20.654  0.00  0.00    +0.000 OA
ATOM      9  O   UNL     1       2.053   5.114  18.159  0.00  0.00    +0.000 OA
BRANCH   7  13
ATOM     10  C   UNL     1       1.092  10.064  19.145  0.00  0.00    +0.000 A 
ATOM     11  C   UNL     1       1.589   9.433  17.997  0.00  0.00    +0.000 A 
ATOM     12  C   UNL     1       2.112   8.130  18.056  0.00  0.00    +0.000 A 
ATOM     13  C   UNL     1       2.149   7.449  19.272  0.00  0.00    +0.000 A 
ATOM     14  C   UNL     1       1.632   8.057  20.422  0.00  0.00    +0.000 A 
ATOM     15  C   UNL     1       1.103   9.356  20.353  0.00  0.00    +0.000 A 
BRANCH  10  19
ATOM     16  C   UNL     1      -0.893  13.280  18.943  0.00  0.00    +0.000 C 
ATOM     17  C   UNL     1      -0.727  11.781  18.936  0.00  0.00    +0.000 C 
ATOM     18  O   UNL     1      -1.688  11.048  18.711  0.00  0.00    +0.000 OA
ATOM     19  N   UNL     1       0.579  11.383  19.167  0.00  0.00    +0.000 N 
ATOM     20  H   UNL     1       1.253  12.123  19.326  0.00  0.00    +0.000 HD
ENDBRANCH  10  19
ENDBRANCH   7  13
ENDBRANCH   1   7
BRANCH   4  21
ATOM     21  C   UNL     1       6.514   4.342  16.138  0.00  0.00    +0.000 C 
BRANCH  21  22
ATOM     22  C   UNL     1       6.689   4.371  14.632  0.00  0.00    +0.000 A 
ATOM     23  C   UNL     1       7.668   5.175  14.021  0.00  0.00    +0.000 A 
ATOM     24  C   UNL     1       7.842   5.168  12.633  0.00  0.00    +0.000 A 
ATOM     25  C   UNL     1       7.056   4.340  11.831  0.00  0.00    +0.000 A 
ATOM     26  C   UNL     1       6.092   3.519  12.433  0.00  0.00    +0.000 A 
ATOM     27  C   UNL     1       5.896   3.546  13.823  0.00  0.00    +0.000 A 
BRANCH  26  28
ATOM     28  N   UNL     1       5.300   2.598  11.612  0.00  0.00    +0.000 N 
ATOM     29  O   UNL     1       4.170   2.963  11.260  0.00  0.00    +0.000 OA
ATOM     30  O   UNL     1       5.813   1.512  11.309  0.00  0.00    +0.000 OA
ENDBRANCH  26  28
ENDBRANCH  21  22
ENDBRANCH   4  21
TORSDOF 6
ENDMDL
MODEL 2
REMARK VINA RESULT:      -8.3      1.172      1.188
REMARK  Name = 
REMARK  7 active torsions:
REMARK  status: ('A' for Active; 'I' for Inactive)
REMARK    1  A    between atoms: C_1  and  C_2
REMARK    2  A    between atoms: N_4  and  C_5
REMARK    3  A    between atoms: C_8  and  S_9
REMARK    4  A    between atoms: S_9  and  N_12
REMARK    5  A    between atoms: N_15  and  C_16
REMARK    6  A    between atoms: C_16  and  C_17
REMARK    7  A    between atoms: C_21  and  N_22
REMARK                            x       y       z     vdW  Elec       q    Type
REMARK                         _______ _______ _______ _____ _____    ______ ____
ROOT
ATOM      1  N   UNL     1       4.520   6.209  18.816  0.00  0.00    +0.000 NA
ATOM      2  C   UNL     1       5.503   5.136  19.164  0.00  0.00    +0.000 C 
ATOM      3  C   UNL     1       5.525   3.978  18.132  0.00  0.00    +0.000 C 
ATOM      4  N   UNL     1       5.546   4.335  16.693  0.00  0.00    +0.000 NA
ATOM      5  C   UNL     1       4.654   5.481  16.416  0.00  0.00    +0.000 C 
ATOM      6  C   UNL     1       4.777   6.655  17.407  0.00  0.00    +0.000 C 
ENDROOT
BRANCH   1   7
ATOM      7  S   UNL     1       2.865   5.910  19.156  0.00  0.00    +0.000 S 
ATOM      8  O   UNL     1       2.790   5.096  20.348  0.00  0.00    +0.000 OA
ATOM      9  O   UNL     1       2.237   5.476  17.925  0.00  0.00    +0.000 OA
BRANCH   7  13
ATOM     10  C   UNL     1       0.724   9.870  20.108  0.00  0.00    +0.000 A 
ATOM     11  C   UNL     1       1.220   9.617  18.823  0.00  0.00    +0.000 A 
ATOM     12  C   UNL     1       1.921   8.432  18.537  0.00  0.00    +0.000 A 
ATOM     13  C   UNL     1       2.137   7.492  19.545  0.00  0.00    +0.000 A 
ATOM     14  C   UNL     1       1.624   7.720  20.826  0.00  0.00    +0.000 A 
ATOM     15  C   UNL     1       0.918   8.902  21.101  0.00  0.00    +0.000 A 
BRANCH  10  19
ATOM     16  C   UNL     1      -0.457  13.250  21.335  0.00  0.00    +0.000 C 
ATOM     17  C   UNL     1       0.586  12.232  20.948  0.00  0.00    +0.000 C 
ATOM     18  O   UNL     1       1.782  12.477  21.091  0.00  0.00    +0.000 OA
ATOM     19  N   UNL     1       0.036  11.052  20.475  0.00  0.00    +0.000 N 
ATOM     20  H   UNL     1      -0.975  11.013  20.430  0.00  0.00    +0.000 HD
ENDBRANCH  10  19
ENDBRANCH   7  13
ENDBRANCH   1   7
BRANCH   4  21
ATOM     21  C   UNL     1       6.890   4.548  16.146  0.00  0.00    +0.000 C 
BRANCH  21  22
ATOM     22  C   UNL     1       6.941   4.549  14.630  0.00  0.00    +0.000 A 
ATOM     23  C   UNL     1       7.875   5.334  13.927  0.00  0.00    +0.000 A 
ATOM     24  C   UNL     1       7.934   5.301  12.530  0.00  0.00    +0.000 A 
ATOM     25  C   UNL     1       7.079   4.466  11.809  0.00  0.00    +0.000 A 
ATOM     26  C   UNL     1       6.160   3.666  12.503  0.00  0.00    +0.000 A 
ATOM     27  C   UNL     1       6.078   3.719  13.903  0.00  0.00    +0.000 A 
BRANCH  26  28
ATOM     28  N   UNL     1       5.296   2.739  11.766  0.00  0.00    +0.000 N 
ATOM     29  O   UNL     1       4.179   3.143  11.415  0.00  0.00    +0.000 OA
ATOM     30  O   UNL     1       5.740   1.607  11.527  0.00  0.00    +0.000 OA
ENDBRANCH  26  28
ENDBRANCH  21  22
ENDBRANCH   4  21
TORSDOF 6
ENDMDL
MODEL 3
REMARK VINA RESULT:      -8.2      1.084      1.226
REMARK  Name = 
REMARK  7 active torsions:
REMARK  status: ('A' for Active; 'I' for Inactive)
REMARK    1  A    between atoms: C_1  and  C_2
REMARK    2  A    between atoms: N_4  and  C_5
REMARK    3  A    between atoms: C_8  and  S_9
REMARK    4  A    between atoms: S_9  and  N_12
REMARK    5  A    between atoms: N_15  and  C_16
REMARK    6  A    between atoms: C_16  and  C_17
REMARK    7  A    between atoms: C_21  and  N_22
REMARK                            x       y       z     vdW  Elec       q    Type
REMARK                         _______ _______ _______ _____ _____    ______ ____
ROOT
ATOM      1  N   UNL     1       4.045   5.187  19.308  0.00  0.00    +0.000 NA
ATOM      2  C   UNL     1       4.556   3.815  19.000  0.00  0.00    +0.000 C 
ATOM      3  C   UNL     1       4.416   3.440  17.501  0.00  0.00    +0.000 C 
ATOM      4  N   UNL     1       4.828   4.448  16.495  0.00  0.00    +0.000 NA
ATOM      5  C   UNL     1       4.411   5.807  16.903  0.00  0.00    +0.000 C 
ATOM      6  C   UNL     1       4.700   6.162  18.375  0.00  0.00    +0.000 C 
ENDROOT
BRANCH   1   7
ATOM      7  S   UNL     1       2.348   5.391  19.444  0.00  0.00    +0.000 S 
ATOM      8  O   UNL     1       1.947   4.969  20.767  0.00  0.00    +0.000 OA
ATOM      9  O   UNL     1       1.741   4.804  18.266  0.00  0.00    +0.000 OA
BRANCH   7  13
ATOM     10  C   UNL     1       1.266   9.853  19.129  0.00  0.00    +0.000 A 
ATOM     11  C   UNL     1       1.627   9.122  17.989  0.00  0.00    +0.000 A 
ATOM     12  C   UNL     1       2.008   7.773  18.084  0.00  0.00    +0.000 A 
ATOM     13  C   UNL     1       2.040   7.145  19.329  0.00  0.00    +0.000 A 
ATOM     14  C   UNL     1       1.657   7.855  20.473  0.00  0.00    +0.000 A 
ATOM     15  C   UNL     1       1.269   9.200  20.368  0.00  0.00    +0.000 A 
BRANCH  10  19
ATOM     16  C   UNL     1       0.973  13.615  18.839  0.00  0.00    +0.000 C 
ATOM     17  C   UNL     1       1.625  12.278  18.590  0.00  0.00    +0.000 C 
ATOM     18  O   UNL     1       2.704  12.209  18.003  0.00  0.00    +0.000 OA
ATOM     19  N   UNL     1       0.901  11.220  19.113  0.00  0.00    +0.000 N 
ATOM     20  H   UNL     1       0.032  11.456  19.577  0.00  0.00    +0.000 HD
ENDBRANCH  10  19
ENDBRANCH   7  13
ENDBRANCH   1   7
BRANCH   4  21
ATOM     21  C   UNL     1       6.251   4.399  16.143  0.00  0.00    +0.000 C 
BRANCH  21  22
ATOM     22  C   UNL     1       6.513   4.390  14.649  0.00  0.00    +0.000 A 
ATOM     23  C   UNL     1       7.537   5.169  14.078  0.00  0.00    +0.000 A 
ATOM     24  C   UNL     1       7.790   5.127  12.703  0.00  0.00    +0.000 A 
ATOM     25  C   UNL     1       7.041   4.289  11.876  0.00  0.00    +0.000 A 
ATOM     26  C   UNL     1       6.033   3.494  12.439  0.00  0.00    +0.000 A 
ATOM     27  C   UNL     1       5.758   3.556  13.814  0.00  0.00    +0.000 A 
BRANCH  26  28
ATOM     28  N   UNL     1       5.278   2.563  11.596  0.00  0.00    +0.000 N 
ATOM     29  O   UNL     1       5.750   1.432  11.417  0.00  0.00    +0.000 OA
ATOM     30  O   UNL     1       4.205   2.960  11.120  0.00  0.00    +0.000 OA
ENDBRANCH  26  28
ENDBRANCH  21  22
ENDBRANCH   4  21
TORSDOF 6
ENDMDL
MODEL 4
REMARK VINA RESULT:      -8.2      0.264      1.096
REMARK  Name = 
REMARK  7 active torsions:
REMARK  status: ('A' for Active; 'I' for Inactive)
REMARK    1  A    between atoms: C_1  and  C_2
REMARK    2  A    between atoms: N_4  and  C_5
REMARK    3  A    between atoms: C_8  and  S_9
REMARK    4  A    between atoms: S_9  and  N_12
REMARK    5  A    between atoms: N_15  and  C_16
REMARK    6  A    between atoms: C_16  and  C_17
REMARK    7  A    between atoms: C_21  and  N_22
REMARK                            x       y       z     vdW  Elec       q    Type
REMARK                         _______ _______ _______ _____ _____    ______ ____
ROOT
ATOM      1  N   UNL     1       4.316   5.748  19.135  0.00  0.00    +0.000 NA
ATOM      2  C   UNL     1       5.093   4.472  19.222  0.00  0.00    +0.000 C 
ATOM      3  C   UNL     1       4.999   3.618  17.931  0.00  0.00    +0.000 C 
ATOM      4  N   UNL     1       5.171   4.309  16.631  0.00  0.00    +0.000 NA
ATOM      5  C   UNL     1       4.491   5.622  16.633  0.00  0.00    +0.000 C 
ATOM      6  C   UNL     1       4.733   6.478  17.893  0.00  0.00    +0.000 C 
ENDROOT
BRANCH   1   7
ATOM      7  S   UNL     1       2.617   5.660  19.349  0.00  0.00    +0.000 S 
ATOM      8  O   UNL     1       2.354   5.251  20.711  0.00  0.00    +0.000 OA
ATOM      9  O   UNL     1       2.073   4.909  18.235  0.00  0.00    +0.000 OA
BRANCH   7  13
ATOM     10  C   UNL     1       1.299  10.046  18.904  0.00  0.00    +0.000 A 
ATOM     11  C   UNL     1       1.255   9.410  20.151  0.00  0.00    +0.000 A 
ATOM     12  C   UNL     1       1.607   8.056  20.286  0.00  0.00    +0.000 A 
ATOM     13  C   UNL     1       1.998   7.323  19.165  0.00  0.00    +0.000 A 
ATOM     14  C   UNL     1       2.071   7.954  17.918  0.00  0.00    +0.000 A 
ATOM     15  C   UNL     1       1.728   9.309  17.793  0.00  0.00    +0.000 A 
BRANCH  10  19
ATOM     16  C   UNL     1      -0.372  13.395  18.341  0.00  0.00    +0.000 C 
ATOM     17  C   UNL     1      -0.344  11.935  18.717  0.00  0.00    +0.000 C 
ATOM     18  O   UNL     1      -1.387  11.338  18.980  0.00  0.00    +0.000 OA
ATOM     19  N   UNL     1       0.931  11.396  18.688  0.00  0.00    +0.000 N 
ATOM     20  H   UNL     1       1.682  12.030  18.440  0.00  0.00    +0.000 HD
ENDBRANCH  10  19
ENDBRANCH   7  13
ENDBRANCH   1   7
BRANCH   4  21
ATOM     21  C   UNL     1       6.564   4.420  16.188  0.00  0.00    +0.000 C 
BRANCH  21  22
ATOM     22  C   UNL     1       6.729   4.438  14.681  0.00  0.00    +0.000 A 
ATOM     23  C   UNL     1       7.712   5.229  14.058  0.00  0.00    +0.000 A 
ATOM     24  C   UNL     1       7.876   5.211  12.669  0.00  0.00    +0.000 A 
ATOM     25  C   UNL     1       7.076   4.386  11.877  0.00  0.00    +0.000 A 
ATOM     26  C   UNL     1       6.108   3.580  12.491  0.00  0.00    +0.000 A 
ATOM     27  C   UNL     1       5.922   3.617  13.882  0.00  0.00    +0.000 A 
BRANCH  26  28
ATOM     28  N   UNL     1       5.301   2.662  11.682  0.00  0.00    +0.000 N 
ATOM     29  O   UNL     1       5.798   1.567  11.379  0.00  0.00    +0.000 OA
ATOM     30  O   UNL     1       4.164   3.030  11.357  0.00  0.00    +0.000 OA
ENDBRANCH  26  28
ENDBRANCH  21  22
ENDBRANCH   4  21
TORSDOF 6
ENDMDL
MODEL 5
REMARK VINA RESULT:      -7.9      0.910      1.276
REMARK  Name = 
REMARK  7 active torsions:
REMARK  status: ('A' for Active; 'I' for Inactive)
REMARK    1  A    between atoms: C_1  and  C_2
REMARK    2  A    between atoms: N_4  and  C_5
REMARK    3  A    between atoms: C_8  and  S_9
REMARK    4  A    between atoms: S_9  and  N_12
REMARK    5  A    between atoms: N_15  and  C_16
REMARK    6  A    between atoms: C_16  and  C_17
REMARK    7  A    between atoms: C_21  and  N_22
REMARK                            x       y       z     vdW  Elec       q    Type
REMARK                         _______ _______ _______ _____ _____    ______ ____
ROOT
ATOM      1  N   UNL     1       4.306   5.565  19.155  0.00  0.00    +0.000 NA
ATOM      2  C   UNL     1       5.074   4.282  19.122  0.00  0.00    +0.000 C 
ATOM      3  C   UNL     1       4.971   3.551  17.758  0.00  0.00    +0.000 C 
ATOM      4  N   UNL     1       5.145   4.358  16.527  0.00  0.00    +0.000 NA
ATOM      5  C   UNL     1       4.474   5.670  16.652  0.00  0.00    +0.000 C 
ATOM      6  C   UNL     1       4.725   6.404  17.984  0.00  0.00    +0.000 C 
ENDROOT
BRANCH   1   7
ATOM      7  S   UNL     1       2.607   5.469  19.365  0.00  0.00    +0.000 S 
ATOM      8  O   UNL     1       2.344   4.946  20.688  0.00  0.00    +0.000 OA
ATOM      9  O   UNL     1       2.057   4.820  18.193  0.00  0.00    +0.000 OA
BRANCH   7  13
ATOM     10  C   UNL     1       1.315   9.885  19.287  0.00  0.00    +0.000 A 
ATOM     11  C   UNL     1       1.322   9.163  20.488  0.00  0.00    +0.000 A 
ATOM     12  C   UNL     1       1.665   7.800  20.512  0.00  0.00    +0.000 A 
ATOM     13  C   UNL     1       1.998   7.146  19.326  0.00  0.00    +0.000 A 
ATOM     14  C   UNL     1       2.021   7.861  18.123  0.00  0.00    +0.000 A 
ATOM     15  C   UNL     1       1.686   9.224  18.110  0.00  0.00    +0.000 A 
BRANCH  10  19
ATOM     16  C   UNL     1       0.362  13.519  19.743  0.00  0.00    +0.000 C 
ATOM     17  C   UNL     1       0.884  12.181  20.204  0.00  0.00    +0.000 C 
ATOM     18  O   UNL     1       1.171  11.997  21.386  0.00  0.00    +0.000 OA
ATOM     19  N   UNL     1       0.952  11.249  19.183  0.00  0.00    +0.000 N 
ATOM     20  H   UNL     1       0.667  11.567  18.264  0.00  0.00    +0.000 HD
ENDBRANCH  10  19
ENDBRANCH   7  13
ENDBRANCH   1   7
BRANCH   4  21
ATOM     21  C   UNL     1       6.538   4.500  16.092  0.00  0.00    +0.000 C 
BRANCH  21  22
ATOM     22  C   UNL     1       6.717   4.462  14.586  0.00  0.00    +0.000 A 
ATOM     23  C   UNL     1       7.730   5.202  13.948  0.00  0.00    +0.000 A 
ATOM     24  C   UNL     1       7.906   5.133  12.562  0.00  0.00    +0.000 A 
ATOM     25  C   UNL     1       7.090   4.305  11.790  0.00  0.00    +0.000 A 
ATOM     26  C   UNL     1       6.093   3.548  12.421  0.00  0.00    +0.000 A 
ATOM     27  C   UNL     1       5.895   3.637  13.807  0.00  0.00    +0.000 A 
BRANCH  26  28
ATOM     28  N   UNL     1       5.267   2.627  11.634  0.00  0.00    +0.000 N 
ATOM     29  O   UNL     1       4.147   3.016  11.274  0.00  0.00    +0.000 OA
ATOM     30  O   UNL     1       5.743   1.515  11.365  0.00  0.00    +0.000 OA
ENDBRANCH  26  28
ENDBRANCH  21  22
ENDBRANCH   4  21
TORSDOF 6
ENDMDL
MODEL 6
REMARK VINA RESULT:      -7.6      4.044      6.551
REMARK  Name = 
REMARK  7 active torsions:
REMARK  status: ('A' for Active; 'I' for Inactive)
REMARK    1  A    between atoms: C_1  and  C_2
REMARK    2  A    between atoms: N_4  and  C_5
REMARK    3  A    between atoms: C_8  and  S_9
REMARK    4  A    between atoms: S_9  and  N_12
REMARK    5  A    between atoms: N_15  and  C_16
REMARK    6  A    between atoms: C_16  and  C_17
REMARK    7  A    between atoms: C_21  and  N_22
REMARK                            x       y       z     vdW  Elec       q    Type
REMARK                         _______ _______ _______ _____ _____    ______ ____
ROOT
ATOM      1  N   UNL     1      -0.410   9.609  20.720  0.00  0.00    +0.000 NA
ATOM      2  C   UNL     1      -0.205   9.899  19.266  0.00  0.00    +0.000 C 
ATOM      3  C   UNL     1       1.279   9.783  18.830  0.00  0.00    +0.000 C 
ATOM      4  N   UNL     1       2.046   8.604  19.296  0.00  0.00    +0.000 NA
ATOM      5  C   UNL     1       1.718   8.277  20.700  0.00  0.00    +0.000 C 
ATOM      6  C   UNL     1       0.214   8.282  21.035  0.00  0.00    +0.000 C 
ENDROOT
BRANCH   1   7
ATOM      7  S   UNL     1      -0.012  10.845  21.840  0.00  0.00    +0.000 S 
ATOM      8  O   UNL     1       0.933  11.739  21.209  0.00  0.00    +0.000 OA
ATOM      9  O   UNL     1       0.305  10.207  23.102  0.00  0.00    +0.000 OA
BRANCH   7  13
ATOM     10  C   UNL     1      -4.029  12.985  22.517  0.00  0.00    +0.000 A 
ATOM     11  C   UNL     1      -3.401  13.022  21.265  0.00  0.00    +0.000 A 
ATOM     12  C   UNL     1      -2.149  12.415  21.064  0.00  0.00    +0.000 A 
ATOM     13  C   UNL     1      -1.511  11.770  22.124  0.00  0.00    +0.000 A 
ATOM     14  C   UNL     1      -2.139  11.703  23.372  0.00  0.00    +0.000 A 
ATOM     15  C   UNL     1      -3.393  12.303  23.562  0.00  0.00    +0.000 A 
BRANCH  10  19
ATOM     16  C   UNL     1      -7.642  14.018  22.974  0.00  0.00    +0.000 C 
ATOM     17  C   UNL     1      -6.533  13.037  22.681  0.00  0.00    +0.000 C 
ATOM     18  O   UNL     1      -6.793  11.882  22.348  0.00  0.00    +0.000 OA
ATOM     19  N   UNL     1      -5.273  13.598  22.800  0.00  0.00    +0.000 N 
ATOM     20  H   UNL     1      -5.239  14.572  23.077  0.00  0.00    +0.000 HD
ENDBRANCH  10  19
ENDBRANCH   7  13
ENDBRANCH   1   7
BRANCH   4  21
ATOM     21  C   UNL     1       1.932   7.429  18.425  0.00  0.00    +0.000 C 
BRANCH  21  22
ATOM     22  C   UNL     1       3.172   6.556  18.407  0.00  0.00    +0.000 A 
ATOM     23  C   UNL     1       3.320   5.471  19.290  0.00  0.00    +0.000 A 
ATOM     24  C   UNL     1       4.454   4.653  19.241  0.00  0.00    +0.000 A 
ATOM     25  C   UNL     1       5.451   4.890  18.293  0.00  0.00    +0.000 A 
ATOM     26  C   UNL     1       5.302   5.956  17.396  0.00  0.00    +0.000 A 
ATOM     27  C   UNL     1       4.179   6.796  17.462  0.00  0.00    +0.000 A 
BRANCH  26  28
ATOM     28  N   UNL     1       6.309   6.182  16.355  0.00  0.00    +0.000 N 
ATOM     29  O   UNL     1       7.403   6.650  16.701  0.00  0.00    +0.000 OA
ATOM     30  O   UNL     1       6.010   5.881  15.191  0.00  0.00    +0.000 OA
ENDBRANCH  26  28
ENDBRANCH  21  22
ENDBRANCH   4  21
TORSDOF 6
ENDMDL
MODEL 7
REMARK VINA RESULT:      -7.6      3.762      6.136
REMARK  Name = 
REMARK  7 active torsions:
REMARK  status: ('A' for Active; 'I' for Inactive)
REMARK    1  A    between atoms: C_1  and  C_2
REMARK    2  A    between atoms: N_4  and  C_5
REMARK    3  A    between atoms: C_8  and  S_9
REMARK    4  A    between atoms: S_9  and  N_12
REMARK    5  A    between atoms: N_15  and  C_16
REMARK    6  A    between atoms: C_16  and  C_17
REMARK    7  A    between atoms: C_21  and  N_22
REMARK                            x       y       z     vdW  Elec       q    Type
REMARK                         _______ _______ _______ _____ _____    ______ ____
ROOT
ATOM      1  N   UNL     1       0.082   9.813  19.795  0.00  0.00    +0.000 NA
ATOM      2  C   UNL     1       0.524   9.769  18.366  0.00  0.00    +0.000 C 
ATOM      3  C   UNL     1       1.966   9.221  18.197  0.00  0.00    +0.000 C 
ATOM      4  N   UNL     1       2.333   7.999  18.952  0.00  0.00    +0.000 NA
ATOM      5  C   UNL     1       1.769   8.029  20.319  0.00  0.00    +0.000 C 
ATOM      6  C   UNL     1       0.291   8.458  20.403  0.00  0.00    +0.000 C 
ENDROOT
BRANCH   1   7
ATOM      7  S   UNL     1       0.659  11.104  20.766  0.00  0.00    +0.000 S 
ATOM      8  O   UNL     1       1.339  12.046  19.906  0.00  0.00    +0.000 OA
ATOM      9  O   UNL     1       1.337  10.524  21.908  0.00  0.00    +0.000 OA
BRANCH   7  13
ATOM     10  C   UNL     1      -3.206  12.971  22.426  0.00  0.00    +0.000 A 
ATOM     11  C   UNL     1      -2.885  13.080  21.066  0.00  0.00    +0.000 A 
ATOM     12  C   UNL     1      -1.682  12.557  20.561  0.00  0.00    +0.000 A 
ATOM     13  C   UNL     1      -0.783  11.926  21.421  0.00  0.00    +0.000 A 
ATOM     14  C   UNL     1      -1.102  11.787  22.776  0.00  0.00    +0.000 A 
ATOM     15  C   UNL     1      -2.310  12.303  23.270  0.00  0.00    +0.000 A 
BRANCH  10  19
ATOM     16  C   UNL     1      -6.699  13.903  23.546  0.00  0.00    +0.000 C 
ATOM     17  C   UNL     1      -5.678  13.033  22.856  0.00  0.00    +0.000 C 
ATOM     18  O   UNL     1      -6.031  12.045  22.214  0.00  0.00    +0.000 OA
ATOM     19  N   UNL     1      -4.383  13.498  23.009  0.00  0.00    +0.000 N 
ATOM     20  H   UNL     1      -4.269  14.337  23.565  0.00  0.00    +0.000 HD
ENDBRANCH  10  19
ENDBRANCH   7  13
ENDBRANCH   1   7
BRANCH   4  21
ATOM     21  C   UNL     1       2.015   6.746  18.261  0.00  0.00    +0.000 C 
BRANCH  21  22
ATOM     22  C   UNL     1       3.235   5.929  17.879  0.00  0.00    +0.000 A 
ATOM     23  C   UNL     1       3.177   4.527  17.774  0.00  0.00    +0.000 A 
ATOM     24  C   UNL     1       4.300   3.788  17.389  0.00  0.00    +0.000 A 
ATOM     25  C   UNL     1       5.496   4.437  17.078  0.00  0.00    +0.000 A 
ATOM     26  C   UNL     1       5.556   5.834  17.160  0.00  0.00    +0.000 A 
ATOM     27  C   UNL     1       4.439   6.577  17.574  0.00  0.00    +0.000 A 
BRANCH  26  28
ATOM     28  N   UNL     1       6.785   6.537  16.778  0.00  0.00    +0.000 N 
ATOM     29  O   UNL     1       7.613   5.922  16.091  0.00  0.00    +0.000 OA
ATOM     30  O   UNL     1       6.919   7.709  17.156  0.00  0.00    +0.000 OA
ENDBRANCH  26  28
ENDBRANCH  21  22
ENDBRANCH   4  21
TORSDOF 6
ENDMDL
MODEL 8
REMARK VINA RESULT:      -7.4      4.113      7.253
REMARK  Name = 
REMARK  7 active torsions:
REMARK  status: ('A' for Active; 'I' for Inactive)
REMARK    1  A    between atoms: C_1  and  C_2
REMARK    2  A    between atoms: N_4  and  C_5
REMARK    3  A    between atoms: C_8  and  S_9
REMARK    4  A    between atoms: S_9  and  N_12
REMARK    5  A    between atoms: N_15  and  C_16
REMARK    6  A    between atoms: C_16  and  C_17
REMARK    7  A    between atoms: C_21  and  N_22
REMARK                            x       y       z     vdW  Elec       q    Type
REMARK                         _______ _______ _______ _____ _____    ______ ____
ROOT
ATOM      1  N   UNL     1      -0.693  10.592  20.238  0.00  0.00    +0.000 NA
ATOM      2  C   UNL     1      -0.199  10.935  18.868  0.00  0.00    +0.000 C 
ATOM      3  C   UNL     1       1.300  10.589  18.661  0.00  0.00    +0.000 C 
ATOM      4  N   UNL     1       1.773   9.265  19.130  0.00  0.00    +0.000 NA
ATOM      5  C   UNL     1       1.162   8.911  20.429  0.00  0.00    +0.000 C 
ATOM      6  C   UNL     1      -0.357   9.159  20.523  0.00  0.00    +0.000 C 
ENDROOT
BRANCH   1   7
ATOM      7  S   UNL     1      -0.296  11.664  21.517  0.00  0.00    +0.000 S 
ATOM      8  O   UNL     1       0.524  12.725  20.978  0.00  0.00    +0.000 OA
ATOM      9  O   UNL     1       0.171  10.862  22.630  0.00  0.00    +0.000 OA
BRANCH   7  13
ATOM     10  C   UNL     1      -4.358  13.286  22.944  0.00  0.00    +0.000 A 
ATOM     11  C   UNL     1      -4.101  13.104  21.579  0.00  0.00    +0.000 A 
ATOM     12  C   UNL     1      -2.845  12.658  21.132  0.00  0.00    +0.000 A 
ATOM     13  C   UNL     1      -1.831  12.398  22.054  0.00  0.00    +0.000 A 
ATOM     14  C   UNL     1      -2.083  12.551  23.422  0.00  0.00    +0.000 A 
ATOM     15  C   UNL     1      -3.342  12.988  23.860  0.00  0.00    +0.000 A 
BRANCH  10  19
ATOM     16  C   UNL     1      -7.845  13.847  24.305  0.00  0.00    +0.000 C 
ATOM     17  C   UNL     1      -6.658  13.005  23.911  0.00  0.00    +0.000 C 
ATOM     18  O   UNL     1      -6.713  11.778  23.976  0.00  0.00    +0.000 OA
ATOM     19  N   UNL     1      -5.587  13.760  23.464  0.00  0.00    +0.000 N 
ATOM     20  H   UNL     1      -5.713  14.765  23.467  0.00  0.00    +0.000 HD
ENDBRANCH  10  19
ENDBRANCH   7  13
ENDBRANCH   1   7
BRANCH   4  21
ATOM     21  C   UNL     1       1.619   8.188  18.147  0.00  0.00    +0.000 C 
BRANCH  21  22
ATOM     22  C   UNL     1       2.823   7.269  18.050  0.00  0.00    +0.000 A 
ATOM     23  C   UNL     1       3.948   7.611  17.276  0.00  0.00    +0.000 A 
ATOM     24  C   UNL     1       5.064   6.771  17.221  0.00  0.00    +0.000 A 
ATOM     25  C   UNL     1       5.089   5.585  17.956  0.00  0.00    +0.000 A 
ATOM     26  C   UNL     1       3.982   5.247  18.746  0.00  0.00    +0.000 A 
ATOM     27  C   UNL     1       2.848   6.074  18.780  0.00  0.00    +0.000 A 
BRANCH  26  28
ATOM     28  N   UNL     1       4.015   4.037  19.572  0.00  0.00    +0.000 N 
ATOM     29  O   UNL     1       5.061   3.373  19.584  0.00  0.00    +0.000 OA
ATOM     30  O   UNL     1       2.998   3.755  20.220  0.00  0.00    +0.000 OA
ENDBRANCH  26  28
ENDBRANCH  21  22
ENDBRANCH   4  21
TORSDOF 6
ENDMDL
MODEL 9
REMARK VINA RESULT:      -7.4      4.089      6.993
REMARK  Name = 
REMARK  7 active torsions:
REMARK  status: ('A' for Active; 'I' for Inactive)
REMARK    1  A    between atoms: C_1  and  C_2
REMARK    2  A    between atoms: N_4  and  C_5
REMARK    3  A    between atoms: C_8  and  S_9
REMARK    4  A    between atoms: S_9  and  N_12
REMARK    5  A    between atoms: N_15  and  C_16
REMARK    6  A    between atoms: C_16  and  C_17
REMARK    7  A    between atoms: C_21  and  N_22
REMARK                            x       y       z     vdW  Elec       q    Type
REMARK                         _______ _______ _______ _____ _____    ______ ____
ROOT
ATOM      1  N   UNL     1      -0.633  10.097  20.067  0.00  0.00    +0.000 NA
ATOM      2  C   UNL     1      -0.232  10.153  18.627  0.00  0.00    +0.000 C 
ATOM      3  C   UNL     1       1.285   9.904  18.412  0.00  0.00    +0.000 C 
ATOM      4  N   UNL     1       1.910   8.775  19.142  0.00  0.00    +0.000 NA
ATOM      5  C   UNL     1       1.390   8.682  20.523  0.00  0.00    +0.000 C 
ATOM      6  C   UNL     1      -0.141   8.806  20.651  0.00  0.00    +0.000 C 
ENDROOT
BRANCH   1   7
ATOM      7  S   UNL     1      -0.298  11.470  21.039  0.00  0.00    +0.000 S 
ATOM      8  O   UNL     1       0.171  12.530  20.176  0.00  0.00    +0.000 OA
ATOM      9  O   UNL     1       0.500  11.025  22.163  0.00  0.00    +0.000 OA
BRANCH   7  13
ATOM     10  C   UNL     1      -4.205  13.089  22.854  0.00  0.00    +0.000 A 
ATOM     11  C   UNL     1      -3.278  12.401  23.648  0.00  0.00    +0.000 A 
ATOM     12  C   UNL     1      -2.107  11.859  23.091  0.00  0.00    +0.000 A 
ATOM     13  C   UNL     1      -1.859  11.995  21.725  0.00  0.00    +0.000 A 
ATOM     14  C   UNL     1      -2.764  12.702  20.925  0.00  0.00    +0.000 A 
ATOM     15  C   UNL     1      -3.926  13.248  21.491  0.00  0.00    +0.000 A 
BRANCH  10  19
ATOM     16  C   UNL     1      -7.664  13.847  24.188  0.00  0.00    +0.000 C 
ATOM     17  C   UNL     1      -6.499  12.946  23.862  0.00  0.00    +0.000 C 
ATOM     18  O   UNL     1      -6.581  11.732  24.037  0.00  0.00    +0.000 OA
ATOM     19  N   UNL     1      -5.417  13.635  23.340  0.00  0.00    +0.000 N 
ATOM     20  H   UNL     1      -5.522  14.638  23.253  0.00  0.00    +0.000 HD
ENDBRANCH  10  19
ENDBRANCH   7  13
ENDBRANCH   1   7
BRANCH   4  21
ATOM     21  C   UNL     1       1.828   7.488  18.443  0.00  0.00    +0.000 C 
BRANCH  21  22
ATOM     22  C   UNL     1       3.173   6.946  17.998  0.00  0.00    +0.000 A 
ATOM     23  C   UNL     1       3.777   7.370  16.800  0.00  0.00    +0.000 A 
ATOM     24  C   UNL     1       5.032   6.887  16.417  0.00  0.00    +0.000 A 
ATOM     25  C   UNL     1       5.720   5.990  17.235  0.00  0.00    +0.000 A 
ATOM     26  C   UNL     1       5.135   5.578  18.441  0.00  0.00    +0.000 A 
ATOM     27  C   UNL     1       3.863   6.038  18.814  0.00  0.00    +0.000 A 
BRANCH  26  28
ATOM     28  N   UNL     1       5.869   4.684  19.341  0.00  0.00    +0.000 N 
ATOM     29  O   UNL     1       5.414   3.546  19.524  0.00  0.00    +0.000 OA
ATOM     30  O   UNL     1       6.909   5.115  19.858  0.00  0.00    +0.000 OA
ENDBRANCH  26  28
ENDBRANCH  21  22
ENDBRANCH   4  21
TORSDOF 6
ENDMDL
