MODEL 1
REMARK VINA RESULT:      -7.1      0.000      0.000
REMARK  Name = 
REMARK  5 active torsions:
REMARK  status: ('A' for Active; 'I' for Inactive)
REMARK    1  A    between atoms: C_1  and  O_2
REMARK    2  A    between atoms: O_2  and  C_3
REMARK    3  A    between atoms: C_6  and  C_7
REMARK    4  A    between atoms: C_10  and  C_11
REMARK    5  A    between atoms: N_13  and  N_14
REMARK                            x       y       z     vdW  Elec       q    Type
REMARK                         _______ _______ _______ _____ _____    ______ ____
ROOT
ATOM      1  C   UNL     1       5.470   4.582  17.310  0.00  0.00    +0.000 C 
ATOM      2  N   UNL     1       6.675   4.238  17.632  0.00  0.00    +0.000 NA
ATOM      3  O   UNL     1       7.555   4.788  16.676  0.00  0.00    +0.000 OA
ATOM      4  C   UNL     1       6.807   5.499  15.691  0.00  0.00    +0.000 C 
ATOM      5  C   UNL     1       5.354   5.431  16.097  0.00  0.00    +0.000 C 
ENDROOT
BRANCH   1   9
ATOM      6  C   UNL     1       2.030   3.376  19.582  0.00  0.00    +0.000 A 
ATOM      7  C   UNL     1       3.320   3.112  20.045  0.00  0.00    +0.000 A 
ATOM      8  C   UNL     1       4.438   3.515  19.309  0.00  0.00    +0.000 A 
ATOM      9  C   UNL     1       4.273   4.177  18.089  0.00  0.00    +0.000 A 
ATOM     10  C   UNL     1       2.978   4.435  17.618  0.00  0.00    +0.000 A 
ATOM     11  C   UNL     1       1.863   4.030  18.360  0.00  0.00    +0.000 A 
BRANCH   6  13
ATOM     12  C   UNL     1       1.371   2.628  21.727  0.00  0.00    +0.000 C 
ATOM     13  O   UNL     1       1.019   2.922  20.379  0.00  0.00    +0.000 OA
ENDBRANCH   6  13
ENDBRANCH   1   9
BRANCH   4  14
ATOM     14  C   UNL     1       7.057   4.933  14.293  0.00  0.00    +0.000 C 
ATOM     15  O   UNL     1       7.914   5.371  13.524  0.00  0.00    +0.000 OA
ATOM     16  N   UNL     1       6.298   3.806  14.000  0.00  0.00    +0.000 N 
ATOM     17  H   UNL     1       5.580   3.492  14.654  0.00  0.00    +0.000 HD
BRANCH  16  18
ATOM     18  N   UNL     1       6.480   3.136  12.773  0.00  0.00    +0.000 NA
ATOM     19  H   UNL     1       5.818   3.553  12.103  0.00  0.00    +0.000 HD
ATOM     20  H   UNL     1       6.147   2.174  12.883  0.00  0.00    +0.000 HD
ENDBRANCH  16  18
ENDBRANCH   4  14
TORSDOF 4
ENDMDL
MODEL 2
REMARK VINA RESULT:      -7.1      0.264      1.199
REMARK  Name = 
REMARK  5 active torsions:
REMARK  status: ('A' for Active; 'I' for Inactive)
REMARK    1  A    between atoms: C_1  and  O_2
REMARK    2  A    between atoms: O_2  and  C_3
REMARK    3  A    between atoms: C_6  and  C_7
REMARK    4  A    between atoms: C_10  and  C_11
REMARK    5  A    between atoms: N_13  and  N_14
REMARK                            x       y       z     vdW  Elec       q    Type
REMARK                         _______ _______ _______ _____ _____    ______ ____
ROOT
ATOM      1  C   UNL     1       5.566   4.535  17.102  0.00  0.00    +0.000 C 
ATOM      2  N   UNL     1       6.801   4.251  17.364  0.00  0.00    +0.000 NA
ATOM      3  O   UNL     1       7.602   4.805  16.343  0.00  0.00    +0.000 OA
ATOM      4  C   UNL     1       6.771   5.453  15.382  0.00  0.00    +0.000 C 
ATOM      5  C   UNL     1       5.347   5.340  15.872  0.00  0.00    +0.000 C 
ENDROOT
BRANCH   1   9
ATOM      6  C   UNL     1       2.261   3.337  19.569  0.00  0.00    +0.000 A 
ATOM      7  C   UNL     1       2.047   4.024  18.374  0.00  0.00    +0.000 A 
ATOM      8  C   UNL     1       3.124   4.404  17.567  0.00  0.00    +0.000 A 
ATOM      9  C   UNL     1       4.433   4.108  17.960  0.00  0.00    +0.000 A 
ATOM     10  C   UNL     1       4.650   3.426  19.165  0.00  0.00    +0.000 A 
ATOM     11  C   UNL     1       3.568   3.048  19.967  0.00  0.00    +0.000 A 
BRANCH   6  13
ATOM     12  C   UNL     1       1.331   2.683  21.644  0.00  0.00    +0.000 C 
ATOM     13  O   UNL     1       1.135   3.033  20.278  0.00  0.00    +0.000 OA
ENDBRANCH   6  13
ENDBRANCH   1   9
BRANCH   4  14
ATOM     14  C   UNL     1       6.965   4.854  13.989  0.00  0.00    +0.000 C 
ATOM     15  O   UNL     1       7.735   5.320  13.149  0.00  0.00    +0.000 OA
ATOM     16  N   UNL     1       6.270   3.667  13.788  0.00  0.00    +0.000 N 
ATOM     17  H   UNL     1       5.622   3.329  14.500  0.00  0.00    +0.000 HD
BRANCH  16  18
ATOM     18  N   UNL     1       6.415   2.966  12.573  0.00  0.00    +0.000 NA
ATOM     19  H   UNL     1       5.581   2.369  12.469  0.00  0.00    +0.000 HD
ATOM     20  H   UNL     1       7.184   2.299  12.682  0.00  0.00    +0.000 HD
ENDBRANCH  16  18
ENDBRANCH   4  14
TORSDOF 4
ENDMDL
MODEL 3
REMARK VINA RESULT:      -6.9      4.137      5.406
REMARK  Name = 
REMARK  5 active torsions:
REMARK  status: ('A' for Active; 'I' for Inactive)
REMARK    1  A    between atoms: C_1  and  O_2
REMARK    2  A    between atoms: O_2  and  C_3
REMARK    3  A    between atoms: C_6  and  C_7
REMARK    4  A    between atoms: C_10  and  C_11
REMARK    5  A    between atoms: N_13  and  N_14
REMARK                            x       y       z     vdW  Elec       q    Type
REMARK                         _______ _______ _______ _____ _____    ______ ____
ROOT
ATOM      1  C   UNL     1       3.250   6.076  18.152  0.00  0.00    +0.000 C 
ATOM      2  N   UNL     1       4.531   6.065  17.970  0.00  0.00    +0.000 NA
ATOM      3  O   UNL     1       4.896   4.780  17.517  0.00  0.00    +0.000 OA
ATOM      4  C   UNL     1       3.737   3.951  17.445  0.00  0.00    +0.000 C 
ATOM      5  C   UNL     1       2.552   4.804  17.832  0.00  0.00    +0.000 C 
ENDROOT
BRANCH   1   9
ATOM      6  C   UNL     1       1.076   9.494  19.580  0.00  0.00    +0.000 A 
ATOM      7  C   UNL     1       1.383   8.435  20.435  0.00  0.00    +0.000 A 
ATOM      8  C   UNL     1       2.100   7.328  19.970  0.00  0.00    +0.000 A 
ATOM      9  C   UNL     1       2.506   7.267  18.634  0.00  0.00    +0.000 A 
ATOM     10  C   UNL     1       2.191   8.326  17.772  0.00  0.00    +0.000 A 
ATOM     11  C   UNL     1       1.474   9.431  18.243  0.00  0.00    +0.000 A 
BRANCH   6  13
ATOM     12  C   UNL     1       0.171  10.435  21.552  0.00  0.00    +0.000 C 
ATOM     13  O   UNL     1       0.361  10.511  20.143  0.00  0.00    +0.000 OA
ENDBRANCH   6  13
ENDBRANCH   1   9
BRANCH   4  14
ATOM     14  C   UNL     1       3.886   2.713  18.329  0.00  0.00    +0.000 C 
ATOM     15  O   UNL     1       3.282   1.659  18.131  0.00  0.00    +0.000 OA
ATOM     16  N   UNL     1       4.851   2.846  19.321  0.00  0.00    +0.000 N 
ATOM     17  H   UNL     1       5.310   3.745  19.467  0.00  0.00    +0.000 HD
BRANCH  16  18
ATOM     18  N   UNL     1       5.147   1.754  20.163  0.00  0.00    +0.000 NA
ATOM     19  H   UNL     1       4.422   1.735  20.895  0.00  0.00    +0.000 HD
ATOM     20  H   UNL     1       6.008   1.971  20.673  0.00  0.00    +0.000 HD
ENDBRANCH  16  18
ENDBRANCH   4  14
TORSDOF 4
ENDMDL
MODEL 4
REMARK VINA RESULT:      -6.9      4.161      5.543
REMARK  Name = 
REMARK  5 active torsions:
REMARK  status: ('A' for Active; 'I' for Inactive)
REMARK    1  A    between atoms: C_1  and  O_2
REMARK    2  A    between atoms: O_2  and  C_3
REMARK    3  A    between atoms: C_6  and  C_7
REMARK    4  A    between atoms: C_10  and  C_11
REMARK    5  A    between atoms: N_13  and  N_14
REMARK                            x       y       z     vdW  Elec       q    Type
REMARK                         _______ _______ _______ _____ _____    ______ ____
ROOT
ATOM      1  C   UNL     1       3.211   6.028  18.168  0.00  0.00    +0.000 C 
ATOM      2  N   UNL     1       4.488   6.027  17.957  0.00  0.00    +0.000 NA
ATOM      3  O   UNL     1       4.853   4.744  17.497  0.00  0.00    +0.000 OA
ATOM      4  C   UNL     1       3.699   3.905  17.454  0.00  0.00    +0.000 C 
ATOM      5  C   UNL     1       2.517   4.749  17.867  0.00  0.00    +0.000 C 
ENDROOT
BRANCH   1   9
ATOM      6  C   UNL     1       1.087   9.484  19.577  0.00  0.00    +0.000 A 
ATOM      7  C   UNL     1       1.505   9.395  18.249  0.00  0.00    +0.000 A 
ATOM      8  C   UNL     1       2.187   8.264  17.790  0.00  0.00    +0.000 A 
ATOM      9  C   UNL     1       2.469   7.213  18.666  0.00  0.00    +0.000 A 
ATOM     10  C   UNL     1       2.058   7.305  20.003  0.00  0.00    +0.000 A 
ATOM     11  C   UNL     1       1.375   8.439  20.455  0.00  0.00    +0.000 A 
BRANCH   6  13
ATOM     12  C   UNL     1      -0.283  10.621  21.135  0.00  0.00    +0.000 C 
ATOM     13  O   UNL     1       0.444  10.642  19.911  0.00  0.00    +0.000 OA
ENDBRANCH   6  13
ENDBRANCH   1   9
BRANCH   4  14
ATOM     14  C   UNL     1       3.880   2.670  18.336  0.00  0.00    +0.000 C 
ATOM     15  O   UNL     1       3.312   1.597  18.130  0.00  0.00    +0.000 OA
ATOM     16  N   UNL     1       4.829   2.832  19.339  0.00  0.00    +0.000 N 
ATOM     17  H   UNL     1       5.258   3.745  19.493  0.00  0.00    +0.000 HD
BRANCH  16  18
ATOM     18  N   UNL     1       5.152   1.747  20.182  0.00  0.00    +0.000 NA
ATOM     19  H   UNL     1       6.081   1.410  19.893  0.00  0.00    +0.000 HD
ATOM     20  H   UNL     1       4.524   0.971  19.954  0.00  0.00    +0.000 HD
ENDBRANCH  16  18
ENDBRANCH   4  14
TORSDOF 4
ENDMDL
MODEL 5
REMARK VINA RESULT:      -6.9      3.266      6.511
REMARK  Name = 
REMARK  5 active torsions:
REMARK  status: ('A' for Active; 'I' for Inactive)
REMARK    1  A    between atoms: C_1  and  O_2
REMARK    2  A    between atoms: O_2  and  C_3
REMARK    3  A    between atoms: C_6  and  C_7
REMARK    4  A    between atoms: C_10  and  C_11
REMARK    5  A    between atoms: N_13  and  N_14
REMARK                            x       y       z     vdW  Elec       q    Type
REMARK                         _______ _______ _______ _____ _____    ______ ____
ROOT
ATOM      1  C   UNL     1       5.039   3.956  18.542  0.00  0.00    +0.000 C 
ATOM      2  N   UNL     1       5.236   3.204  19.577  0.00  0.00    +0.000 NA
ATOM      3  O   UNL     1       4.277   2.169  19.553  0.00  0.00    +0.000 OA
ATOM      4  C   UNL     1       3.425   2.333  18.420  0.00  0.00    +0.000 C 
ATOM      5  C   UNL     1       3.927   3.532  17.652  0.00  0.00    +0.000 C 
ENDROOT
BRANCH   1   9
ATOM      6  C   UNL     1       7.395   7.426  17.620  0.00  0.00    +0.000 A 
ATOM      7  C   UNL     1       6.174   7.203  16.983  0.00  0.00    +0.000 A 
ATOM      8  C   UNL     1       5.403   6.077  17.293  0.00  0.00    +0.000 A 
ATOM      9  C   UNL     1       5.859   5.155  18.239  0.00  0.00    +0.000 A 
ATOM     10  C   UNL     1       7.090   5.373  18.873  0.00  0.00    +0.000 A 
ATOM     11  C   UNL     1       7.855   6.501  18.560  0.00  0.00    +0.000 A 
BRANCH   6  13
ATOM     12  C   UNL     1       8.493   9.419  18.267  0.00  0.00    +0.000 C 
ATOM     13  O   UNL     1       8.063   8.549  17.225  0.00  0.00    +0.000 OA
ENDBRANCH   6  13
ENDBRANCH   1   9
BRANCH   4  14
ATOM     14  C   UNL     1       1.963   2.474  18.845  0.00  0.00    +0.000 C 
ATOM     15  O   UNL     1       1.018   2.041  18.184  0.00  0.00    +0.000 OA
ATOM     16  N   UNL     1       1.796   3.044  20.101  0.00  0.00    +0.000 N 
ATOM     17  H   UNL     1       2.604   3.412  20.605  0.00  0.00    +0.000 HD
BRANCH  16  18
ATOM     18  N   UNL     1       0.503   3.166  20.651  0.00  0.00    +0.000 NA
ATOM     19  H   UNL     1       0.353   2.342  21.251  0.00  0.00    +0.000 HD
ATOM     20  H   UNL     1      -0.176   3.048  19.894  0.00  0.00    +0.000 HD
ENDBRANCH  16  18
ENDBRANCH   4  14
TORSDOF 4
ENDMDL
MODEL 6
REMARK VINA RESULT:      -6.8      3.229      6.472
REMARK  Name = 
REMARK  5 active torsions:
REMARK  status: ('A' for Active; 'I' for Inactive)
REMARK    1  A    between atoms: C_1  and  O_2
REMARK    2  A    between atoms: O_2  and  C_3
REMARK    3  A    between atoms: C_6  and  C_7
REMARK    4  A    between atoms: C_10  and  C_11
REMARK    5  A    between atoms: N_13  and  N_14
REMARK                            x       y       z     vdW  Elec       q    Type
REMARK                         _______ _______ _______ _____ _____    ______ ____
ROOT
ATOM      1  C   UNL     1       4.973   3.924  18.597  0.00  0.00    +0.000 C 
ATOM      2  N   UNL     1       5.289   3.208  19.627  0.00  0.00    +0.000 NA
ATOM      3  O   UNL     1       4.360   2.151  19.725  0.00  0.00    +0.000 OA
ATOM      4  C   UNL     1       3.398   2.262  18.677  0.00  0.00    +0.000 C 
ATOM      5  C   UNL     1       3.791   3.450  17.832  0.00  0.00    +0.000 C 
ENDROOT
BRANCH   1   9
ATOM      6  C   UNL     1       7.183   7.421  17.440  0.00  0.00    +0.000 A 
ATOM      7  C   UNL     1       7.739   6.479  18.307  0.00  0.00    +0.000 A 
ATOM      8  C   UNL     1       7.022   5.336  18.674  0.00  0.00    +0.000 A 
ATOM      9  C   UNL     1       5.729   5.133  18.183  0.00  0.00    +0.000 A 
ATOM     10  C   UNL     1       5.165   6.082  17.319  0.00  0.00    +0.000 A 
ATOM     11  C   UNL     1       5.889   7.223  16.955  0.00  0.00    +0.000 A 
BRANCH   6  13
ATOM     12  C   UNL     1       8.396   9.264  18.291  0.00  0.00    +0.000 C 
ATOM     13  O   UNL     1       7.972   8.501  17.167  0.00  0.00    +0.000 OA
ENDBRANCH   6  13
ENDBRANCH   1   9
BRANCH   4  14
ATOM     14  C   UNL     1       1.981   2.382  19.239  0.00  0.00    +0.000 C 
ATOM     15  O   UNL     1       0.972   2.041  18.620  0.00  0.00    +0.000 OA
ATOM     16  N   UNL     1       1.936   2.813  20.560  0.00  0.00    +0.000 N 
ATOM     17  H   UNL     1       2.793   3.110  21.028  0.00  0.00    +0.000 HD
BRANCH  16  18
ATOM     18  N   UNL     1       0.697   2.898  21.229  0.00  0.00    +0.000 NA
ATOM     19  H   UNL     1       0.614   2.053  21.813  0.00  0.00    +0.000 HD
ATOM     20  H   UNL     1      -0.047   2.793  20.534  0.00  0.00    +0.000 HD
ENDBRANCH  16  18
ENDBRANCH   4  14
TORSDOF 4
ENDMDL
MODEL 7
REMARK VINA RESULT:      -6.7      1.359      1.371
REMARK  Name = 
REMARK  5 active torsions:
REMARK  status: ('A' for Active; 'I' for Inactive)
REMARK    1  A    between atoms: C_1  and  O_2
REMARK    2  A    between atoms: O_2  and  C_3
REMARK    3  A    between atoms: C_6  and  C_7
REMARK    4  A    between atoms: C_10  and  C_11
REMARK    5  A    between atoms: N_13  and  N_14
REMARK                            x       y       z     vdW  Elec       q    Type
REMARK                         _______ _______ _______ _____ _____    ______ ____
ROOT
ATOM      1  C   UNL     1       5.772   4.815  17.862  0.00  0.00    +0.000 C 
ATOM      2  N   UNL     1       6.957   4.344  18.087  0.00  0.00    +0.000 NA
ATOM      3  O   UNL     1       7.790   4.732  17.017  0.00  0.00    +0.000 OA
ATOM      4  C   UNL     1       7.032   5.477  16.065  0.00  0.00    +0.000 C 
ATOM      5  C   UNL     1       5.631   5.608  16.614  0.00  0.00    +0.000 C 
ENDROOT
BRANCH   1   9
ATOM      6  C   UNL     1       2.446   4.152  20.496  0.00  0.00    +0.000 A 
ATOM      7  C   UNL     1       3.300   3.105  20.149  0.00  0.00    +0.000 A 
ATOM      8  C   UNL     1       4.389   3.326  19.299  0.00  0.00    +0.000 A 
ATOM      9  C   UNL     1       4.624   4.601  18.778  0.00  0.00    +0.000 A 
ATOM     10  C   UNL     1       3.761   5.652  19.119  0.00  0.00    +0.000 A 
ATOM     11  C   UNL     1       2.674   5.425  19.970  0.00  0.00    +0.000 A 
BRANCH   6  13
ATOM     12  C   UNL     1       1.436   2.487  21.839  0.00  0.00    +0.000 C 
ATOM     13  O   UNL     1       1.411   3.812  21.319  0.00  0.00    +0.000 OA
ENDBRANCH   6  13
ENDBRANCH   1   9
BRANCH   4  14
ATOM     14  C   UNL     1       7.067   4.813  14.689  0.00  0.00    +0.000 C 
ATOM     15  O   UNL     1       6.446   3.786  14.412  0.00  0.00    +0.000 OA
ATOM     16  N   UNL     1       7.782   5.532  13.738  0.00  0.00    +0.000 N 
ATOM     17  H   UNL     1       8.303   6.364  14.015  0.00  0.00    +0.000 HD
BRANCH  16  18
ATOM     18  N   UNL     1       7.835   5.074  12.405  0.00  0.00    +0.000 NA
ATOM     19  H   UNL     1       7.814   5.908  11.800  0.00  0.00    +0.000 HD
ATOM     20  H   UNL     1       6.954   4.596  12.198  0.00  0.00    +0.000 HD
ENDBRANCH  16  18
ENDBRANCH   4  14
TORSDOF 4
ENDMDL
MODEL 8
REMARK VINA RESULT:      -6.6      2.737      6.900
REMARK  Name = 
REMARK  5 active torsions:
REMARK  status: ('A' for Active; 'I' for Inactive)
REMARK    1  A    between atoms: C_1  and  O_2
REMARK    2  A    between atoms: O_2  and  C_3
REMARK    3  A    between atoms: C_6  and  C_7
REMARK    4  A    between atoms: C_10  and  C_11
REMARK    5  A    between atoms: N_13  and  N_14
REMARK                            x       y       z     vdW  Elec       q    Type
REMARK                         _______ _______ _______ _____ _____    ______ ____
ROOT
ATOM      1  C   UNL     1       3.424   3.778  17.315  0.00  0.00    +0.000 C 
ATOM      2  N   UNL     1       3.150   2.518  17.428  0.00  0.00    +0.000 NA
ATOM      3  O   UNL     1       1.964   2.395  18.183  0.00  0.00    +0.000 OA
ATOM      4  C   UNL     1       1.507   3.691  18.569  0.00  0.00    +0.000 C 
ATOM      5  C   UNL     1       2.453   4.699  17.962  0.00  0.00    +0.000 C 
ENDROOT
BRANCH   1   9
ATOM      6  C   UNL     1       6.868   5.220  15.193  0.00  0.00    +0.000 A 
ATOM      7  C   UNL     1       6.187   4.082  14.759  0.00  0.00    +0.000 A 
ATOM      8  C   UNL     1       5.059   3.621  15.446  0.00  0.00    +0.000 A 
ATOM      9  C   UNL     1       4.610   4.292  16.587  0.00  0.00    +0.000 A 
ATOM     10  C   UNL     1       5.299   5.430  17.029  0.00  0.00    +0.000 A 
ATOM     11  C   UNL     1       6.425   5.887  16.337  0.00  0.00    +0.000 A 
BRANCH   6  13
ATOM     12  C   UNL     1       7.918   5.209  13.074  0.00  0.00    +0.000 C 
ATOM     13  O   UNL     1       7.961   5.565  14.451  0.00  0.00    +0.000 OA
ENDBRANCH   6  13
ENDBRANCH   1   9
BRANCH   4  14
ATOM     14  C   UNL     1       1.412   3.812  20.090  0.00  0.00    +0.000 C 
ATOM     15  O   UNL     1       1.076   4.845  20.670  0.00  0.00    +0.000 OA
ATOM     16  N   UNL     1       1.636   2.617  20.763  0.00  0.00    +0.000 N 
ATOM     17  H   UNL     1       1.938   1.790  20.246  0.00  0.00    +0.000 HD
BRANCH  16  18
ATOM     18  N   UNL     1       1.507   2.566  22.167  0.00  0.00    +0.000 NA
ATOM     19  H   UNL     1       2.383   2.168  22.534  0.00  0.00    +0.000 HD
ATOM     20  H   UNL     1       0.800   1.862  22.395  0.00  0.00    +0.000 HD
ENDBRANCH  16  18
ENDBRANCH   4  14
TORSDOF 4
ENDMDL
MODEL 9
REMARK VINA RESULT:      -6.6      2.426      6.717
REMARK  Name = 
REMARK  5 active torsions:
REMARK  status: ('A' for Active; 'I' for Inactive)
REMARK    1  A    between atoms: C_1  and  O_2
REMARK    2  A    between atoms: O_2  and  C_3
REMARK    3  A    between atoms: C_6  and  C_7
REMARK    4  A    between atoms: C_10  and  C_11
REMARK    5  A    between atoms: N_13  and  N_14
REMARK                            x       y       z     vdW  Elec       q    Type
REMARK                         _______ _______ _______ _____ _____    ______ ____
ROOT
ATOM      1  C   UNL     1       4.288   3.668  17.757  0.00  0.00    +0.000 C 
ATOM      2  N   UNL     1       3.366   2.789  17.528  0.00  0.00    +0.000 NA
ATOM      3  O   UNL     1       2.654   2.580  18.729  0.00  0.00    +0.000 OA
ATOM      4  C   UNL     1       3.215   3.387  19.763  0.00  0.00    +0.000 C 
ATOM      5  C   UNL     1       4.327   4.200  19.144  0.00  0.00    +0.000 C 
ENDROOT
BRANCH   1   9
ATOM      6  C   UNL     1       7.062   5.058  14.788  0.00  0.00    +0.000 A 
ATOM      7  C   UNL     1       7.306   5.267  16.146  0.00  0.00    +0.000 A 
ATOM      8  C   UNL     1       6.406   4.804  17.112  0.00  0.00    +0.000 A 
ATOM      9  C   UNL     1       5.242   4.136  16.722  0.00  0.00    +0.000 A 
ATOM     10  C   UNL     1       4.992   3.933  15.358  0.00  0.00    +0.000 A 
ATOM     11  C   UNL     1       5.896   4.397  14.397  0.00  0.00    +0.000 A 
BRANCH   6  13
ATOM     12  C   UNL     1       7.835   5.258  12.561  0.00  0.00    +0.000 C 
ATOM     13  O   UNL     1       8.004   5.567  13.941  0.00  0.00    +0.000 OA
ENDBRANCH   6  13
ENDBRANCH   1   9
BRANCH   4  14
ATOM     14  C   UNL     1       3.693   2.529  20.935  0.00  0.00    +0.000 C 
ATOM     15  O   UNL     1       2.998   2.272  21.919  0.00  0.00    +0.000 OA
ATOM     16  N   UNL     1       4.953   1.972  20.745  0.00  0.00    +0.000 N 
ATOM     17  H   UNL     1       5.506   2.232  19.928  0.00  0.00    +0.000 HD
BRANCH  16  18
ATOM     18  N   UNL     1       5.487   1.098  21.714  0.00  0.00    +0.000 NA
ATOM     19  H   UNL     1       5.846   1.685  22.482  0.00  0.00    +0.000 HD
ATOM     20  H   UNL     1       6.327   0.664  21.322  0.00  0.00    +0.000 HD
ENDBRANCH  16  18
ENDBRANCH   4  14
TORSDOF 4
ENDMDL
