MODEL 1
REMARK VINA RESULT:      -8.1      0.000      0.000
REMARK  Name = 
REMARK  8 active torsions:
REMARK  status: ('A' for Active; 'I' for Inactive)
REMARK    1  A    between atoms: C_1  and  O_2
REMARK    2  A    between atoms: O_2  and  C_3
REMARK    3  A    between atoms: C_3  and  C_4
REMARK    4  A    between atoms: C_3  and  C_19
REMARK    5  A    between atoms: C_4  and  N_5
REMARK    6  A    between atoms: C_6  and  C_8
REMARK    7  A    between atoms: N_10  and  C_11
REMARK    8  A    between atoms: C_11  and  C_12
REMARK                            x       y       z     vdW  Elec       q    Type
REMARK                         _______ _______ _______ _____ _____    ______ ____
ROOT
ATOM      1  N   UNL     1       5.321   5.008  19.152  0.00  0.00    +0.000 N 
ATOM      2  C   UNL     1       4.286   4.117  19.002  0.00  0.00    +0.000 C 
ATOM      3  O   UNL     1       4.372   2.979  18.557  0.00  0.00    +0.000 OA
ATOM      4  H   UNL     1       5.063   5.957  19.417  0.00  0.00    +0.000 HD
ENDROOT
BRANCH   2   5
ATOM      5  C   UNL     1       2.915   4.677  19.445  0.00  0.00    +0.000 C 
ATOM      6  O   UNL     1       1.890   4.061  19.191  0.00  0.00    +0.000 OA
ATOM      7  N   UNL     1       3.000   5.868  20.124  0.00  0.00    +0.000 N 
ATOM      8  H   UNL     1       3.929   6.257  20.254  0.00  0.00    +0.000 HD
BRANCH   7   9
ATOM      9  C   UNL     1       1.845   6.571  20.615  0.00  0.00    +0.000 C 
BRANCH   9  10
ATOM     10  C   UNL     1       1.685   7.895  19.912  0.00  0.00    +0.000 A 
ATOM     11  C   UNL     1       2.219   8.082  18.625  0.00  0.00    +0.000 A 
ATOM     12  C   UNL     1       2.090   9.311  17.977  0.00  0.00    +0.000 A 
ATOM     13  C   UNL     1       1.437  10.357  18.618  0.00  0.00    +0.000 A 
ATOM     14  F   UNL     1       1.317  11.540  17.998  0.00  0.00    +0.000 F 
ATOM     15  C   UNL     1       0.909  10.197  19.893  0.00  0.00    +0.000 A 
ATOM     16  C   UNL     1       1.035   8.968  20.542  0.00  0.00    +0.000 A 
ENDBRANCH   9  10
ENDBRANCH   7   9
ENDBRANCH   2   5
BRANCH   1  17
ATOM     17  C   UNL     1       6.672   4.742  18.684  0.00  0.00    +0.000 C 
BRANCH  17  18
ATOM     18  C   UNL     1       7.154   5.710  17.580  0.00  0.00    +0.000 C 
BRANCH  18  19
ATOM     19  C   UNL     1       6.869   5.179  16.208  0.00  0.00    +0.000 A 
ATOM     20  C   UNL     1       5.901   4.318  15.726  0.00  0.00    +0.000 A 
ATOM     21  C   UNL     1       6.136   4.159  14.342  0.00  0.00    +0.000 A 
ATOM     22  C   UNL     1       5.529   3.434  13.305  0.00  0.00    +0.000 A 
ATOM     23  C   UNL     1       6.066   3.531  12.015  0.00  0.00    +0.000 A 
ATOM     24  C   UNL     1       7.184   4.330  11.761  0.00  0.00    +0.000 A 
ATOM     25  C   UNL     1       7.804   5.062  12.784  0.00  0.00    +0.000 A 
ATOM     26  C   UNL     1       7.245   4.948  14.057  0.00  0.00    +0.000 A 
ATOM     27  O   UNL     1       7.691   5.575  15.188  0.00  0.00    +0.000 OA
ENDBRANCH  18  19
BRANCH  18  29
ATOM     28  C   UNL     1       7.379   8.106  17.573  0.00  0.00    +0.000 C 
ATOM     29  O   UNL     1       6.507   6.991  17.625  0.00  0.00    +0.000 OA
ENDBRANCH  18  29
ENDBRANCH  17  18
ENDBRANCH   1  17
TORSDOF 7
ENDMDL
MODEL 2
REMARK VINA RESULT:      -8.1      2.696      7.642
REMARK  Name = 
REMARK  8 active torsions:
REMARK  status: ('A' for Active; 'I' for Inactive)
REMARK    1  A    between atoms: C_1  and  O_2
REMARK    2  A    between atoms: O_2  and  C_3
REMARK    3  A    between atoms: C_3  and  C_4
REMARK    4  A    between atoms: C_3  and  C_19
REMARK    5  A    between atoms: C_4  and  N_5
REMARK    6  A    between atoms: C_6  and  C_8
REMARK    7  A    between atoms: N_10  and  C_11
REMARK    8  A    between atoms: C_11  and  C_12
REMARK                            x       y       z     vdW  Elec       q    Type
REMARK                         _______ _______ _______ _____ _____    ______ ____
ROOT
ATOM      1  N   UNL     1       5.462   3.881  18.753  0.00  0.00    +0.000 N 
ATOM      2  C   UNL     1       6.541   4.728  18.836  0.00  0.00    +0.000 C 
ATOM      3  O   UNL     1       6.831   5.434  19.793  0.00  0.00    +0.000 OA
ATOM      4  H   UNL     1       5.290   3.460  17.843  0.00  0.00    +0.000 HD
ENDROOT
BRANCH   2   5
ATOM      5  C   UNL     1       7.415   4.747  17.562  0.00  0.00    +0.000 C 
ATOM      6  O   UNL     1       8.472   4.132  17.535  0.00  0.00    +0.000 OA
ATOM      7  N   UNL     1       6.877   5.483  16.535  0.00  0.00    +0.000 N 
ATOM      8  H   UNL     1       5.988   5.940  16.715  0.00  0.00    +0.000 HD
BRANCH   7   9
ATOM      9  C   UNL     1       7.531   5.645  15.264  0.00  0.00    +0.000 C 
BRANCH   9  10
ATOM     10  C   UNL     1       6.857   4.811  14.204  0.00  0.00    +0.000 A 
ATOM     11  C   UNL     1       7.488   4.594  12.967  0.00  0.00    +0.000 A 
ATOM     12  C   UNL     1       6.861   3.838  11.976  0.00  0.00    +0.000 A 
ATOM     13  C   UNL     1       5.600   3.306  12.216  0.00  0.00    +0.000 A 
ATOM     14  F   UNL     1       4.995   2.583  11.263  0.00  0.00    +0.000 F 
ATOM     15  C   UNL     1       4.954   3.515  13.429  0.00  0.00    +0.000 A 
ATOM     16  C   UNL     1       5.581   4.269  14.423  0.00  0.00    +0.000 A 
ENDBRANCH   9  10
ENDBRANCH   7   9
ENDBRANCH   2   5
BRANCH   1  17
ATOM     17  C   UNL     1       4.437   3.797  19.782  0.00  0.00    +0.000 C 
BRANCH  17  18
ATOM     18  C   UNL     1       2.996   3.958  19.245  0.00  0.00    +0.000 C 
BRANCH  18  19
ATOM     19  C   UNL     1       2.626   5.398  19.061  0.00  0.00    +0.000 A 
ATOM     20  C   UNL     1       2.696   6.246  17.971  0.00  0.00    +0.000 A 
ATOM     21  C   UNL     1       2.225   7.508  18.395  0.00  0.00    +0.000 A 
ATOM     22  C   UNL     1       2.050   8.762  17.787  0.00  0.00    +0.000 A 
ATOM     23  C   UNL     1       1.539   9.815  18.556  0.00  0.00    +0.000 A 
ATOM     24  C   UNL     1       1.211   9.627  19.902  0.00  0.00    +0.000 A 
ATOM     25  C   UNL     1       1.378   8.383  20.526  0.00  0.00    +0.000 A 
ATOM     26  C   UNL     1       1.885   7.353  19.734  0.00  0.00    +0.000 A 
ATOM     27  O   UNL     1       2.122   6.069  20.143  0.00  0.00    +0.000 OA
ENDBRANCH  18  19
BRANCH  18  29
ATOM     28  C   UNL     1       2.237   2.057  17.979  0.00  0.00    +0.000 C 
ATOM     29  O   UNL     1       2.801   3.356  17.955  0.00  0.00    +0.000 OA
ENDBRANCH  18  29
ENDBRANCH  17  18
ENDBRANCH   1  17
TORSDOF 7
ENDMDL
MODEL 3
REMARK VINA RESULT:      -8.0      2.707      7.572
REMARK  Name = 
REMARK  8 active torsions:
REMARK  status: ('A' for Active; 'I' for Inactive)
REMARK    1  A    between atoms: C_1  and  O_2
REMARK    2  A    between atoms: O_2  and  C_3
REMARK    3  A    between atoms: C_3  and  C_4
REMARK    4  A    between atoms: C_3  and  C_19
REMARK    5  A    between atoms: C_4  and  N_5
REMARK    6  A    between atoms: C_6  and  C_8
REMARK    7  A    between atoms: N_10  and  C_11
REMARK    8  A    between atoms: C_11  and  C_12
REMARK                            x       y       z     vdW  Elec       q    Type
REMARK                         _______ _______ _______ _____ _____    ______ ____
ROOT
ATOM      1  N   UNL     1       5.549   4.002  18.681  0.00  0.00    +0.000 N 
ATOM      2  C   UNL     1       6.458   4.983  18.997  0.00  0.00    +0.000 C 
ATOM      3  O   UNL     1       6.839   5.278  20.123  0.00  0.00    +0.000 OA
ATOM      4  H   UNL     1       5.244   3.967  17.711  0.00  0.00    +0.000 HD
ENDROOT
BRANCH   2   5
ATOM      5  C   UNL     1       6.997   5.749  17.768  0.00  0.00    +0.000 C 
ATOM      6  O   UNL     1       7.668   6.760  17.921  0.00  0.00    +0.000 OA
ATOM      7  N   UNL     1       6.656   5.175  16.568  0.00  0.00    +0.000 N 
ATOM      8  H   UNL     1       6.089   4.333  16.606  0.00  0.00    +0.000 HD
BRANCH   7   9
ATOM      9  C   UNL     1       7.041   5.731  15.298  0.00  0.00    +0.000 C 
BRANCH   9  10
ATOM     10  C   UNL     1       6.591   4.844  14.165  0.00  0.00    +0.000 A 
ATOM     11  C   UNL     1       5.349   4.189  14.230  0.00  0.00    +0.000 A 
ATOM     12  C   UNL     1       4.936   3.352  13.192  0.00  0.00    +0.000 A 
ATOM     13  C   UNL     1       5.767   3.161  12.095  0.00  0.00    +0.000 A 
ATOM     14  F   UNL     1       5.373   2.353  11.101  0.00  0.00    +0.000 F 
ATOM     15  C   UNL     1       7.003   3.791  12.015  0.00  0.00    +0.000 A 
ATOM     16  C   UNL     1       7.417   4.630  13.050  0.00  0.00    +0.000 A 
ENDBRANCH   9  10
ENDBRANCH   7   9
ENDBRANCH   2   5
BRANCH   1  17
ATOM     17  C   UNL     1       4.820   3.242  19.685  0.00  0.00    +0.000 C 
BRANCH  17  18
ATOM     18  C   UNL     1       3.284   3.365  19.569  0.00  0.00    +0.000 C 
BRANCH  18  19
ATOM     19  C   UNL     1       2.834   4.794  19.590  0.00  0.00    +0.000 A 
ATOM     20  C   UNL     1       2.205   5.557  20.556  0.00  0.00    +0.000 A 
ATOM     21  C   UNL     1       2.007   6.843  20.007  0.00  0.00    +0.000 A 
ATOM     22  C   UNL     1       1.436   8.044  20.459  0.00  0.00    +0.000 A 
ATOM     23  C   UNL     1       1.421   9.147  19.597  0.00  0.00    +0.000 A 
ATOM     24  C   UNL     1       1.961   9.060  18.310  0.00  0.00    +0.000 A 
ATOM     25  C   UNL     1       2.536   7.870  17.841  0.00  0.00    +0.000 A 
ATOM     26  C   UNL     1       2.539   6.790  18.723  0.00  0.00    +0.000 A 
ATOM     27  O   UNL     1       3.049   5.547  18.467  0.00  0.00    +0.000 OA
ENDBRANCH  18  19
BRANCH  18  29
ATOM     28  C   UNL     1       1.408   2.417  18.396  0.00  0.00    +0.000 C 
ATOM     29  O   UNL     1       2.762   2.830  18.342  0.00  0.00    +0.000 OA
ENDBRANCH  18  29
ENDBRANCH  17  18
ENDBRANCH   1  17
TORSDOF 7
ENDMDL
MODEL 4
REMARK VINA RESULT:      -7.9      3.814      7.284
REMARK  Name = 
REMARK  8 active torsions:
REMARK  status: ('A' for Active; 'I' for Inactive)
REMARK    1  A    between atoms: C_1  and  O_2
REMARK    2  A    between atoms: O_2  and  C_3
REMARK    3  A    between atoms: C_3  and  C_4
REMARK    4  A    between atoms: C_3  and  C_19
REMARK    5  A    between atoms: C_4  and  N_5
REMARK    6  A    between atoms: C_6  and  C_8
REMARK    7  A    between atoms: N_10  and  C_11
REMARK    8  A    between atoms: C_11  and  C_12
REMARK                            x       y       z     vdW  Elec       q    Type
REMARK                         _______ _______ _______ _____ _____    ______ ____
ROOT
ATOM      1  N   UNL     1       6.011   7.315  17.086  0.00  0.00    +0.000 N 
ATOM      2  C   UNL     1       7.375   7.157  17.022  0.00  0.00    +0.000 C 
ATOM      3  O   UNL     1       7.992   6.564  16.146  0.00  0.00    +0.000 OA
ATOM      4  H   UNL     1       5.645   7.724  17.943  0.00  0.00    +0.000 HD
ENDROOT
BRANCH   2   5
ATOM      5  C   UNL     1       8.130   7.804  18.205  0.00  0.00    +0.000 C 
ATOM      6  O   UNL     1       8.506   7.114  19.142  0.00  0.00    +0.000 OA
ATOM      7  N   UNL     1       8.319   9.157  18.065  0.00  0.00    +0.000 N 
ATOM      8  H   UNL     1       7.943   9.588  17.225  0.00  0.00    +0.000 HD
BRANCH   7   9
ATOM      9  C   UNL     1       8.986   9.959  19.055  0.00  0.00    +0.000 C 
BRANCH   9  10
ATOM     10  C   UNL     1       9.630  11.167  18.422  0.00  0.00    +0.000 A 
ATOM     11  C   UNL     1       8.834  12.213  17.924  0.00  0.00    +0.000 A 
ATOM     12  C   UNL     1       9.424  13.324  17.321  0.00  0.00    +0.000 A 
ATOM     13  C   UNL     1      10.807  13.387  17.205  0.00  0.00    +0.000 A 
ATOM     14  F   UNL     1      11.375  14.452  16.622  0.00  0.00    +0.000 F 
ATOM     15  C   UNL     1      11.613  12.360  17.683  0.00  0.00    +0.000 A 
ATOM     16  C   UNL     1      11.025  11.248  18.289  0.00  0.00    +0.000 A 
ENDBRANCH   9  10
ENDBRANCH   7   9
ENDBRANCH   2   5
BRANCH   1  17
ATOM     17  C   UNL     1       5.094   6.683  16.149  0.00  0.00    +0.000 C 
BRANCH  17  18
ATOM     18  C   UNL     1       5.058   5.141  16.253  0.00  0.00    +0.000 C 
BRANCH  18  19
ATOM     19  C   UNL     1       3.990   4.669  17.191  0.00  0.00    +0.000 A 
ATOM     20  C   UNL     1       3.229   5.324  18.141  0.00  0.00    +0.000 A 
ATOM     21  C   UNL     1       2.392   4.359  18.742  0.00  0.00    +0.000 A 
ATOM     22  C   UNL     1       1.414   4.375  19.750  0.00  0.00    +0.000 A 
ATOM     23  C   UNL     1       0.775   3.175  20.085  0.00  0.00    +0.000 A 
ATOM     24  C   UNL     1       1.102   1.982  19.435  0.00  0.00    +0.000 A 
ATOM     25  C   UNL     1       2.074   1.946  18.425  0.00  0.00    +0.000 A 
ATOM     26  C   UNL     1       2.691   3.156  18.111  0.00  0.00    +0.000 A 
ATOM     27  O   UNL     1       3.659   3.341  17.162  0.00  0.00    +0.000 OA
ENDBRANCH  18  19
BRANCH  18  29
ATOM     28  C   UNL     1       5.896   3.984  14.316  0.00  0.00    +0.000 C 
ATOM     29  O   UNL     1       4.768   4.495  15.003  0.00  0.00    +0.000 OA
ENDBRANCH  18  29
ENDBRANCH  17  18
ENDBRANCH   1  17
TORSDOF 7
ENDMDL
MODEL 5
REMARK VINA RESULT:      -7.8      2.972      4.879
REMARK  Name = 
REMARK  8 active torsions:
REMARK  status: ('A' for Active; 'I' for Inactive)
REMARK    1  A    between atoms: C_1  and  O_2
REMARK    2  A    between atoms: O_2  and  C_3
REMARK    3  A    between atoms: C_3  and  C_4
REMARK    4  A    between atoms: C_3  and  C_19
REMARK    5  A    between atoms: C_4  and  N_5
REMARK    6  A    between atoms: C_6  and  C_8
REMARK    7  A    between atoms: N_10  and  C_11
REMARK    8  A    between atoms: C_11  and  C_12
REMARK                            x       y       z     vdW  Elec       q    Type
REMARK                         _______ _______ _______ _____ _____    ______ ____
ROOT
ATOM      1  N   UNL     1       2.491   6.625  19.816  0.00  0.00    +0.000 N 
ATOM      2  C   UNL     1       1.760   7.698  20.266  0.00  0.00    +0.000 C 
ATOM      3  O   UNL     1       1.254   7.811  21.375  0.00  0.00    +0.000 OA
ATOM      4  H   UNL     1       2.735   6.630  18.828  0.00  0.00    +0.000 HD
ENDROOT
BRANCH   2   5
ATOM      5  C   UNL     1       1.594   8.820  19.217  0.00  0.00    +0.000 C 
ATOM      6  O   UNL     1       2.254   8.798  18.187  0.00  0.00    +0.000 OA
ATOM      7  N   UNL     1       0.664   9.768  19.565  0.00  0.00    +0.000 N 
ATOM      8  H   UNL     1       0.199   9.647  20.460  0.00  0.00    +0.000 HD
BRANCH   7   9
ATOM      9  C   UNL     1       0.363  10.907  18.740  0.00  0.00    +0.000 C 
BRANCH   9  10
ATOM     10  C   UNL     1      -1.081  10.887  18.307  0.00  0.00    +0.000 A 
ATOM     11  C   UNL     1      -2.006  11.773  18.887  0.00  0.00    +0.000 A 
ATOM     12  C   UNL     1      -3.347  11.746  18.502  0.00  0.00    +0.000 A 
ATOM     13  C   UNL     1      -3.768  10.829  17.547  0.00  0.00    +0.000 A 
ATOM     14  F   UNL     1      -5.057  10.801  17.180  0.00  0.00    +0.000 F 
ATOM     15  C   UNL     1      -2.872   9.939  16.966  0.00  0.00    +0.000 A 
ATOM     16  C   UNL     1      -1.530   9.966  17.347  0.00  0.00    +0.000 A 
ENDBRANCH   9  10
ENDBRANCH   7   9
ENDBRANCH   2   5
BRANCH   1  17
ATOM     17  C   UNL     1       2.667   5.404  20.587  0.00  0.00    +0.000 C 
BRANCH  17  18
ATOM     18  C   UNL     1       2.668   4.117  19.730  0.00  0.00    +0.000 C 
BRANCH  18  19
ATOM     19  C   UNL     1       3.640   4.205  18.593  0.00  0.00    +0.000 A 
ATOM     20  C   UNL     1       3.516   3.941  17.242  0.00  0.00    +0.000 A 
ATOM     21  C   UNL     1       4.778   4.181  16.654  0.00  0.00    +0.000 A 
ATOM     22  C   UNL     1       5.305   4.097  15.355  0.00  0.00    +0.000 A 
ATOM     23  C   UNL     1       6.651   4.426  15.154  0.00  0.00    +0.000 A 
ATOM     24  C   UNL     1       7.459   4.827  16.222  0.00  0.00    +0.000 A 
ATOM     25  C   UNL     1       6.950   4.918  17.526  0.00  0.00    +0.000 A 
ATOM     26  C   UNL     1       5.606   4.587  17.694  0.00  0.00    +0.000 A 
ATOM     27  O   UNL     1       4.917   4.609  18.875  0.00  0.00    +0.000 OA
ENDBRANCH  18  19
BRANCH  18  29
ATOM     28  C   UNL     1       2.361   2.739  21.679  0.00  0.00    +0.000 C 
ATOM     29  O   UNL     1       3.059   2.947  20.465  0.00  0.00    +0.000 OA
ENDBRANCH  18  29
ENDBRANCH  17  18
ENDBRANCH   1  17
TORSDOF 7
ENDMDL
MODEL 6
REMARK VINA RESULT:      -7.8      3.435      6.961
REMARK  Name = 
REMARK  8 active torsions:
REMARK  status: ('A' for Active; 'I' for Inactive)
REMARK    1  A    between atoms: C_1  and  O_2
REMARK    2  A    between atoms: O_2  and  C_3
REMARK    3  A    between atoms: C_3  and  C_4
REMARK    4  A    between atoms: C_3  and  C_19
REMARK    5  A    between atoms: C_4  and  N_5
REMARK    6  A    between atoms: C_6  and  C_8
REMARK    7  A    between atoms: N_10  and  C_11
REMARK    8  A    between atoms: C_11  and  C_12
REMARK                            x       y       z     vdW  Elec       q    Type
REMARK                         _______ _______ _______ _____ _____    ______ ____
ROOT
ATOM      1  N   UNL     1       5.950   4.661  18.570  0.00  0.00    +0.000 N 
ATOM      2  C   UNL     1       6.967   5.502  18.954  0.00  0.00    +0.000 C 
ATOM      3  O   UNL     1       7.492   5.541  20.059  0.00  0.00    +0.000 OA
ATOM      4  H   UNL     1       5.539   4.840  17.656  0.00  0.00    +0.000 HD
ENDROOT
BRANCH   2   5
ATOM      5  C   UNL     1       7.428   6.467  17.838  0.00  0.00    +0.000 C 
ATOM      6  O   UNL     1       7.534   6.067  16.687  0.00  0.00    +0.000 OA
ATOM      7  N   UNL     1       7.674   7.744  18.280  0.00  0.00    +0.000 N 
ATOM      8  H   UNL     1       7.543   7.919  19.272  0.00  0.00    +0.000 HD
BRANCH   7   9
ATOM      9  C   UNL     1       8.127   8.797  17.412  0.00  0.00    +0.000 C 
BRANCH   9  10
ATOM     10  C   UNL     1       8.682   9.949  18.211  0.00  0.00    +0.000 A 
ATOM     11  C   UNL     1       9.233   9.726  19.485  0.00  0.00    +0.000 A 
ATOM     12  C   UNL     1       9.732  10.791  20.236  0.00  0.00    +0.000 A 
ATOM     13  C   UNL     1       9.672  12.079  19.720  0.00  0.00    +0.000 A 
ATOM     14  F   UNL     1      10.147  13.103  20.443  0.00  0.00    +0.000 F 
ATOM     15  C   UNL     1       9.124  12.324  18.467  0.00  0.00    +0.000 A 
ATOM     16  C   UNL     1       8.627  11.260  17.713  0.00  0.00    +0.000 A 
ENDBRANCH   9  10
ENDBRANCH   7   9
ENDBRANCH   2   5
BRANCH   1  17
ATOM     17  C   UNL     1       5.276   3.758  19.490  0.00  0.00    +0.000 C 
BRANCH  17  18
ATOM     18  C   UNL     1       3.738   3.734  19.328  0.00  0.00    +0.000 C 
BRANCH  18  19
ATOM     19  C   UNL     1       3.149   5.110  19.376  0.00  0.00    +0.000 A 
ATOM     20  C   UNL     1       2.458   5.793  20.359  0.00  0.00    +0.000 A 
ATOM     21  C   UNL     1       2.126   7.060  19.832  0.00  0.00    +0.000 A 
ATOM     22  C   UNL     1       1.443   8.191  20.308  0.00  0.00    +0.000 A 
ATOM     23  C   UNL     1       1.310   9.300  19.463  0.00  0.00    +0.000 A 
ATOM     24  C   UNL     1       1.841   9.285  18.170  0.00  0.00    +0.000 A 
ATOM     25  C   UNL     1       2.527   8.166  17.677  0.00  0.00    +0.000 A 
ATOM     26  C   UNL     1       2.647   7.079  18.542  0.00  0.00    +0.000 A 
ATOM     27  O   UNL     1       3.275   5.897  18.262  0.00  0.00    +0.000 OA
ENDBRANCH  18  19
BRANCH  18  29
ATOM     28  C   UNL     1       2.018   2.607  18.078  0.00  0.00    +0.000 C 
ATOM     29  O   UNL     1       3.309   3.189  18.070  0.00  0.00    +0.000 OA
ENDBRANCH  18  29
ENDBRANCH  17  18
ENDBRANCH   1  17
TORSDOF 7
ENDMDL
MODEL 7
REMARK VINA RESULT:      -7.8      3.434      7.413
REMARK  Name = 
REMARK  8 active torsions:
REMARK  status: ('A' for Active; 'I' for Inactive)
REMARK    1  A    between atoms: C_1  and  O_2
REMARK    2  A    between atoms: O_2  and  C_3
REMARK    3  A    between atoms: C_3  and  C_4
REMARK    4  A    between atoms: C_3  and  C_19
REMARK    5  A    between atoms: C_4  and  N_5
REMARK    6  A    between atoms: C_6  and  C_8
REMARK    7  A    between atoms: N_10  and  C_11
REMARK    8  A    between atoms: C_11  and  C_12
REMARK                            x       y       z     vdW  Elec       q    Type
REMARK                         _______ _______ _______ _____ _____    ______ ____
ROOT
ATOM      1  N   UNL     1       5.726   5.806  18.537  0.00  0.00    +0.000 N 
ATOM      2  C   UNL     1       7.086   6.004  18.587  0.00  0.00    +0.000 C 
ATOM      3  O   UNL     1       7.870   5.433  19.333  0.00  0.00    +0.000 OA
ATOM      4  H   UNL     1       5.199   6.450  17.950  0.00  0.00    +0.000 HD
ENDROOT
BRANCH   2   5
ATOM      5  C   UNL     1       7.595   7.068  17.588  0.00  0.00    +0.000 C 
ATOM      6  O   UNL     1       7.678   6.801  16.398  0.00  0.00    +0.000 OA
ATOM      7  N   UNL     1       7.906   8.270  18.175  0.00  0.00    +0.000 N 
ATOM      8  H   UNL     1       7.785   8.335  19.182  0.00  0.00    +0.000 HD
BRANCH   7   9
ATOM      9  C   UNL     1       8.411   9.394  17.432  0.00  0.00    +0.000 C 
BRANCH   9  10
ATOM     10  C   UNL     1       8.926  10.463  18.363  0.00  0.00    +0.000 A 
ATOM     11  C   UNL     1       9.276  10.141  19.685  0.00  0.00    +0.000 A 
ATOM     12  C   UNL     1       9.737  11.130  20.555  0.00  0.00    +0.000 A 
ATOM     13  C   UNL     1       9.838  12.442  20.109  0.00  0.00    +0.000 A 
ATOM     14  F   UNL     1      10.277  13.393  20.945  0.00  0.00    +0.000 F 
ATOM     15  C   UNL     1       9.490  12.784  18.808  0.00  0.00    +0.000 A 
ATOM     16  C   UNL     1       9.032  11.796  17.935  0.00  0.00    +0.000 A 
ENDBRANCH   9  10
ENDBRANCH   7   9
ENDBRANCH   2   5
BRANCH   1  17
ATOM     17  C   UNL     1       5.015   4.946  19.469  0.00  0.00    +0.000 C 
BRANCH  17  18
ATOM     18  C   UNL     1       3.495   4.853  19.199  0.00  0.00    +0.000 C 
BRANCH  18  19
ATOM     19  C   UNL     1       2.867   6.207  19.065  0.00  0.00    +0.000 A 
ATOM     20  C   UNL     1       2.790   7.096  18.010  0.00  0.00    +0.000 A 
ATOM     21  C   UNL     1       2.091   8.232  18.474  0.00  0.00    +0.000 A 
ATOM     22  C   UNL     1       1.693   9.457  17.912  0.00  0.00    +0.000 A 
ATOM     23  C   UNL     1       0.990  10.365  18.713  0.00  0.00    +0.000 A 
ATOM     24  C   UNL     1       0.689  10.065  20.045  0.00  0.00    +0.000 A 
ATOM     25  C   UNL     1       1.077   8.848  20.623  0.00  0.00    +0.000 A 
ATOM     26  C   UNL     1       1.773   7.963  19.801  0.00  0.00    +0.000 A 
ATOM     27  O   UNL     1       2.238   6.729  20.163  0.00  0.00    +0.000 OA
ENDBRANCH  18  19
BRANCH  18  29
ATOM     28  C   UNL     1       3.504   2.794  17.952  0.00  0.00    +0.000 C 
ATOM     29  O   UNL     1       3.177   4.172  17.975  0.00  0.00    +0.000 OA
ENDBRANCH  18  29
ENDBRANCH  17  18
ENDBRANCH   1  17
TORSDOF 7
ENDMDL
MODEL 8
REMARK VINA RESULT:      -7.7      2.878      4.446
REMARK  Name = 
REMARK  8 active torsions:
REMARK  status: ('A' for Active; 'I' for Inactive)
REMARK    1  A    between atoms: C_1  and  O_2
REMARK    2  A    between atoms: O_2  and  C_3
REMARK    3  A    between atoms: C_3  and  C_4
REMARK    4  A    between atoms: C_3  and  C_19
REMARK    5  A    between atoms: C_4  and  N_5
REMARK    6  A    between atoms: C_6  and  C_8
REMARK    7  A    between atoms: N_10  and  C_11
REMARK    8  A    between atoms: C_11  and  C_12
REMARK                            x       y       z     vdW  Elec       q    Type
REMARK                         _______ _______ _______ _____ _____    ______ ____
ROOT
ATOM      1  N   UNL     1       2.030   5.493  18.045  0.00  0.00    +0.000 N 
ATOM      2  C   UNL     1       2.116   5.975  19.328  0.00  0.00    +0.000 C 
ATOM      3  O   UNL     1       2.188   5.302  20.349  0.00  0.00    +0.000 OA
ATOM      4  H   UNL     1       1.849   6.181  17.316  0.00  0.00    +0.000 HD
ENDROOT
BRANCH   2   5
ATOM      5  C   UNL     1       2.103   7.519  19.413  0.00  0.00    +0.000 C 
ATOM      6  O   UNL     1       2.072   8.072  20.503  0.00  0.00    +0.000 OA
ATOM      7  N   UNL     1       2.142   8.138  18.188  0.00  0.00    +0.000 N 
ATOM      8  H   UNL     1       2.163   7.537  17.370  0.00  0.00    +0.000 HD
BRANCH   7   9
ATOM      9  C   UNL     1       2.124   9.569  18.036  0.00  0.00    +0.000 C 
BRANCH   9  10
ATOM     10  C   UNL     1       0.773  10.130  18.402  0.00  0.00    +0.000 A 
ATOM     11  C   UNL     1      -0.375   9.724  17.700  0.00  0.00    +0.000 A 
ATOM     12  C   UNL     1      -1.625  10.254  18.023  0.00  0.00    +0.000 A 
ATOM     13  C   UNL     1      -1.728  11.196  19.039  0.00  0.00    +0.000 A 
ATOM     14  F   UNL     1      -2.928  11.708  19.346  0.00  0.00    +0.000 F 
ATOM     15  C   UNL     1      -0.605  11.618  19.740  0.00  0.00    +0.000 A 
ATOM     16  C   UNL     1       0.646  11.087  19.421  0.00  0.00    +0.000 A 
ENDBRANCH   9  10
ENDBRANCH   7   9
ENDBRANCH   2   5
BRANCH   1  17
ATOM     17  C   UNL     1       1.899   4.077  17.736  0.00  0.00    +0.000 C 
BRANCH  17  18
ATOM     18  C   UNL     1       3.215   3.415  17.269  0.00  0.00    +0.000 C 
BRANCH  18  19
ATOM     19  C   UNL     1       4.413   4.245  17.618  0.00  0.00    +0.000 A 
ATOM     20  C   UNL     1       5.358   4.140  18.621  0.00  0.00    +0.000 A 
ATOM     21  C   UNL     1       6.248   5.226  18.469  0.00  0.00    +0.000 A 
ATOM     22  C   UNL     1       7.390   5.682  19.148  0.00  0.00    +0.000 A 
ATOM     23  C   UNL     1       8.028   6.840  18.686  0.00  0.00    +0.000 A 
ATOM     24  C   UNL     1       7.541   7.533  17.574  0.00  0.00    +0.000 A 
ATOM     25  C   UNL     1       6.403   7.093  16.883  0.00  0.00    +0.000 A 
ATOM     26  C   UNL     1       5.791   5.936  17.364  0.00  0.00    +0.000 A 
ATOM     27  O   UNL     1       4.678   5.339  16.839  0.00  0.00    +0.000 OA
ENDBRANCH  18  19
BRANCH  18  29
ATOM     28  C   UNL     1       2.551   1.787  18.913  0.00  0.00    +0.000 C 
ATOM     29  O   UNL     1       3.456   2.138  17.882  0.00  0.00    +0.000 OA
ENDBRANCH  18  29
ENDBRANCH  17  18
ENDBRANCH   1  17
TORSDOF 7
ENDMDL
MODEL 9
REMARK VINA RESULT:      -7.7      3.625      7.269
REMARK  Name = 
REMARK  8 active torsions:
REMARK  status: ('A' for Active; 'I' for Inactive)
REMARK    1  A    between atoms: C_1  and  O_2
REMARK    2  A    between atoms: O_2  and  C_3
REMARK    3  A    between atoms: C_3  and  C_4
REMARK    4  A    between atoms: C_3  and  C_19
REMARK    5  A    between atoms: C_4  and  N_5
REMARK    6  A    between atoms: C_6  and  C_8
REMARK    7  A    between atoms: N_10  and  C_11
REMARK    8  A    between atoms: C_11  and  C_12
REMARK                            x       y       z     vdW  Elec       q    Type
REMARK                         _______ _______ _______ _____ _____    ______ ____
ROOT
ATOM      1  N   UNL     1       6.068   5.108  18.255  0.00  0.00    +0.000 N 
ATOM      2  C   UNL     1       7.013   5.993  18.715  0.00  0.00    +0.000 C 
ATOM      3  O   UNL     1       7.595   5.932  19.790  0.00  0.00    +0.000 OA
ATOM      4  H   UNL     1       5.587   5.368  17.397  0.00  0.00    +0.000 HD
ENDROOT
BRANCH   2   5
ATOM      5  C   UNL     1       7.306   7.152  17.735  0.00  0.00    +0.000 C 
ATOM      6  O   UNL     1       6.848   7.126  16.601  0.00  0.00    +0.000 OA
ATOM      7  N   UNL     1       8.084   8.147  18.275  0.00  0.00    +0.000 N 
ATOM      8  H   UNL     1       8.390   8.020  19.235  0.00  0.00    +0.000 HD
BRANCH   7   9
ATOM      9  C   UNL     1       8.488   9.311  17.533  0.00  0.00    +0.000 C 
BRANCH   9  10
ATOM     10  C   UNL     1       9.189  10.301  18.429  0.00  0.00    +0.000 A 
ATOM     11  C   UNL     1      10.047  11.269  17.879  0.00  0.00    +0.000 A 
ATOM     12  C   UNL     1      10.712  12.175  18.706  0.00  0.00    +0.000 A 
ATOM     13  C   UNL     1      10.528  12.110  20.081  0.00  0.00    +0.000 A 
ATOM     14  F   UNL     1      11.170  12.977  20.876  0.00  0.00    +0.000 F 
ATOM     15  C   UNL     1       9.691  11.155  20.647  0.00  0.00    +0.000 A 
ATOM     16  C   UNL     1       9.023  10.249  19.822  0.00  0.00    +0.000 A 
ENDBRANCH   9  10
ENDBRANCH   7   9
ENDBRANCH   2   5
BRANCH   1  17
ATOM     17  C   UNL     1       5.545   4.015  19.061  0.00  0.00    +0.000 C 
BRANCH  17  18
ATOM     18  C   UNL     1       4.004   3.898  19.032  0.00  0.00    +0.000 C 
BRANCH  18  19
ATOM     19  C   UNL     1       3.344   5.239  18.918  0.00  0.00    +0.000 A 
ATOM     20  C   UNL     1       3.157   6.096  17.850  0.00  0.00    +0.000 A 
ATOM     21  C   UNL     1       2.484   7.235  18.344  0.00  0.00    +0.000 A 
ATOM     22  C   UNL     1       2.017   8.436  17.787  0.00  0.00    +0.000 A 
ATOM     23  C   UNL     1       1.374   9.358  18.622  0.00  0.00    +0.000 A 
ATOM     24  C   UNL     1       1.201   9.094  19.984  0.00  0.00    +0.000 A 
ATOM     25  C   UNL     1       1.660   7.900  20.558  0.00  0.00    +0.000 A 
ATOM     26  C   UNL     1       2.293   7.000  19.701  0.00  0.00    +0.000 A 
ATOM     27  O   UNL     1       2.809   5.784  20.054  0.00  0.00    +0.000 OA
ENDBRANCH  18  19
BRANCH  18  29
ATOM     28  C   UNL     1       3.290   1.769  18.167  0.00  0.00    +0.000 C 
ATOM     29  O   UNL     1       3.512   3.145  17.913  0.00  0.00    +0.000 OA
ENDBRANCH  18  29
ENDBRANCH  17  18
ENDBRANCH   1  17
TORSDOF 7
ENDMDL
