MODEL 1
REMARK VINA RESULT:      -8.2      0.000      0.000
REMARK  Name = 
REMARK  7 active torsions:
REMARK  status: ('A' for Active; 'I' for Inactive)
REMARK    1  A    between atoms: C_2  and  C_3
REMARK    2  A    between atoms: C_3  and  O_4
REMARK    3  A    between atoms: O_4  and  C_5
REMARK    4  A    between atoms: C_8  and  N_9
REMARK    5  A    between atoms: N_14  and  C_15
REMARK    6  A    between atoms: C_15  and  N_17
REMARK    7  A    between atoms: C_21  and  C_22
REMARK                            x       y       z     vdW  Elec       q    Type
REMARK                         _______ _______ _______ _____ _____    ______ ____
ROOT
ATOM      1  O   UNL     1       7.644   5.376  14.730  0.00  0.00    +0.000 OA
ATOM      2  C   UNL     1       7.006   5.535  15.775  0.00  0.00    +0.000 C 
ATOM      3  N   UNL     1       7.717   5.754  16.948  0.00  0.00    +0.000 N 
ATOM      4  H   UNL     1       8.704   5.749  16.701  0.00  0.00    +0.000 HD
ENDROOT
BRANCH   3   5
ATOM      5  C   UNL     1       7.460   5.930  18.311  0.00  0.00    +0.000 C 
ATOM      6  S   UNL     1       6.374   5.097  19.268  0.00  0.00    +0.000 S 
BRANCH   5   7
ATOM      7  N   UNL     1       8.204   6.890  18.951  0.00  0.00    +0.000 N 
ATOM      8  C   UNL     1       8.263   8.193  18.564  0.00  0.00    +0.000 A 
ATOM      9  N   UNL     1       7.537   8.835  17.678  0.00  0.00    +0.000 NA
ATOM     10  N   UNL     1       8.072  10.094  17.579  0.00  0.00    +0.000 NA
ATOM     11  C   UNL     1       9.093  10.129  18.413  0.00  0.00    +0.000 A 
ATOM     12  O   UNL     1       9.254   8.952  19.102  0.00  0.00    +0.000 OA
ATOM     13  H   UNL     1       8.880   6.584  19.637  0.00  0.00    +0.000 HD
BRANCH  11  14
ATOM     14  C   UNL     1      10.058  11.184  18.657  0.00  0.00    +0.000 A 
ATOM     15  C   UNL     1      10.639  11.857  17.572  0.00  0.00    +0.000 A 
ATOM     16  C   UNL     1      11.597  12.848  17.782  0.00  0.00    +0.000 A 
ATOM     17  C   UNL     1      11.988  13.174  19.078  0.00  0.00    +0.000 A 
ATOM     18  C   UNL     1      11.415  12.518  20.166  0.00  0.00    +0.000 A 
ATOM     19  C   UNL     1      10.454  11.529  19.958  0.00  0.00    +0.000 A 
ENDBRANCH  11  14
ENDBRANCH   5   7
ENDBRANCH   3   5
BRANCH   2  20
ATOM     20  C   UNL     1       5.495   5.545  15.781  0.00  0.00    +0.000 C 
BRANCH  20  21
ATOM     21  O   UNL     1       4.938   4.238  15.867  0.00  0.00    +0.000 OA
BRANCH  21  22
ATOM     22  C   UNL     1       4.066   4.082  16.915  0.00  0.00    +0.000 A 
ATOM     23  C   UNL     1       3.375   5.220  17.340  0.00  0.00    +0.000 A 
ATOM     24  C   UNL     1       2.481   5.142  18.420  0.00  0.00    +0.000 A 
ATOM     25  C   UNL     1       2.274   3.912  19.057  0.00  0.00    +0.000 A 
ATOM     26  C   UNL     1       2.938   2.765  18.613  0.00  0.00    +0.000 A 
ATOM     27  C   UNL     1       3.821   2.854  17.538  0.00  0.00    +0.000 A 
BRANCH  25  28
ATOM     28  N   UNL     1       1.359   3.812  20.203  0.00  0.00    +0.000 N 
ATOM     29  O   UNL     1       1.081   4.850  20.812  0.00  0.00    +0.000 OA
ATOM     30  O   UNL     1       0.924   2.685  20.493  0.00  0.00    +0.000 OA
ENDBRANCH  25  28
ENDBRANCH  21  22
ENDBRANCH  20  21
ENDBRANCH   2  20
TORSDOF 7
ENDMDL
MODEL 2
REMARK VINA RESULT:      -8.1      3.320      4.364
REMARK  Name = 
REMARK  7 active torsions:
REMARK  status: ('A' for Active; 'I' for Inactive)
REMARK    1  A    between atoms: C_2  and  C_3
REMARK    2  A    between atoms: C_3  and  O_4
REMARK    3  A    between atoms: O_4  and  C_5
REMARK    4  A    between atoms: C_8  and  N_9
REMARK    5  A    between atoms: N_14  and  C_15
REMARK    6  A    between atoms: C_15  and  N_17
REMARK    7  A    between atoms: C_21  and  C_22
REMARK                            x       y       z     vdW  Elec       q    Type
REMARK                         _______ _______ _______ _____ _____    ______ ____
ROOT
ATOM      1  O   UNL     1       5.053   4.085  19.630  0.00  0.00    +0.000 OA
ATOM      2  C   UNL     1       4.812   4.643  18.556  0.00  0.00    +0.000 C 
ATOM      3  N   UNL     1       5.773   4.582  17.556  0.00  0.00    +0.000 N 
ATOM      4  H   UNL     1       6.550   4.040  17.926  0.00  0.00    +0.000 HD
ENDROOT
BRANCH   3   5
ATOM      5  C   UNL     1       5.971   5.071  16.261  0.00  0.00    +0.000 C 
ATOM      6  S   UNL     1       5.566   4.341  14.814  0.00  0.00    +0.000 S 
BRANCH   5   7
ATOM      7  N   UNL     1       6.549   6.312  16.161  0.00  0.00    +0.000 N 
ATOM      8  C   UNL     1       7.334   6.868  17.124  0.00  0.00    +0.000 A 
ATOM      9  N   UNL     1       7.842   6.322  18.205  0.00  0.00    +0.000 NA
ATOM     10  N   UNL     1       8.457   7.335  18.896  0.00  0.00    +0.000 NA
ATOM     11  C   UNL     1       8.276   8.431  18.186  0.00  0.00    +0.000 A 
ATOM     12  O   UNL     1       7.591   8.198  17.018  0.00  0.00    +0.000 OA
ATOM     13  H   UNL     1       6.238   6.919  15.415  0.00  0.00    +0.000 HD
BRANCH  11  14
ATOM     14  C   UNL     1       8.649   9.802  18.480  0.00  0.00    +0.000 A 
ATOM     15  C   UNL     1       8.284  10.825  17.592  0.00  0.00    +0.000 A 
ATOM     16  C   UNL     1       8.663  12.144  17.834  0.00  0.00    +0.000 A 
ATOM     17  C   UNL     1       9.417  12.455  18.964  0.00  0.00    +0.000 A 
ATOM     18  C   UNL     1       9.781  11.450  19.858  0.00  0.00    +0.000 A 
ATOM     19  C   UNL     1       9.399  10.130  19.619  0.00  0.00    +0.000 A 
ENDBRANCH  11  14
ENDBRANCH   5   7
ENDBRANCH   3   5
BRANCH   2  20
ATOM     20  C   UNL     1       3.489   5.332  18.307  0.00  0.00    +0.000 C 
BRANCH  20  21
ATOM     21  O   UNL     1       2.903   5.842  19.500  0.00  0.00    +0.000 OA
BRANCH  21  22
ATOM     22  C   UNL     1       2.355   7.090  19.350  0.00  0.00    +0.000 A 
ATOM     23  C   UNL     1       2.459   7.682  18.088  0.00  0.00    +0.000 A 
ATOM     24  C   UNL     1       1.940   8.967  17.865  0.00  0.00    +0.000 A 
ATOM     25  C   UNL     1       1.300   9.645  18.912  0.00  0.00    +0.000 A 
ATOM     26  C   UNL     1       1.164   9.042  20.165  0.00  0.00    +0.000 A 
ATOM     27  C   UNL     1       1.682   7.765  20.374  0.00  0.00    +0.000 A 
BRANCH  25  28
ATOM     28  N   UNL     1       0.768  10.999  18.706  0.00  0.00    +0.000 N 
ATOM     29  O   UNL     1      -0.458  11.132  18.627  0.00  0.00    +0.000 OA
ATOM     30  O   UNL     1       1.586  11.930  18.617  0.00  0.00    +0.000 OA
ENDBRANCH  25  28
ENDBRANCH  21  22
ENDBRANCH  20  21
ENDBRANCH   2  20
TORSDOF 7
ENDMDL
MODEL 3
REMARK VINA RESULT:      -8.0      4.500      7.424
REMARK  Name = 
REMARK  7 active torsions:
REMARK  status: ('A' for Active; 'I' for Inactive)
REMARK    1  A    between atoms: C_2  and  C_3
REMARK    2  A    between atoms: C_3  and  O_4
REMARK    3  A    between atoms: O_4  and  C_5
REMARK    4  A    between atoms: C_8  and  N_9
REMARK    5  A    between atoms: N_14  and  C_15
REMARK    6  A    between atoms: C_15  and  N_17
REMARK    7  A    between atoms: C_21  and  C_22
REMARK                            x       y       z     vdW  Elec       q    Type
REMARK                         _______ _______ _______ _____ _____    ______ ____
ROOT
ATOM      1  O   UNL     1       8.011   6.308  19.148  0.00  0.00    +0.000 OA
ATOM      2  C   UNL     1       7.134   5.548  18.725  0.00  0.00    +0.000 C 
ATOM      3  N   UNL     1       5.920   5.512  19.397  0.00  0.00    +0.000 N 
ATOM      4  H   UNL     1       5.987   6.176  20.165  0.00  0.00    +0.000 HD
ENDROOT
BRANCH   3   5
ATOM      5  C   UNL     1       4.708   4.818  19.335  0.00  0.00    +0.000 C 
ATOM      6  S   UNL     1       4.442   3.261  18.790  0.00  0.00    +0.000 S 
BRANCH   5   7
ATOM      7  N   UNL     1       3.600   5.485  19.795  0.00  0.00    +0.000 N 
ATOM      8  C   UNL     1       3.034   6.550  19.164  0.00  0.00    +0.000 A 
ATOM      9  N   UNL     1       3.274   7.036  17.968  0.00  0.00    +0.000 NA
ATOM     10  N   UNL     1       2.524   8.180  17.859  0.00  0.00    +0.000 NA
ATOM     11  C   UNL     1       1.881   8.311  19.002  0.00  0.00    +0.000 A 
ATOM     12  O   UNL     1       2.137   7.283  19.875  0.00  0.00    +0.000 OA
ATOM     13  H   UNL     1       3.291   5.292  20.738  0.00  0.00    +0.000 HD
BRANCH  11  14
ATOM     14  C   UNL     1       1.010   9.377  19.462  0.00  0.00    +0.000 A 
ATOM     15  C   UNL     1       0.748   9.514  20.833  0.00  0.00    +0.000 A 
ATOM     16  C   UNL     1      -0.115  10.507  21.295  0.00  0.00    +0.000 A 
ATOM     17  C   UNL     1      -0.730  11.370  20.390  0.00  0.00    +0.000 A 
ATOM     18  C   UNL     1      -0.474  11.249  19.026  0.00  0.00    +0.000 A 
ATOM     19  C   UNL     1       0.393  10.259  18.562  0.00  0.00    +0.000 A 
ENDBRANCH  11  14
ENDBRANCH   5   7
ENDBRANCH   3   5
BRANCH   2  20
ATOM     20  C   UNL     1       7.348   4.715  17.482  0.00  0.00    +0.000 C 
BRANCH  20  21
ATOM     21  O   UNL     1       7.473   5.508  16.306  0.00  0.00    +0.000 OA
BRANCH  21  22
ATOM     22  C   UNL     1       6.949   4.912  15.187  0.00  0.00    +0.000 A 
ATOM     23  C   UNL     1       5.741   4.226  15.338  0.00  0.00    +0.000 A 
ATOM     24  C   UNL     1       5.155   3.574  14.242  0.00  0.00    +0.000 A 
ATOM     25  C   UNL     1       5.781   3.631  12.990  0.00  0.00    +0.000 A 
ATOM     26  C   UNL     1       6.971   4.345  12.826  0.00  0.00    +0.000 A 
ATOM     27  C   UNL     1       7.542   4.990  13.922  0.00  0.00    +0.000 A 
BRANCH  25  28
ATOM     28  N   UNL     1       5.196   2.938  11.833  0.00  0.00    +0.000 N 
ATOM     29  O   UNL     1       5.742   1.900  11.445  0.00  0.00    +0.000 OA
ATOM     30  O   UNL     1       4.190   3.445  11.310  0.00  0.00    +0.000 OA
ENDBRANCH  25  28
ENDBRANCH  21  22
ENDBRANCH  20  21
ENDBRANCH   2  20
TORSDOF 7
ENDMDL
MODEL 4
REMARK VINA RESULT:      -7.8      3.093      4.020
REMARK  Name = 
REMARK  7 active torsions:
REMARK  status: ('A' for Active; 'I' for Inactive)
REMARK    1  A    between atoms: C_2  and  C_3
REMARK    2  A    between atoms: C_3  and  O_4
REMARK    3  A    between atoms: O_4  and  C_5
REMARK    4  A    between atoms: C_8  and  N_9
REMARK    5  A    between atoms: N_14  and  C_15
REMARK    6  A    between atoms: C_15  and  N_17
REMARK    7  A    between atoms: C_21  and  C_22
REMARK                            x       y       z     vdW  Elec       q    Type
REMARK                         _______ _______ _______ _____ _____    ______ ____
ROOT
ATOM      1  O   UNL     1       4.197   3.288  18.709  0.00  0.00    +0.000 OA
ATOM      2  C   UNL     1       4.810   4.294  18.338  0.00  0.00    +0.000 C 
ATOM      3  N   UNL     1       5.980   4.116  17.612  0.00  0.00    +0.000 N 
ATOM      4  H   UNL     1       6.115   3.113  17.510  0.00  0.00    +0.000 HD
ENDROOT
BRANCH   3   5
ATOM      5  C   UNL     1       6.991   4.898  17.047  0.00  0.00    +0.000 C 
ATOM      6  S   UNL     1       7.465   4.967  15.446  0.00  0.00    +0.000 S 
BRANCH   5   7
ATOM      7  N   UNL     1       7.669   5.729  17.904  0.00  0.00    +0.000 N 
ATOM      8  C   UNL     1       7.621   7.088  17.847  0.00  0.00    +0.000 A 
ATOM      9  N   UNL     1       6.834   7.866  17.142  0.00  0.00    +0.000 NA
ATOM     10  N   UNL     1       7.269   9.150  17.354  0.00  0.00    +0.000 NA
ATOM     11  C   UNL     1       8.297   9.061  18.174  0.00  0.00    +0.000 A 
ATOM     12  O   UNL     1       8.559   7.768  18.557  0.00  0.00    +0.000 OA
ATOM     13  H   UNL     1       8.378   5.319  18.497  0.00  0.00    +0.000 HD
BRANCH  11  14
ATOM     14  C   UNL     1       9.182  10.098  18.672  0.00  0.00    +0.000 A 
ATOM     15  C   UNL     1       9.209  10.385  20.044  0.00  0.00    +0.000 A 
ATOM     16  C   UNL     1      10.024  11.403  20.540  0.00  0.00    +0.000 A 
ATOM     17  C   UNL     1      10.816  12.147  19.669  0.00  0.00    +0.000 A 
ATOM     18  C   UNL     1      10.804  11.867  18.304  0.00  0.00    +0.000 A 
ATOM     19  C   UNL     1       9.993  10.847  17.806  0.00  0.00    +0.000 A 
ENDBRANCH  11  14
ENDBRANCH   5   7
ENDBRANCH   3   5
BRANCH   2  20
ATOM     20  C   UNL     1       4.283   5.683  18.615  0.00  0.00    +0.000 C 
BRANCH  20  21
ATOM     21  O   UNL     1       2.895   5.811  18.325  0.00  0.00    +0.000 OA
BRANCH  21  22
ATOM     22  C   UNL     1       2.364   7.016  18.710  0.00  0.00    +0.000 A 
ATOM     23  C   UNL     1       2.028   7.159  20.059  0.00  0.00    +0.000 A 
ATOM     24  C   UNL     1       1.461   8.356  20.524  0.00  0.00    +0.000 A 
ATOM     25  C   UNL     1       1.251   9.413  19.629  0.00  0.00    +0.000 A 
ATOM     26  C   UNL     1       1.617   9.286  18.287  0.00  0.00    +0.000 A 
ATOM     27  C   UNL     1       2.182   8.094  17.837  0.00  0.00    +0.000 A 
BRANCH  25  28
ATOM     28  N   UNL     1       0.639  10.668  20.090  0.00  0.00    +0.000 N 
ATOM     29  O   UNL     1       0.357  11.518  19.239  0.00  0.00    +0.000 OA
ATOM     30  O   UNL     1       0.449  10.799  21.310  0.00  0.00    +0.000 OA
ENDBRANCH  25  28
ENDBRANCH  21  22
ENDBRANCH  20  21
ENDBRANCH   2  20
TORSDOF 7
ENDMDL
MODEL 5
REMARK VINA RESULT:      -7.7      3.566      4.682
REMARK  Name = 
REMARK  7 active torsions:
REMARK  status: ('A' for Active; 'I' for Inactive)
REMARK    1  A    between atoms: C_2  and  C_3
REMARK    2  A    between atoms: C_3  and  O_4
REMARK    3  A    between atoms: O_4  and  C_5
REMARK    4  A    between atoms: C_8  and  N_9
REMARK    5  A    between atoms: N_14  and  C_15
REMARK    6  A    between atoms: C_15  and  N_17
REMARK    7  A    between atoms: C_21  and  C_22
REMARK                            x       y       z     vdW  Elec       q    Type
REMARK                         _______ _______ _______ _____ _____    ______ ____
ROOT
ATOM      1  O   UNL     1       3.981   5.115  19.549  0.00  0.00    +0.000 OA
ATOM      2  C   UNL     1       4.284   5.616  18.462  0.00  0.00    +0.000 C 
ATOM      3  N   UNL     1       5.236   4.969  17.686  0.00  0.00    +0.000 N 
ATOM      4  H   UNL     1       5.517   4.136  18.197  0.00  0.00    +0.000 HD
ENDROOT
BRANCH   3   5
ATOM      5  C   UNL     1       5.907   5.161  16.475  0.00  0.00    +0.000 C 
ATOM      6  S   UNL     1       6.019   4.108  15.183  0.00  0.00    +0.000 S 
BRANCH   5   7
ATOM      7  N   UNL     1       6.537   6.370  16.313  0.00  0.00    +0.000 N 
ATOM      8  C   UNL     1       7.336   6.946  17.252  0.00  0.00    +0.000 A 
ATOM      9  N   UNL     1       7.812   6.441  18.366  0.00  0.00    +0.000 NA
ATOM     10  N   UNL     1       8.462   7.465  19.008  0.00  0.00    +0.000 NA
ATOM     11  C   UNL     1       8.332   8.526  18.237  0.00  0.00    +0.000 A 
ATOM     12  O   UNL     1       7.647   8.258  17.077  0.00  0.00    +0.000 OA
ATOM     13  H   UNL     1       6.256   6.948  15.532  0.00  0.00    +0.000 HD
BRANCH  11  14
ATOM     14  C   UNL     1       8.758   9.896  18.459  0.00  0.00    +0.000 A 
ATOM     15  C   UNL     1       9.507  10.210  19.602  0.00  0.00    +0.000 A 
ATOM     16  C   UNL     1       9.895  11.526  19.857  0.00  0.00    +0.000 A 
ATOM     17  C   UNL     1       9.534  12.540  18.973  0.00  0.00    +0.000 A 
ATOM     18  C   UNL     1       8.795  12.241  17.830  0.00  0.00    +0.000 A 
ATOM     19  C   UNL     1       8.410  10.925  17.572  0.00  0.00    +0.000 A 
ENDBRANCH  11  14
ENDBRANCH   5   7
ENDBRANCH   3   5
BRANCH   2  20
ATOM     20  C   UNL     1       3.608   6.871  17.958  0.00  0.00    +0.000 C 
BRANCH  20  21
ATOM     21  O   UNL     1       2.207   6.878  18.212  0.00  0.00    +0.000 OA
BRANCH  21  22
ATOM     22  C   UNL     1       1.782   7.987  18.899  0.00  0.00    +0.000 A 
ATOM     23  C   UNL     1       1.614   7.853  20.280  0.00  0.00    +0.000 A 
ATOM     24  C   UNL     1       1.162   8.939  21.046  0.00  0.00    +0.000 A 
ATOM     25  C   UNL     1       0.897  10.163  20.420  0.00  0.00    +0.000 A 
ATOM     26  C   UNL     1       1.095  10.311  19.044  0.00  0.00    +0.000 A 
ATOM     27  C   UNL     1       1.547   9.226  18.294  0.00  0.00    +0.000 A 
BRANCH  25  28
ATOM     28  N   UNL     1       0.402  11.307  21.199  0.00  0.00    +0.000 N 
ATOM     29  O   UNL     1      -0.759  11.261  21.619  0.00  0.00    +0.000 OA
ATOM     30  O   UNL     1       1.182  12.256  21.382  0.00  0.00    +0.000 OA
ENDBRANCH  25  28
ENDBRANCH  21  22
ENDBRANCH  20  21
ENDBRANCH   2  20
TORSDOF 7
ENDMDL
MODEL 6
REMARK VINA RESULT:      -7.6      4.579      7.691
REMARK  Name = 
REMARK  7 active torsions:
REMARK  status: ('A' for Active; 'I' for Inactive)
REMARK    1  A    between atoms: C_2  and  C_3
REMARK    2  A    between atoms: C_3  and  O_4
REMARK    3  A    between atoms: O_4  and  C_5
REMARK    4  A    between atoms: C_8  and  N_9
REMARK    5  A    between atoms: N_14  and  C_15
REMARK    6  A    between atoms: C_15  and  N_17
REMARK    7  A    between atoms: C_21  and  C_22
REMARK                            x       y       z     vdW  Elec       q    Type
REMARK                         _______ _______ _______ _____ _____    ______ ____
ROOT
ATOM      1  O   UNL     1       6.051   7.610  16.707  0.00  0.00    +0.000 OA
ATOM      2  C   UNL     1       5.876   6.553  17.320  0.00  0.00    +0.000 C 
ATOM      3  N   UNL     1       4.665   6.369  17.975  0.00  0.00    +0.000 N 
ATOM      4  H   UNL     1       4.107   7.202  17.803  0.00  0.00    +0.000 HD
ENDROOT
BRANCH   3   5
ATOM      5  C   UNL     1       4.052   5.417  18.795  0.00  0.00    +0.000 C 
ATOM      6  S   UNL     1       4.315   3.768  18.830  0.00  0.00    +0.000 S 
BRANCH   5   7
ATOM      7  N   UNL     1       3.136   5.893  19.699  0.00  0.00    +0.000 N 
ATOM      8  C   UNL     1       2.405   7.027  19.520  0.00  0.00    +0.000 A 
ATOM      9  N   UNL     1       2.271   7.773  18.448  0.00  0.00    +0.000 NA
ATOM     10  N   UNL     1       1.523   8.860  18.824  0.00  0.00    +0.000 NA
ATOM     11  C   UNL     1       1.257   8.700  20.106  0.00  0.00    +0.000 A 
ATOM     12  O   UNL     1       1.766   7.528  20.610  0.00  0.00    +0.000 OA
ATOM     13  H   UNL     1       3.126   5.482  20.623  0.00  0.00    +0.000 HD
BRANCH  11  14
ATOM     14  C   UNL     1       0.566   9.580  21.029  0.00  0.00    +0.000 A 
ATOM     15  C   UNL     1       0.188   9.101  22.292  0.00  0.00    +0.000 A 
ATOM     16  C   UNL     1      -0.510   9.917  23.181  0.00  0.00    +0.000 A 
ATOM     17  C   UNL     1      -0.842  11.219  22.816  0.00  0.00    +0.000 A 
ATOM     18  C   UNL     1      -0.468  11.711  21.567  0.00  0.00    +0.000 A 
ATOM     19  C   UNL     1       0.234  10.897  20.677  0.00  0.00    +0.000 A 
ENDBRANCH  11  14
ENDBRANCH   5   7
ENDBRANCH   3   5
BRANCH   2  20
ATOM     20  C   UNL     1       6.923   5.462  17.322  0.00  0.00    +0.000 C 
BRANCH  20  21
ATOM     21  O   UNL     1       7.680   5.427  16.118  0.00  0.00    +0.000 OA
BRANCH  21  22
ATOM     22  C   UNL     1       7.042   4.783  15.089  0.00  0.00    +0.000 A 
ATOM     23  C   UNL     1       7.536   5.001  13.799  0.00  0.00    +0.000 A 
ATOM     24  C   UNL     1       6.921   4.393  12.694  0.00  0.00    +0.000 A 
ATOM     25  C   UNL     1       5.820   3.550  12.894  0.00  0.00    +0.000 A 
ATOM     26  C   UNL     1       5.344   3.303  14.184  0.00  0.00    +0.000 A 
ATOM     27  C   UNL     1       5.964   3.911  15.274  0.00  0.00    +0.000 A 
BRANCH  25  28
ATOM     28  N   UNL     1       5.148   2.919  11.749  0.00  0.00    +0.000 N 
ATOM     29  O   UNL     1       4.189   3.513  11.243  0.00  0.00    +0.000 OA
ATOM     30  O   UNL     1       5.582   1.821  11.363  0.00  0.00    +0.000 OA
ENDBRANCH  25  28
ENDBRANCH  21  22
ENDBRANCH  20  21
ENDBRANCH   2  20
TORSDOF 7
ENDMDL
MODEL 7
REMARK VINA RESULT:      -7.5      4.683      7.223
REMARK  Name = 
REMARK  7 active torsions:
REMARK  status: ('A' for Active; 'I' for Inactive)
REMARK    1  A    between atoms: C_2  and  C_3
REMARK    2  A    between atoms: C_3  and  O_4
REMARK    3  A    between atoms: O_4  and  C_5
REMARK    4  A    between atoms: C_8  and  N_9
REMARK    5  A    between atoms: N_14  and  C_15
REMARK    6  A    between atoms: C_15  and  N_17
REMARK    7  A    between atoms: C_21  and  C_22
REMARK                            x       y       z     vdW  Elec       q    Type
REMARK                         _______ _______ _______ _____ _____    ______ ____
ROOT
ATOM      1  O   UNL     1       7.486   5.529  19.600  0.00  0.00    +0.000 OA
ATOM      2  C   UNL     1       6.440   5.559  18.945  0.00  0.00    +0.000 C 
ATOM      3  N   UNL     1       5.268   5.147  19.566  0.00  0.00    +0.000 N 
ATOM      4  H   UNL     1       5.514   4.888  20.519  0.00  0.00    +0.000 HD
ENDROOT
BRANCH   3   5
ATOM      5  C   UNL     1       3.920   4.964  19.244  0.00  0.00    +0.000 C 
ATOM      6  S   UNL     1       3.232   3.716  18.373  0.00  0.00    +0.000 S 
BRANCH   5   7
ATOM      7  N   UNL     1       3.047   5.912  19.716  0.00  0.00    +0.000 N 
ATOM      8  C   UNL     1       2.606   6.974  18.987  0.00  0.00    +0.000 A 
ATOM      9  N   UNL     1       2.745   7.221  17.705  0.00  0.00    +0.000 NA
ATOM     10  N   UNL     1       2.222   8.473  17.495  0.00  0.00    +0.000 NA
ATOM     11  C   UNL     1       1.804   8.901  18.669  0.00  0.00    +0.000 A 
ATOM     12  O   UNL     1       1.990   7.976  19.667  0.00  0.00    +0.000 OA
ATOM     13  H   UNL     1       2.857   5.927  20.709  0.00  0.00    +0.000 HD
BRANCH  11  14
ATOM     14  C   UNL     1       1.237  10.183  19.044  0.00  0.00    +0.000 A 
ATOM     15  C   UNL     1       0.131  10.227  19.904  0.00  0.00    +0.000 A 
ATOM     16  C   UNL     1      -0.454  11.445  20.248  0.00  0.00    +0.000 A 
ATOM     17  C   UNL     1       0.059  12.633  19.730  0.00  0.00    +0.000 A 
ATOM     18  C   UNL     1       1.161  12.605  18.879  0.00  0.00    +0.000 A 
ATOM     19  C   UNL     1       1.750  11.387  18.538  0.00  0.00    +0.000 A 
ENDBRANCH  11  14
ENDBRANCH   5   7
ENDBRANCH   3   5
BRANCH   2  20
ATOM     20  C   UNL     1       6.414   6.075  17.525  0.00  0.00    +0.000 C 
BRANCH  20  21
ATOM     21  O   UNL     1       7.442   5.510  16.717  0.00  0.00    +0.000 OA
BRANCH  21  22
ATOM     22  C   UNL     1       6.978   4.953  15.553  0.00  0.00    +0.000 A 
ATOM     23  C   UNL     1       5.847   4.137  15.644  0.00  0.00    +0.000 A 
ATOM     24  C   UNL     1       5.328   3.516  14.497  0.00  0.00    +0.000 A 
ATOM     25  C   UNL     1       5.940   3.736  13.256  0.00  0.00    +0.000 A 
ATOM     26  C   UNL     1       7.050   4.578  13.155  0.00  0.00    +0.000 A 
ATOM     27  C   UNL     1       7.556   5.191  14.300  0.00  0.00    +0.000 A 
BRANCH  25  28
ATOM     28  N   UNL     1       5.425   3.080  12.046  0.00  0.00    +0.000 N 
ATOM     29  O   UNL     1       4.369   3.503  11.565  0.00  0.00    +0.000 OA
ATOM     30  O   UNL     1       6.083   2.133  11.584  0.00  0.00    +0.000 OA
ENDBRANCH  25  28
ENDBRANCH  21  22
ENDBRANCH  20  21
ENDBRANCH   2  20
TORSDOF 7
ENDMDL
MODEL 8
REMARK VINA RESULT:      -7.4      4.647      7.730
REMARK  Name = 
REMARK  7 active torsions:
REMARK  status: ('A' for Active; 'I' for Inactive)
REMARK    1  A    between atoms: C_2  and  C_3
REMARK    2  A    between atoms: C_3  and  O_4
REMARK    3  A    between atoms: O_4  and  C_5
REMARK    4  A    between atoms: C_8  and  N_9
REMARK    5  A    between atoms: N_14  and  C_15
REMARK    6  A    between atoms: C_15  and  N_17
REMARK    7  A    between atoms: C_21  and  C_22
REMARK                            x       y       z     vdW  Elec       q    Type
REMARK                         _______ _______ _______ _____ _____    ______ ____
ROOT
ATOM      1  O   UNL     1       7.285   5.362  18.887  0.00  0.00    +0.000 OA
ATOM      2  C   UNL     1       6.333   5.689  18.173  0.00  0.00    +0.000 C 
ATOM      3  N   UNL     1       5.051   5.392  18.616  0.00  0.00    +0.000 N 
ATOM      4  H   UNL     1       5.149   4.934  19.519  0.00  0.00    +0.000 HD
ENDROOT
BRANCH   3   5
ATOM      5  C   UNL     1       3.733   5.509  18.165  0.00  0.00    +0.000 C 
ATOM      6  S   UNL     1       2.661   4.283  17.790  0.00  0.00    +0.000 S 
BRANCH   5   7
ATOM      7  N   UNL     1       3.247   6.786  18.031  0.00  0.00    +0.000 N 
ATOM      8  C   UNL     1       2.505   7.424  18.977  0.00  0.00    +0.000 A 
ATOM      9  N   UNL     1       2.257   7.075  20.218  0.00  0.00    +0.000 NA
ATOM     10  N   UNL     1       1.365   7.996  20.707  0.00  0.00    +0.000 NA
ATOM     11  C   UNL     1       1.130   8.842  19.724  0.00  0.00    +0.000 A 
ATOM     12  O   UNL     1       1.853   8.553  18.592  0.00  0.00    +0.000 OA
ATOM     13  H   UNL     1       3.289   7.214  17.116  0.00  0.00    +0.000 HD
BRANCH  11  14
ATOM     14  C   UNL     1       0.213   9.965  19.662  0.00  0.00    +0.000 A 
ATOM     15  C   UNL     1      -0.362  10.322  18.434  0.00  0.00    +0.000 A 
ATOM     16  C   UNL     1      -1.216  11.421  18.343  0.00  0.00    +0.000 A 
ATOM     17  C   UNL     1      -1.501  12.176  19.478  0.00  0.00    +0.000 A 
ATOM     18  C   UNL     1      -0.942  11.828  20.706  0.00  0.00    +0.000 A 
ATOM     19  C   UNL     1      -0.090  10.727  20.800  0.00  0.00    +0.000 A 
ENDBRANCH  11  14
ENDBRANCH   5   7
ENDBRANCH   3   5
BRANCH   2  20
ATOM     20  C   UNL     1       6.541   6.437  16.876  0.00  0.00    +0.000 C 
BRANCH  20  21
ATOM     21  O   UNL     1       7.469   5.790  16.012  0.00  0.00    +0.000 OA
BRANCH  21  22
ATOM     22  C   UNL     1       6.872   5.065  15.013  0.00  0.00    +0.000 A 
ATOM     23  C   UNL     1       7.582   4.929  13.816  0.00  0.00    +0.000 A 
ATOM     24  C   UNL     1       7.026   4.218  12.741  0.00  0.00    +0.000 A 
ATOM     25  C   UNL     1       5.762   3.630  12.882  0.00  0.00    +0.000 A 
ATOM     26  C   UNL     1       5.064   3.735  14.088  0.00  0.00    +0.000 A 
ATOM     27  C   UNL     1       5.627   4.442  15.149  0.00  0.00    +0.000 A 
BRANCH  25  28
ATOM     28  N   UNL     1       5.151   2.899  11.762  0.00  0.00    +0.000 N 
ATOM     29  O   UNL     1       4.129   3.372  11.254  0.00  0.00    +0.000 OA
ATOM     30  O   UNL     1       5.699   1.845  11.399  0.00  0.00    +0.000 OA
ENDBRANCH  25  28
ENDBRANCH  21  22
ENDBRANCH  20  21
ENDBRANCH   2  20
TORSDOF 7
ENDMDL
MODEL 9
REMARK VINA RESULT:      -7.4      6.541      9.277
REMARK  Name = 
REMARK  7 active torsions:
REMARK  status: ('A' for Active; 'I' for Inactive)
REMARK    1  A    between atoms: C_2  and  C_3
REMARK    2  A    between atoms: C_3  and  O_4
REMARK    3  A    between atoms: O_4  and  C_5
REMARK    4  A    between atoms: C_8  and  N_9
REMARK    5  A    between atoms: N_14  and  C_15
REMARK    6  A    between atoms: C_15  and  N_17
REMARK    7  A    between atoms: C_21  and  C_22
REMARK                            x       y       z     vdW  Elec       q    Type
REMARK                         _______ _______ _______ _____ _____    ______ ____
ROOT
ATOM      1  O   UNL     1      -0.851  10.453  21.400  0.00  0.00    +0.000 OA
ATOM      2  C   UNL     1      -0.517  11.113  20.411  0.00  0.00    +0.000 C 
ATOM      3  N   UNL     1       0.762  10.928  19.902  0.00  0.00    +0.000 N 
ATOM      4  H   UNL     1       1.211  10.223  20.482  0.00  0.00    +0.000 HD
ENDROOT
BRANCH   3   5
ATOM      5  C   UNL     1       1.572  11.448  18.888  0.00  0.00    +0.000 C 
ATOM      6  S   UNL     1       2.041  13.035  18.660  0.00  0.00    +0.000 S 
BRANCH   5   7
ATOM      7  N   UNL     1       2.060  10.545  17.977  0.00  0.00    +0.000 N 
ATOM      8  C   UNL     1       2.218   9.217  18.228  0.00  0.00    +0.000 A 
ATOM      9  N   UNL     1       1.799   8.505  19.247  0.00  0.00    +0.000 NA
ATOM     10  N   UNL     1       2.319   7.246  19.079  0.00  0.00    +0.000 NA
ATOM     11  C   UNL     1       3.024   7.283  17.966  0.00  0.00    +0.000 A 
ATOM     12  O   UNL     1       2.977   8.510  17.349  0.00  0.00    +0.000 OA
ATOM     13  H   UNL     1       2.491  10.908  17.137  0.00  0.00    +0.000 HD
BRANCH  11  14
ATOM     14  C   UNL     1       3.847   6.258  17.351  0.00  0.00    +0.000 A 
ATOM     15  C   UNL     1       3.820   4.951  17.860  0.00  0.00    +0.000 A 
ATOM     16  C   UNL     1       4.630   3.958  17.310  0.00  0.00    +0.000 A 
ATOM     17  C   UNL     1       5.479   4.263  16.248  0.00  0.00    +0.000 A 
ATOM     18  C   UNL     1       5.512   5.555  15.729  0.00  0.00    +0.000 A 
ATOM     19  C   UNL     1       4.699   6.549  16.275  0.00  0.00    +0.000 A 
ENDBRANCH  11  14
ENDBRANCH   5   7
ENDBRANCH   3   5
BRANCH   2  20
ATOM     20  C   UNL     1      -1.482  12.060  19.734  0.00  0.00    +0.000 C 
BRANCH  20  21
ATOM     21  O   UNL     1      -2.735  11.451  19.444  0.00  0.00    +0.000 OA
BRANCH  21  22
ATOM     22  C   UNL     1      -2.862  11.057  18.136  0.00  0.00    +0.000 A 
ATOM     23  C   UNL     1      -3.943  11.578  17.418  0.00  0.00    +0.000 A 
ATOM     24  C   UNL     1      -4.150  11.204  16.081  0.00  0.00    +0.000 A 
ATOM     25  C   UNL     1      -3.255  10.320  15.465  0.00  0.00    +0.000 A 
ATOM     26  C   UNL     1      -2.154   9.824  16.169  0.00  0.00    +0.000 A 
ATOM     27  C   UNL     1      -1.958  10.204  17.495  0.00  0.00    +0.000 A 
BRANCH  25  28
ATOM     28  N   UNL     1      -3.464   9.899  14.072  0.00  0.00    +0.000 N 
ATOM     29  O   UNL     1      -4.626   9.721  13.692  0.00  0.00    +0.000 OA
ATOM     30  O   UNL     1      -2.456   9.742  13.363  0.00  0.00    +0.000 OA
ENDBRANCH  25  28
ENDBRANCH  21  22
ENDBRANCH  20  21
ENDBRANCH   2  20
TORSDOF 7
ENDMDL
