MODEL 1
REMARK VINA RESULT:      -8.2      0.000      0.000
REMARK  Name = 
REMARK  2 active torsions:
REMARK  status: ('A' for Active; 'I' for Inactive)
REMARK    1  A    between atoms: C_2  and  C_3
REMARK    2  A    between atoms: C_13  and  C_14
REMARK                            x       y       z     vdW  Elec       q    Type
REMARK                         _______ _______ _______ _____ _____    ______ ____
ROOT
ATOM      1  C   UNL     1      -0.158  13.596  19.545  0.00  0.00    +0.000 C 
ATOM      2  C   UNL     1      -0.545  14.202  20.902  0.00  0.00    +0.000 C 
ATOM      3  C   UNL     1      -0.227  13.282  22.077  0.00  0.00    +0.000 C 
ATOM      4  C   UNL     1      -0.839  11.898  21.891  0.00  0.00    +0.000 C 
ATOM      5  N   UNL     1      -0.471  11.344  20.592  0.00  0.00    +0.000 N 
ATOM      6  C   UNL     1       0.243  10.163  20.459  0.00  0.00    +0.000 A 
ATOM      7  C   UNL     1       0.174   9.161  21.447  0.00  0.00    +0.000 A 
ATOM      8  C   UNL     1       0.885   7.956  21.336  0.00  0.00    +0.000 A 
ATOM      9  C   UNL     1       1.649   7.794  20.187  0.00  0.00    +0.000 A 
ATOM     10  N   UNL     1       2.436   6.760  19.747  0.00  0.00    +0.000 NA
ATOM     11  C   UNL     1       2.880   7.130  18.554  0.00  0.00    +0.000 A 
ATOM     12  N   UNL     1       2.444   8.404  18.261  0.00  0.00    +0.000 N 
ATOM     13  C   UNL     1       1.636   8.826  19.270  0.00  0.00    +0.000 A 
ATOM     14  N   UNL     1       0.975   9.991  19.332  0.00  0.00    +0.000 NA
ATOM     15  C   UNL     1      -0.715  12.174  19.404  0.00  0.00    +0.000 C 
ATOM     16  H   UNL     1       2.664   8.942  17.439  0.00  0.00    +0.000 HD
ENDROOT
BRANCH   1  18
ATOM     17  O   UNL     1       2.095  12.736  19.748  0.00  0.00    +0.000 OA
ATOM     18  C   UNL     1       1.355  13.611  19.297  0.00  0.00    +0.000 C 
ATOM     19  N   UNL     1       1.863  14.645  18.526  0.00  0.00    +0.000 N 
ATOM     20  C   UNL     1       3.246  14.612  18.078  0.00  0.00    +0.000 C 
ATOM     21  C   UNL     1       3.715  16.051  18.200  0.00  0.00    +0.000 C 
ATOM     22  C   UNL     1       2.455  16.838  17.863  0.00  0.00    +0.000 C 
ATOM     23  C   UNL     1       1.343  16.004  18.493  0.00  0.00    +0.000 C 
ENDBRANCH   1  18
BRANCH  11  24
ATOM     24  C   UNL     1       3.705   6.319  17.658  0.00  0.00    +0.000 A 
ATOM     25  C   UNL     1       4.554   6.899  16.703  0.00  0.00    +0.000 A 
ATOM     26  C   UNL     1       5.304   6.096  15.839  0.00  0.00    +0.000 A 
ATOM     27  C   UNL     1       5.217   4.709  15.921  0.00  0.00    +0.000 A 
ATOM     28  C   UNL     1       4.380   4.120  16.865  0.00  0.00    +0.000 A 
ATOM     29  C   UNL     1       3.627   4.921  17.726  0.00  0.00    +0.000 A 
ENDBRANCH  11  24
TORSDOF 2
ENDMDL
MODEL 2
REMARK VINA RESULT:      -8.1      0.475      1.024
REMARK  Name = 
REMARK  2 active torsions:
REMARK  status: ('A' for Active; 'I' for Inactive)
REMARK    1  A    between atoms: C_2  and  C_3
REMARK    2  A    between atoms: C_13  and  C_14
REMARK                            x       y       z     vdW  Elec       q    Type
REMARK                         _______ _______ _______ _____ _____    ______ ____
ROOT
ATOM      1  C   UNL     1      -0.246  13.945  19.802  0.00  0.00    +0.000 C 
ATOM      2  C   UNL     1      -0.620  14.576  21.152  0.00  0.00    +0.000 C 
ATOM      3  C   UNL     1      -0.355  13.649  22.335  0.00  0.00    +0.000 C 
ATOM      4  C   UNL     1      -1.027  12.293  22.150  0.00  0.00    +0.000 C 
ATOM      5  N   UNL     1      -0.670  11.715  20.858  0.00  0.00    +0.000 N 
ATOM      6  C   UNL     1      -0.008  10.503  20.739  0.00  0.00    +0.000 A 
ATOM      7  C   UNL     1      -0.132   9.511  21.732  0.00  0.00    +0.000 A 
ATOM      8  C   UNL     1       0.525   8.274  21.634  0.00  0.00    +0.000 A 
ATOM      9  C   UNL     1       1.294   8.072  20.495  0.00  0.00    +0.000 A 
ATOM     10  N   UNL     1       2.039   7.002  20.069  0.00  0.00    +0.000 NA
ATOM     11  C   UNL     1       2.511   7.345  18.879  0.00  0.00    +0.000 A 
ATOM     12  N   UNL     1       2.135   8.635  18.575  0.00  0.00    +0.000 N 
ATOM     13  C   UNL     1       1.337   9.098  19.572  0.00  0.00    +0.000 A 
ATOM     14  N   UNL     1       0.727  10.292  19.621  0.00  0.00    +0.000 NA
ATOM     15  C   UNL     1      -0.864  12.549  19.663  0.00  0.00    +0.000 C 
ATOM     16  H   UNL     1       2.388   9.158  17.752  0.00  0.00    +0.000 HD
ENDROOT
BRANCH   1  18
ATOM     17  O   UNL     1       1.982  13.061  20.136  0.00  0.00    +0.000 OA
ATOM     18  C   UNL     1       1.269  13.891  19.571  0.00  0.00    +0.000 C 
ATOM     19  N   UNL     1       1.810  14.808  18.683  0.00  0.00    +0.000 N 
ATOM     20  C   UNL     1       3.195  14.685  18.257  0.00  0.00    +0.000 C 
ATOM     21  C   UNL     1       3.700  16.116  18.204  0.00  0.00    +0.000 C 
ATOM     22  C   UNL     1       2.464  16.886  17.758  0.00  0.00    +0.000 C 
ATOM     23  C   UNL     1       1.325  16.165  18.476  0.00  0.00    +0.000 C 
ENDBRANCH   1  18
BRANCH  11  24
ATOM     24  C   UNL     1       3.309   6.493  17.997  0.00  0.00    +0.000 A 
ATOM     25  C   UNL     1       3.145   5.099  17.963  0.00  0.00    +0.000 A 
ATOM     26  C   UNL     1       3.946   4.310  17.134  0.00  0.00    +0.000 A 
ATOM     27  C   UNL     1       4.915   4.902  16.328  0.00  0.00    +0.000 A 
ATOM     28  C   UNL     1       5.088   6.284  16.349  0.00  0.00    +0.000 A 
ATOM     29  C   UNL     1       4.290   7.073  17.181  0.00  0.00    +0.000 A 
ENDBRANCH  11  24
TORSDOF 2
ENDMDL
MODEL 3
REMARK VINA RESULT:      -7.8      1.573      2.501
REMARK  Name = 
REMARK  2 active torsions:
REMARK  status: ('A' for Active; 'I' for Inactive)
REMARK    1  A    between atoms: C_2  and  C_3
REMARK    2  A    between atoms: C_13  and  C_14
REMARK                            x       y       z     vdW  Elec       q    Type
REMARK                         _______ _______ _______ _____ _____    ______ ____
ROOT
ATOM      1  C   UNL     1      -0.457  15.183  21.219  0.00  0.00    +0.000 C 
ATOM      2  C   UNL     1      -0.851  15.839  22.551  0.00  0.00    +0.000 C 
ATOM      3  C   UNL     1      -0.806  14.869  23.728  0.00  0.00    +0.000 C 
ATOM      4  C   UNL     1      -1.634  13.618  23.458  0.00  0.00    +0.000 C 
ATOM      5  N   UNL     1      -1.255  13.016  22.184  0.00  0.00    +0.000 N 
ATOM      6  C   UNL     1      -0.752  11.727  22.087  0.00  0.00    +0.000 A 
ATOM      7  C   UNL     1      -1.085  10.747  23.042  0.00  0.00    +0.000 A 
ATOM      8  C   UNL     1      -0.591   9.435  22.966  0.00  0.00    +0.000 A 
ATOM      9  C   UNL     1       0.232   9.148  21.884  0.00  0.00    +0.000 A 
ATOM     10  N   UNL     1       0.860   7.994  21.491  0.00  0.00    +0.000 NA
ATOM     11  C   UNL     1       1.467   8.287  20.350  0.00  0.00    +0.000 A 
ATOM     12  N   UNL     1       1.291   9.619  20.049  0.00  0.00    +0.000 N 
ATOM     13  C   UNL     1       0.484  10.172  20.993  0.00  0.00    +0.000 A 
ATOM     14  N   UNL     1       0.036  11.436  21.024  0.00  0.00    +0.000 NA
ATOM     15  C   UNL     1      -1.242  13.884  20.998  0.00  0.00    +0.000 C 
ATOM     16  H   UNL     1       1.675  10.115  19.261  0.00  0.00    +0.000 HD
ENDROOT
BRANCH   1  18
ATOM     17  O   UNL     1       1.704  14.469  22.039  0.00  0.00    +0.000 OA
ATOM     18  C   UNL     1       1.051  14.930  21.103  0.00  0.00    +0.000 C 
ATOM     19  N   UNL     1       1.655  15.227  19.892  0.00  0.00    +0.000 N 
ATOM     20  C   UNL     1       3.029  14.824  19.640  0.00  0.00    +0.000 C 
ATOM     21  C   UNL     1       3.631  15.992  18.880  0.00  0.00    +0.000 C 
ATOM     22  C   UNL     1       2.451  16.493  18.057  0.00  0.00    +0.000 C 
ATOM     23  C   UNL     1       1.264  16.310  19.000  0.00  0.00    +0.000 C 
ENDBRANCH   1  18
BRANCH  11  24
ATOM     24  C   UNL     1       2.213   7.348  19.511  0.00  0.00    +0.000 A 
ATOM     25  C   UNL     1       2.386   6.004  19.875  0.00  0.00    +0.000 A 
ATOM     26  C   UNL     1       3.133   5.140  19.068  0.00  0.00    +0.000 A 
ATOM     27  C   UNL     1       3.710   5.608  17.890  0.00  0.00    +0.000 A 
ATOM     28  C   UNL     1       3.545   6.939  17.516  0.00  0.00    +0.000 A 
ATOM     29  C   UNL     1       2.803   7.804  18.323  0.00  0.00    +0.000 A 
ENDBRANCH  11  24
TORSDOF 2
ENDMDL
MODEL 4
REMARK VINA RESULT:      -7.8      1.719      2.692
REMARK  Name = 
REMARK  2 active torsions:
REMARK  status: ('A' for Active; 'I' for Inactive)
REMARK    1  A    between atoms: C_2  and  C_3
REMARK    2  A    between atoms: C_13  and  C_14
REMARK                            x       y       z     vdW  Elec       q    Type
REMARK                         _______ _______ _______ _____ _____    ______ ____
ROOT
ATOM      1  C   UNL     1      -1.933  14.810  20.860  0.00  0.00    +0.000 C 
ATOM      2  C   UNL     1      -2.232  15.537  22.179  0.00  0.00    +0.000 C 
ATOM      3  C   UNL     1      -1.736  14.774  23.404  0.00  0.00    +0.000 C 
ATOM      4  C   UNL     1      -2.263  13.343  23.427  0.00  0.00    +0.000 C 
ATOM      5  N   UNL     1      -1.981  12.672  22.161  0.00  0.00    +0.000 N 
ATOM      6  C   UNL     1      -1.200  11.530  22.079  0.00  0.00    +0.000 A 
ATOM      7  C   UNL     1      -1.102  10.641  23.168  0.00  0.00    +0.000 A 
ATOM      8  C   UNL     1      -0.321   9.476  23.109  0.00  0.00    +0.000 A 
ATOM      9  C   UNL     1       0.340   9.236  21.911  0.00  0.00    +0.000 A 
ATOM     10  N   UNL     1       1.154   8.210  21.502  0.00  0.00    +0.000 NA
ATOM     11  C   UNL     1       1.454   8.473  20.238  0.00  0.00    +0.000 A 
ATOM     12  N   UNL     1       0.901   9.677  19.861  0.00  0.00    +0.000 N 
ATOM     13  C   UNL     1       0.165  10.157  20.898  0.00  0.00    +0.000 A 
ATOM     14  N   UNL     1      -0.569  11.280  20.907  0.00  0.00    +0.000 NA
ATOM     15  C   UNL     1      -2.398  13.350  20.925  0.00  0.00    +0.000 C 
ATOM     16  H   UNL     1       1.002  10.133  18.969  0.00  0.00    +0.000 HD
ENDROOT
BRANCH   1  18
ATOM     17  O   UNL     1       0.425  14.327  21.108  0.00  0.00    +0.000 OA
ATOM     18  C   UNL     1      -0.456  14.890  20.457  0.00  0.00    +0.000 C 
ATOM     19  N   UNL     1      -0.146  15.612  19.315  0.00  0.00    +0.000 N 
ATOM     20  C   UNL     1       1.197  15.561  18.759  0.00  0.00    +0.000 C 
ATOM     21  C   UNL     1       1.470  16.983  18.303  0.00  0.00    +0.000 C 
ATOM     22  C   UNL     1       0.094  17.452  17.847  0.00  0.00    +0.000 C 
ATOM     23  C   UNL     1      -0.850  16.799  18.854  0.00  0.00    +0.000 C 
ENDBRANCH   1  18
BRANCH  11  24
ATOM     24  C   UNL     1       2.246   7.620  19.351  0.00  0.00    +0.000 A 
ATOM     25  C   UNL     1       2.610   6.313  19.709  0.00  0.00    +0.000 A 
ATOM     26  C   UNL     1       3.396   5.535  18.853  0.00  0.00    +0.000 A 
ATOM     27  C   UNL     1       3.823   6.052  17.633  0.00  0.00    +0.000 A 
ATOM     28  C   UNL     1       3.468   7.348  17.265  0.00  0.00    +0.000 A 
ATOM     29  C   UNL     1       2.686   8.126  18.120  0.00  0.00    +0.000 A 
ENDBRANCH  11  24
TORSDOF 2
ENDMDL
MODEL 5
REMARK VINA RESULT:      -7.8      1.328      1.997
REMARK  Name = 
REMARK  2 active torsions:
REMARK  status: ('A' for Active; 'I' for Inactive)
REMARK    1  A    between atoms: C_2  and  C_3
REMARK    2  A    between atoms: C_13  and  C_14
REMARK                            x       y       z     vdW  Elec       q    Type
REMARK                         _______ _______ _______ _____ _____    ______ ____
ROOT
ATOM      1  C   UNL     1       0.092  14.958  20.290  0.00  0.00    +0.000 C 
ATOM      2  C   UNL     1      -0.214  15.804  21.535  0.00  0.00    +0.000 C 
ATOM      3  C   UNL     1      -0.164  14.997  22.830  0.00  0.00    +0.000 C 
ATOM      4  C   UNL     1      -1.060  13.766  22.761  0.00  0.00    +0.000 C 
ATOM      5  N   UNL     1      -0.764  12.981  21.566  0.00  0.00    +0.000 N 
ATOM      6  C   UNL     1      -0.326  11.667  21.625  0.00  0.00    +0.000 A 
ATOM      7  C   UNL     1      -0.663  10.841  22.716  0.00  0.00    +0.000 A 
ATOM      8  C   UNL     1      -0.234   9.507  22.798  0.00  0.00    +0.000 A 
ATOM      9  C   UNL     1       0.528   9.036  21.736  0.00  0.00    +0.000 A 
ATOM     10  N   UNL     1       1.085   7.809  21.480  0.00  0.00    +0.000 NA
ATOM     11  C   UNL     1       1.655   7.917  20.289  0.00  0.00    +0.000 A 
ATOM     12  N   UNL     1       1.529   9.205  19.818  0.00  0.00    +0.000 N 
ATOM     13  C   UNL     1       0.789   9.918  20.707  0.00  0.00    +0.000 A 
ATOM     14  N   UNL     1       0.402  11.197  20.584  0.00  0.00    +0.000 NA
ATOM     15  C   UNL     1      -0.761  13.683  20.275  0.00  0.00    +0.000 C 
ATOM     16  H   UNL     1       1.902   9.572  18.957  0.00  0.00    +0.000 HD
ENDROOT
BRANCH   1  18
ATOM     17  O   UNL     1       2.171  13.945  21.005  0.00  0.00    +0.000 OA
ATOM     18  C   UNL     1       1.580  14.614  20.156  0.00  0.00    +0.000 C 
ATOM     19  N   UNL     1       2.240  15.074  19.027  0.00  0.00    +0.000 N 
ATOM     20  C   UNL     1       3.588  14.617  18.729  0.00  0.00    +0.000 C 
ATOM     21  C   UNL     1       4.296  15.851  18.201  0.00  0.00    +0.000 C 
ATOM     22  C   UNL     1       3.180  16.580  17.462  0.00  0.00    +0.000 C 
ATOM     23  C   UNL     1       1.956  16.324  18.338  0.00  0.00    +0.000 C 
ENDBRANCH   1  18
BRANCH  11  24
ATOM     24  C   UNL     1       2.320   6.838  19.557  0.00  0.00    +0.000 A 
ATOM     25  C   UNL     1       2.948   7.056  18.321  0.00  0.00    +0.000 A 
ATOM     26  C   UNL     1       3.545   5.996  17.631  0.00  0.00    +0.000 A 
ATOM     27  C   UNL     1       3.525   4.712  18.169  0.00  0.00    +0.000 A 
ATOM     28  C   UNL     1       2.907   4.481  19.395  0.00  0.00    +0.000 A 
ATOM     29  C   UNL     1       2.306   5.538  20.083  0.00  0.00    +0.000 A 
ENDBRANCH  11  24
TORSDOF 2
ENDMDL
MODEL 6
REMARK VINA RESULT:      -7.7      0.861      1.235
REMARK  Name = 
REMARK  2 active torsions:
REMARK  status: ('A' for Active; 'I' for Inactive)
REMARK    1  A    between atoms: C_2  and  C_3
REMARK    2  A    between atoms: C_13  and  C_14
REMARK                            x       y       z     vdW  Elec       q    Type
REMARK                         _______ _______ _______ _____ _____    ______ ____
ROOT
ATOM      1  C   UNL     1      -0.079  12.949  18.793  0.00  0.00    +0.000 C 
ATOM      2  C   UNL     1      -0.535  13.599  20.109  0.00  0.00    +0.000 C 
ATOM      3  C   UNL     1      -0.152  12.781  21.339  0.00  0.00    +0.000 C 
ATOM      4  C   UNL     1      -0.640  11.340  21.232  0.00  0.00    +0.000 C 
ATOM      5  N   UNL     1      -0.208  10.744  19.971  0.00  0.00    +0.000 N 
ATOM      6  C   UNL     1       0.607   9.624  19.915  0.00  0.00    +0.000 A 
ATOM      7  C   UNL     1       0.613   8.681  20.961  0.00  0.00    +0.000 A 
ATOM      8  C   UNL     1       1.427   7.538  20.927  0.00  0.00    +0.000 A 
ATOM      9  C   UNL     1       2.217   7.375  19.796  0.00  0.00    +0.000 A 
ATOM     10  N   UNL     1       3.096   6.391  19.425  0.00  0.00    +0.000 NA
ATOM     11  C   UNL     1       3.521   6.727  18.215  0.00  0.00    +0.000 A 
ATOM     12  N   UNL     1       2.980   7.937  17.843  0.00  0.00    +0.000 N 
ATOM     13  C   UNL     1       2.126   8.346  18.818  0.00  0.00    +0.000 A 
ATOM     14  N   UNL     1       1.365   9.451  18.806  0.00  0.00    +0.000 NA
ATOM     15  C   UNL     1      -0.509  11.478  18.734  0.00  0.00    +0.000 C 
ATOM     16  H   UNL     1       3.163   8.443  16.992  0.00  0.00    +0.000 HD
ENDROOT
BRANCH   1  18
ATOM     17  O   UNL     1       2.180  12.106  18.593  0.00  0.00    +0.000 OA
ATOM     18  C   UNL     1       1.430  13.081  18.556  0.00  0.00    +0.000 C 
ATOM     19  N   UNL     1       1.922  14.348  18.281  0.00  0.00    +0.000 N 
ATOM     20  C   UNL     1       3.299  14.519  17.844  0.00  0.00    +0.000 C 
ATOM     21  C   UNL     1       3.763  15.781  18.550  0.00  0.00    +0.000 C 
ATOM     22  C   UNL     1       2.495  16.623  18.587  0.00  0.00    +0.000 C 
ATOM     23  C   UNL     1       1.396  15.591  18.825  0.00  0.00    +0.000 C 
ENDBRANCH   1  18
BRANCH  11  24
ATOM     24  C   UNL     1       4.425   5.939  17.376  0.00  0.00    +0.000 A 
ATOM     25  C   UNL     1       4.125   4.622  16.994  0.00  0.00    +0.000 A 
ATOM     26  C   UNL     1       5.026   3.885  16.220  0.00  0.00    +0.000 A 
ATOM     27  C   UNL     1       6.231   4.455  15.816  0.00  0.00    +0.000 A 
ATOM     28  C   UNL     1       6.541   5.761  16.186  0.00  0.00    +0.000 A 
ATOM     29  C   UNL     1       5.644   6.497  16.964  0.00  0.00    +0.000 A 
ENDBRANCH  11  24
TORSDOF 2
ENDMDL
MODEL 7
REMARK VINA RESULT:      -7.5      4.361      6.980
REMARK  Name = 
REMARK  2 active torsions:
REMARK  status: ('A' for Active; 'I' for Inactive)
REMARK    1  A    between atoms: C_2  and  C_3
REMARK    2  A    between atoms: C_13  and  C_14
REMARK                            x       y       z     vdW  Elec       q    Type
REMARK                         _______ _______ _______ _____ _____    ______ ____
ROOT
ATOM      1  C   UNL     1      -6.734  13.628  22.280  0.00  0.00    +0.000 C 
ATOM      2  C   UNL     1      -7.073  15.033  22.801  0.00  0.00    +0.000 C 
ATOM      3  C   UNL     1      -5.839  15.909  22.995  0.00  0.00    +0.000 C 
ATOM      4  C   UNL     1      -4.796  15.227  23.873  0.00  0.00    +0.000 C 
ATOM      5  N   UNL     1      -4.496  13.890  23.370  0.00  0.00    +0.000 N 
ATOM      6  C   UNL     1      -3.226  13.514  22.960  0.00  0.00    +0.000 A 
ATOM      7  C   UNL     1      -2.079  14.133  23.497  0.00  0.00    +0.000 A 
ATOM      8  C   UNL     1      -0.783  13.769  23.102  0.00  0.00    +0.000 A 
ATOM      9  C   UNL     1      -0.687  12.750  22.162  0.00  0.00    +0.000 A 
ATOM     10  N   UNL     1       0.393  12.140  21.578  0.00  0.00    +0.000 NA
ATOM     11  C   UNL     1      -0.109  11.193  20.798  0.00  0.00    +0.000 A 
ATOM     12  N   UNL     1      -1.485  11.237  20.827  0.00  0.00    +0.000 N 
ATOM     13  C   UNL     1      -1.868  12.195  21.711  0.00  0.00    +0.000 A 
ATOM     14  N   UNL     1      -3.125  12.508  22.059  0.00  0.00    +0.000 NA
ATOM     15  C   UNL     1      -5.628  12.985  23.126  0.00  0.00    +0.000 C 
ATOM     16  H   UNL     1      -2.118  10.656  20.300  0.00  0.00    +0.000 HD
ENDROOT
BRANCH   1  18
ATOM     17  O   UNL     1      -6.121  14.662  20.180  0.00  0.00    +0.000 OA
ATOM     18  C   UNL     1      -6.352  13.621  20.795  0.00  0.00    +0.000 C 
ATOM     19  N   UNL     1      -6.260  12.388  20.168  0.00  0.00    +0.000 N 
ATOM     20  C   UNL     1      -5.707  12.288  18.827  0.00  0.00    +0.000 C 
ATOM     21  C   UNL     1      -6.574  11.251  18.137  0.00  0.00    +0.000 C 
ATOM     22  C   UNL     1      -6.912  10.296  19.275  0.00  0.00    +0.000 C 
ATOM     23  C   UNL     1      -7.081  11.225  20.474  0.00  0.00    +0.000 C 
ENDBRANCH   1  18
BRANCH  11  24
ATOM     24  C   UNL     1       0.665  10.226  20.020  0.00  0.00    +0.000 A 
ATOM     25  C   UNL     1       0.959  10.430  18.663  0.00  0.00    +0.000 A 
ATOM     26  C   UNL     1       1.672   9.471  17.938  0.00  0.00    +0.000 A 
ATOM     27  C   UNL     1       2.101   8.301  18.560  0.00  0.00    +0.000 A 
ATOM     28  C   UNL     1       1.818   8.085  19.906  0.00  0.00    +0.000 A 
ATOM     29  C   UNL     1       1.102   9.041  20.630  0.00  0.00    +0.000 A 
ENDBRANCH  11  24
TORSDOF 2
ENDMDL
MODEL 8
REMARK VINA RESULT:      -7.5      0.926      1.364
REMARK  Name = 
REMARK  2 active torsions:
REMARK  status: ('A' for Active; 'I' for Inactive)
REMARK    1  A    between atoms: C_2  and  C_3
REMARK    2  A    between atoms: C_13  and  C_14
REMARK                            x       y       z     vdW  Elec       q    Type
REMARK                         _______ _______ _______ _____ _____    ______ ____
ROOT
ATOM      1  C   UNL     1       0.639  13.988  18.880  0.00  0.00    +0.000 C 
ATOM      2  C   UNL     1       0.445  14.846  20.140  0.00  0.00    +0.000 C 
ATOM      3  C   UNL     1       0.690  14.070  21.431  0.00  0.00    +0.000 C 
ATOM      4  C   UNL     1      -0.148  12.797  21.491  0.00  0.00    +0.000 C 
ATOM      5  N   UNL     1       0.040  12.002  20.281  0.00  0.00    +0.000 N 
ATOM      6  C   UNL     1       0.545  10.711  20.307  0.00  0.00    +0.000 A 
ATOM      7  C   UNL     1       0.382   9.893  21.443  0.00  0.00    +0.000 A 
ATOM      8  C   UNL     1       0.881   8.582  21.494  0.00  0.00    +0.000 A 
ATOM      9  C   UNL     1       1.531   8.125  20.354  0.00  0.00    +0.000 A 
ATOM     10  N   UNL     1       2.111   6.919  20.051  0.00  0.00    +0.000 NA
ATOM     11  C   UNL     1       2.528   7.028  18.798  0.00  0.00    +0.000 A 
ATOM     12  N   UNL     1       2.284   8.299  18.326  0.00  0.00    +0.000 N 
ATOM     13  C   UNL     1       1.623   8.996  19.287  0.00  0.00    +0.000 A 
ATOM     14  N   UNL     1       1.163  10.252  19.192  0.00  0.00    +0.000 NA
ATOM     15  C   UNL     1      -0.147  12.675  18.988  0.00  0.00    +0.000 C 
ATOM     16  H   UNL     1       2.533   8.664  17.421  0.00  0.00    +0.000 HD
ENDROOT
BRANCH   1  18
ATOM     17  O   UNL     1       2.560  12.564  18.511  0.00  0.00    +0.000 OA
ATOM     18  C   UNL     1       2.115  13.710  18.571  0.00  0.00    +0.000 C 
ATOM     19  N   UNL     1       2.935  14.804  18.345  0.00  0.00    +0.000 N 
ATOM     20  C   UNL     1       4.288  14.616  17.847  0.00  0.00    +0.000 C 
ATOM     21  C   UNL     1       5.114  15.644  18.600  0.00  0.00    +0.000 C 
ATOM     22  C   UNL     1       4.137  16.802  18.754  0.00  0.00    +0.000 C 
ATOM     23  C   UNL     1       2.800  16.104  18.988  0.00  0.00    +0.000 C 
ENDBRANCH   1  18
BRANCH  11  24
ATOM     24  C   UNL     1       3.151   5.965  18.008  0.00  0.00    +0.000 A 
ATOM     25  C   UNL     1       2.595   4.680  17.923  0.00  0.00    +0.000 A 
ATOM     26  C   UNL     1       3.233   3.677  17.188  0.00  0.00    +0.000 A 
ATOM     27  C   UNL     1       4.429   3.947  16.527  0.00  0.00    +0.000 A 
ATOM     28  C   UNL     1       4.992   5.218  16.602  0.00  0.00    +0.000 A 
ATOM     29  C   UNL     1       4.358   6.220  17.340  0.00  0.00    +0.000 A 
ENDBRANCH  11  24
TORSDOF 2
ENDMDL
MODEL 9
REMARK VINA RESULT:      -7.4      1.766      2.582
REMARK  Name = 
REMARK  2 active torsions:
REMARK  status: ('A' for Active; 'I' for Inactive)
REMARK    1  A    between atoms: C_2  and  C_3
REMARK    2  A    between atoms: C_13  and  C_14
REMARK                            x       y       z     vdW  Elec       q    Type
REMARK                         _______ _______ _______ _____ _____    ______ ____
ROOT
ATOM      1  C   UNL     1      -0.521  15.197  21.327  0.00  0.00    +0.000 C 
ATOM      2  C   UNL     1      -0.932  15.832  22.664  0.00  0.00    +0.000 C 
ATOM      3  C   UNL     1      -0.894  14.845  23.827  0.00  0.00    +0.000 C 
ATOM      4  C   UNL     1      -1.712  13.593  23.531  0.00  0.00    +0.000 C 
ATOM      5  N   UNL     1      -1.315  13.011  22.252  0.00  0.00    +0.000 N 
ATOM      6  C   UNL     1      -0.803  11.727  22.142  0.00  0.00    +0.000 A 
ATOM      7  C   UNL     1      -1.140  10.731  23.080  0.00  0.00    +0.000 A 
ATOM      8  C   UNL     1      -0.638   9.424  22.990  0.00  0.00    +0.000 A 
ATOM      9  C   UNL     1       0.199   9.157  21.913  0.00  0.00    +0.000 A 
ATOM     10  N   UNL     1       0.838   8.012  21.510  0.00  0.00    +0.000 NA
ATOM     11  C   UNL     1       1.456   8.326  20.380  0.00  0.00    +0.000 A 
ATOM     12  N   UNL     1       1.274   9.661  20.097  0.00  0.00    +0.000 N 
ATOM     13  C   UNL     1       0.454  10.195  21.039  0.00  0.00    +0.000 A 
ATOM     14  N   UNL     1      -0.002  11.456  21.084  0.00  0.00    +0.000 NA
ATOM     15  C   UNL     1      -1.295  13.897  21.079  0.00  0.00    +0.000 C 
ATOM     16  H   UNL     1       1.664  10.171  19.320  0.00  0.00    +0.000 HD
ENDROOT
BRANCH   1  18
ATOM     17  O   UNL     1       1.778  15.408  22.055  0.00  0.00    +0.000 OA
ATOM     18  C   UNL     1       0.990  14.955  21.224  0.00  0.00    +0.000 C 
ATOM     19  N   UNL     1       1.441  14.188  20.161  0.00  0.00    +0.000 N 
ATOM     20  C   UNL     1       2.825  13.745  20.112  0.00  0.00    +0.000 C 
ATOM     21  C   UNL     1       3.209  13.872  18.648  0.00  0.00    +0.000 C 
ATOM     22  C   UNL     1       1.906  13.532  17.935  0.00  0.00    +0.000 C 
ATOM     23  C   UNL     1       0.842  14.156  18.834  0.00  0.00    +0.000 C 
ENDBRANCH   1  18
BRANCH  11  24
ATOM     24  C   UNL     1       2.216   7.404  19.536  0.00  0.00    +0.000 A 
ATOM     25  C   UNL     1       2.789   7.810  18.321  0.00  0.00    +0.000 A 
ATOM     26  C   UNL     1       3.480   6.896  17.521  0.00  0.00    +0.000 A 
ATOM     27  C   UNL     1       3.610   5.570  17.926  0.00  0.00    +0.000 A 
ATOM     28  C   UNL     1       3.048   5.153  19.130  0.00  0.00    +0.000 A 
ATOM     29  C   UNL     1       2.353   6.064  19.928  0.00  0.00    +0.000 A 
ENDBRANCH  11  24
TORSDOF 2
ENDMDL
