MODEL 1
REMARK VINA RESULT:      -5.7      0.000      0.000
REMARK  Name = 
REMARK  5 active torsions:
REMARK  status: ('A' for Active; 'I' for Inactive)
REMARK    1  A    between atoms: C_2  and  C_3
REMARK    2  A    between atoms: C_3  and  O_4
REMARK    3  A    between atoms: O_4  and  C_5
REMARK    4  A    between atoms: C_5  and  C_7
REMARK    5  A    between atoms: N_11  and  C_12
REMARK                            x       y       z     vdW  Elec       q    Type
REMARK                         _______ _______ _______ _____ _____    ______ ____
ROOT
ATOM      1  C   UNL     1       6.694   5.148  16.298  0.00  0.00    +0.000 C 
ATOM      2  C   UNL     1       7.305   6.214  16.843  0.00  0.00    +0.000 C 
ATOM      3  C   UNL     1       7.372   6.450  18.311  0.00  0.00    +0.000 C 
ATOM      4  C   UNL     1       6.714   5.380  19.191  0.00  0.00    +0.000 C 
ATOM      5  N   UNL     1       5.871   4.357  18.576  0.00  0.00    +0.000 NA
ATOM      6  C   UNL     1       4.504   4.389  19.078  0.00  0.00    +0.000 C 
ATOM      7  C   UNL     1       5.964   4.134  17.121  0.00  0.00    +0.000 C 
ENDROOT
BRANCH   1   8
ATOM      8  C   UNL     1       6.828   5.014  14.812  0.00  0.00    +0.000 C 
ATOM      9  O   UNL     1       7.757   5.509  14.189  0.00  0.00    +0.000 OA
BRANCH   8  10
ATOM     10  O   UNL     1       5.838   4.269  14.238  0.00  0.00    +0.000 OA
BRANCH  10  11
ATOM     11  C   UNL     1       6.251   3.550  13.042  0.00  0.00    +0.000 C 
BRANCH  11  13
ATOM     12  C   UNL     1       4.046   3.281  11.298  0.00  0.00    +0.000 C 
ATOM     13  C   UNL     1       5.064   3.406  12.103  0.00  0.00    +0.000 C 
ENDBRANCH  11  13
ENDBRANCH  10  11
ENDBRANCH   8  10
ENDBRANCH   1   8
TORSDOF 4
ENDMDL
MODEL 2
REMARK VINA RESULT:      -5.7      0.842      1.809
REMARK  Name = 
REMARK  5 active torsions:
REMARK  status: ('A' for Active; 'I' for Inactive)
REMARK    1  A    between atoms: C_2  and  C_3
REMARK    2  A    between atoms: C_3  and  O_4
REMARK    3  A    between atoms: O_4  and  C_5
REMARK    4  A    between atoms: C_5  and  C_7
REMARK    5  A    between atoms: N_11  and  C_12
REMARK                            x       y       z     vdW  Elec       q    Type
REMARK                         _______ _______ _______ _____ _____    ______ ____
ROOT
ATOM      1  C   UNL     1       6.334   4.961  16.188  0.00  0.00    +0.000 C 
ATOM      2  C   UNL     1       5.397   4.117  16.649  0.00  0.00    +0.000 C 
ATOM      3  C   UNL     1       4.916   4.126  18.058  0.00  0.00    +0.000 C 
ATOM      4  C   UNL     1       5.544   5.187  18.971  0.00  0.00    +0.000 C 
ATOM      5  N   UNL     1       6.710   5.937  18.511  0.00  0.00    +0.000 NA
ATOM      6  C   UNL     1       7.869   5.744  19.372  0.00  0.00    +0.000 C 
ATOM      7  C   UNL     1       7.033   5.946  17.072  0.00  0.00    +0.000 C 
ENDROOT
BRANCH   1   8
ATOM      8  C   UNL     1       6.608   4.884  14.718  0.00  0.00    +0.000 C 
ATOM      9  O   UNL     1       7.646   5.298  14.220  0.00  0.00    +0.000 OA
BRANCH   8  10
ATOM     10  O   UNL     1       5.609   4.285  14.005  0.00  0.00    +0.000 OA
BRANCH  10  11
ATOM     11  C   UNL     1       6.068   3.546  12.839  0.00  0.00    +0.000 C 
BRANCH  11  13
ATOM     12  C   UNL     1       3.908   3.151  11.064  0.00  0.00    +0.000 C 
ATOM     13  C   UNL     1       4.905   3.334  11.883  0.00  0.00    +0.000 C 
ENDBRANCH  11  13
ENDBRANCH  10  11
ENDBRANCH   8  10
ENDBRANCH   1   8
TORSDOF 4
ENDMDL
MODEL 3
REMARK VINA RESULT:      -5.7      1.807      1.981
REMARK  Name = 
REMARK  5 active torsions:
REMARK  status: ('A' for Active; 'I' for Inactive)
REMARK    1  A    between atoms: C_2  and  C_3
REMARK    2  A    between atoms: C_3  and  O_4
REMARK    3  A    between atoms: O_4  and  C_5
REMARK    4  A    between atoms: C_5  and  C_7
REMARK    5  A    between atoms: N_11  and  C_12
REMARK                            x       y       z     vdW  Elec       q    Type
REMARK                         _______ _______ _______ _____ _____    ______ ____
ROOT
ATOM      1  C   UNL     1       5.340   4.903  16.235  0.00  0.00    +0.000 C 
ATOM      2  C   UNL     1       5.158   6.234  16.275  0.00  0.00    +0.000 C 
ATOM      3  C   UNL     1       4.184   6.894  17.186  0.00  0.00    +0.000 C 
ATOM      4  C   UNL     1       3.397   5.959  18.114  0.00  0.00    +0.000 C 
ATOM      5  N   UNL     1       3.449   4.516  17.897  0.00  0.00    +0.000 NA
ATOM      6  C   UNL     1       2.136   3.948  17.623  0.00  0.00    +0.000 C 
ATOM      7  C   UNL     1       4.526   3.956  17.058  0.00  0.00    +0.000 C 
ENDROOT
BRANCH   1   8
ATOM      8  C   UNL     1       6.443   4.428  15.341  0.00  0.00    +0.000 C 
ATOM      9  O   UNL     1       7.595   4.826  15.449  0.00  0.00    +0.000 OA
BRANCH   8  10
ATOM     10  O   UNL     1       6.045   3.494  14.427  0.00  0.00    +0.000 OA
BRANCH  10  11
ATOM     11  C   UNL     1       6.391   3.819  13.052  0.00  0.00    +0.000 C 
BRANCH  11  13
ATOM     12  C   UNL     1       4.224   3.180  11.359  0.00  0.00    +0.000 C 
ATOM     13  C   UNL     1       5.225   3.474  12.141  0.00  0.00    +0.000 C 
ENDBRANCH  11  13
ENDBRANCH  10  11
ENDBRANCH   8  10
ENDBRANCH   1   8
TORSDOF 4
ENDMDL
MODEL 4
REMARK VINA RESULT:      -5.7      3.554      5.816
REMARK  Name = 
REMARK  5 active torsions:
REMARK  status: ('A' for Active; 'I' for Inactive)
REMARK    1  A    between atoms: C_2  and  C_3
REMARK    2  A    between atoms: C_3  and  O_4
REMARK    3  A    between atoms: O_4  and  C_5
REMARK    4  A    between atoms: C_5  and  C_7
REMARK    5  A    between atoms: N_11  and  C_12
REMARK                            x       y       z     vdW  Elec       q    Type
REMARK                         _______ _______ _______ _____ _____    ______ ____
ROOT
ATOM      1  C   UNL     1       3.543   4.114  17.387  0.00  0.00    +0.000 C 
ATOM      2  C   UNL     1       3.124   5.265  17.939  0.00  0.00    +0.000 C 
ATOM      3  C   UNL     1       3.801   6.570  17.708  0.00  0.00    +0.000 C 
ATOM      4  C   UNL     1       5.015   6.537  16.770  0.00  0.00    +0.000 C 
ATOM      5  N   UNL     1       5.581   5.252  16.367  0.00  0.00    +0.000 NA
ATOM      6  C   UNL     1       6.970   5.105  16.776  0.00  0.00    +0.000 C 
ATOM      7  C   UNL     1       4.775   4.029  16.544  0.00  0.00    +0.000 C 
ENDROOT
BRANCH   1   8
ATOM      8  C   UNL     1       2.671   2.921  17.637  0.00  0.00    +0.000 C 
ATOM      9  O   UNL     1       3.118   1.785  17.716  0.00  0.00    +0.000 OA
BRANCH   8  10
ATOM     10  O   UNL     1       1.350   3.232  17.796  0.00  0.00    +0.000 OA
BRANCH  10  11
ATOM     11  C   UNL     1       0.685   2.483  18.850  0.00  0.00    +0.000 C 
BRANCH  11  13
ATOM     12  C   UNL     1       1.619   3.365  21.365  0.00  0.00    +0.000 C 
ATOM     13  C   UNL     1       1.188   2.957  20.204  0.00  0.00    +0.000 C 
ENDBRANCH  11  13
ENDBRANCH  10  11
ENDBRANCH   8  10
ENDBRANCH   1   8
TORSDOF 4
ENDMDL
MODEL 5
REMARK VINA RESULT:      -5.5      3.277      5.545
REMARK  Name = 
REMARK  5 active torsions:
REMARK  status: ('A' for Active; 'I' for Inactive)
REMARK    1  A    between atoms: C_2  and  C_3
REMARK    2  A    between atoms: C_3  and  O_4
REMARK    3  A    between atoms: O_4  and  C_5
REMARK    4  A    between atoms: C_5  and  C_7
REMARK    5  A    between atoms: N_11  and  C_12
REMARK                            x       y       z     vdW  Elec       q    Type
REMARK                         _______ _______ _______ _____ _____    ______ ____
ROOT
ATOM      1  C   UNL     1       4.282   4.262  17.667  0.00  0.00    +0.000 C 
ATOM      2  C   UNL     1       4.705   4.389  16.399  0.00  0.00    +0.000 C 
ATOM      3  C   UNL     1       6.142   4.502  16.028  0.00  0.00    +0.000 C 
ATOM      4  C   UNL     1       7.139   4.442  17.193  0.00  0.00    +0.000 C 
ATOM      5  N   UNL     1       6.651   4.530  18.567  0.00  0.00    +0.000 NA
ATOM      6  C   UNL     1       7.198   5.675  19.279  0.00  0.00    +0.000 C 
ATOM      7  C   UNL     1       5.219   4.293  18.833  0.00  0.00    +0.000 C 
ENDROOT
BRANCH   1   8
ATOM      8  C   UNL     1       2.810   4.044  17.840  0.00  0.00    +0.000 C 
ATOM      9  O   UNL     1       1.995   4.951  17.737  0.00  0.00    +0.000 OA
BRANCH   8  10
ATOM     10  O   UNL     1       2.474   2.744  18.088  0.00  0.00    +0.000 OA
BRANCH  10  11
ATOM     11  C   UNL     1       1.204   2.577  18.777  0.00  0.00    +0.000 C 
BRANCH  11  13
ATOM     12  C   UNL     1       1.617   2.760  21.565  0.00  0.00    +0.000 C 
ATOM     13  C   UNL     1       1.426   2.676  20.278  0.00  0.00    +0.000 C 
ENDBRANCH  11  13
ENDBRANCH  10  11
ENDBRANCH   8  10
ENDBRANCH   1   8
TORSDOF 4
ENDMDL
MODEL 6
REMARK VINA RESULT:      -5.5      3.634      5.460
REMARK  Name = 
REMARK  5 active torsions:
REMARK  status: ('A' for Active; 'I' for Inactive)
REMARK    1  A    between atoms: C_2  and  C_3
REMARK    2  A    between atoms: C_3  and  O_4
REMARK    3  A    between atoms: O_4  and  C_5
REMARK    4  A    between atoms: C_5  and  C_7
REMARK    5  A    between atoms: N_11  and  C_12
REMARK                            x       y       z     vdW  Elec       q    Type
REMARK                         _______ _______ _______ _____ _____    ______ ____
ROOT
ATOM      1  C   UNL     1       4.083   4.600  18.803  0.00  0.00    +0.000 C 
ATOM      2  C   UNL     1       3.831   3.933  17.665  0.00  0.00    +0.000 C 
ATOM      3  C   UNL     1       2.505   3.336  17.348  0.00  0.00    +0.000 C 
ATOM      4  C   UNL     1       1.410   3.545  18.403  0.00  0.00    +0.000 C 
ATOM      5  N   UNL     1       1.765   4.073  19.718  0.00  0.00    +0.000 NA
ATOM      6  C   UNL     1       1.431   3.151  20.795  0.00  0.00    +0.000 C 
ATOM      7  C   UNL     1       3.067   4.743  19.892  0.00  0.00    +0.000 C 
ENDROOT
BRANCH   1   8
ATOM      8  C   UNL     1       5.439   5.231  18.897  0.00  0.00    +0.000 C 
ATOM      9  O   UNL     1       6.237   4.946  19.779  0.00  0.00    +0.000 OA
BRANCH   8  10
ATOM     10  O   UNL     1       5.700   6.121  17.894  0.00  0.00    +0.000 OA
BRANCH  10  11
ATOM     11  C   UNL     1       7.096   6.172  17.490  0.00  0.00    +0.000 C 
BRANCH  11  13
ATOM     12  C   UNL     1       8.080   8.797  17.830  0.00  0.00    +0.000 C 
ATOM     13  C   UNL     1       7.625   7.585  17.673  0.00  0.00    +0.000 C 
ENDBRANCH  11  13
ENDBRANCH  10  11
ENDBRANCH   8  10
ENDBRANCH   1   8
TORSDOF 4
ENDMDL
MODEL 7
REMARK VINA RESULT:      -5.5      3.653      5.762
REMARK  Name = 
REMARK  5 active torsions:
REMARK  status: ('A' for Active; 'I' for Inactive)
REMARK    1  A    between atoms: C_2  and  C_3
REMARK    2  A    between atoms: C_3  and  O_4
REMARK    3  A    between atoms: O_4  and  C_5
REMARK    4  A    between atoms: C_5  and  C_7
REMARK    5  A    between atoms: N_11  and  C_12
REMARK                            x       y       z     vdW  Elec       q    Type
REMARK                         _______ _______ _______ _____ _____    ______ ____
ROOT
ATOM      1  C   UNL     1       3.605   4.266  17.394  0.00  0.00    +0.000 C 
ATOM      2  C   UNL     1       3.385   5.519  17.826  0.00  0.00    +0.000 C 
ATOM      3  C   UNL     1       4.215   6.681  17.410  0.00  0.00    +0.000 C 
ATOM      4  C   UNL     1       5.348   6.374  16.422  0.00  0.00    +0.000 C 
ATOM      5  N   UNL     1       5.706   4.985  16.143  0.00  0.00    +0.000 NA
ATOM      6  C   UNL     1       7.087   4.686  16.496  0.00  0.00    +0.000 C 
ATOM      7  C   UNL     1       4.756   3.915  16.504  0.00  0.00    +0.000 C 
ENDROOT
BRANCH   1   8
ATOM      8  C   UNL     1       2.598   3.245  17.826  0.00  0.00    +0.000 C 
ATOM      9  O   UNL     1       1.398   3.383  17.633  0.00  0.00    +0.000 OA
BRANCH   8  10
ATOM     10  O   UNL     1       3.152   2.146  18.419  0.00  0.00    +0.000 OA
BRANCH  10  11
ATOM     11  C   UNL     1       3.765   2.412  19.711  0.00  0.00    +0.000 C 
BRANCH  11  13
ATOM     12  C   UNL     1       1.754   2.998  21.606  0.00  0.00    +0.000 C 
ATOM     13  C   UNL     1       2.682   2.727  20.731  0.00  0.00    +0.000 C 
ENDBRANCH  11  13
ENDBRANCH  10  11
ENDBRANCH   8  10
ENDBRANCH   1   8
TORSDOF 4
ENDMDL
MODEL 8
REMARK VINA RESULT:      -5.4      1.681      2.262
REMARK  Name = 
REMARK  5 active torsions:
REMARK  status: ('A' for Active; 'I' for Inactive)
REMARK    1  A    between atoms: C_2  and  C_3
REMARK    2  A    between atoms: C_3  and  O_4
REMARK    3  A    between atoms: O_4  and  C_5
REMARK    4  A    between atoms: C_5  and  C_7
REMARK    5  A    between atoms: N_11  and  C_12
REMARK                            x       y       z     vdW  Elec       q    Type
REMARK                         _______ _______ _______ _____ _____    ______ ____
ROOT
ATOM      1  C   UNL     1       5.429   4.924  17.439  0.00  0.00    +0.000 C 
ATOM      2  C   UNL     1       4.678   5.930  16.962  0.00  0.00    +0.000 C 
ATOM      3  C   UNL     1       3.601   6.587  17.751  0.00  0.00    +0.000 C 
ATOM      4  C   UNL     1       3.402   6.060  19.178  0.00  0.00    +0.000 C 
ATOM      5  N   UNL     1       4.071   4.829  19.593  0.00  0.00    +0.000 NA
ATOM      6  C   UNL     1       3.129   3.794  19.996  0.00  0.00    +0.000 C 
ATOM      7  C   UNL     1       5.201   4.324  18.791  0.00  0.00    +0.000 C 
ENDROOT
BRANCH   1   8
ATOM      8  C   UNL     1       6.541   4.465  16.547  0.00  0.00    +0.000 C 
ATOM      9  O   UNL     1       7.720   4.613  16.837  0.00  0.00    +0.000 OA
BRANCH   8  10
ATOM     10  O   UNL     1       6.110   3.846  15.408  0.00  0.00    +0.000 OA
BRANCH  10  11
ATOM     11  C   UNL     1       6.680   4.386  14.184  0.00  0.00    +0.000 C 
BRANCH  11  13
ATOM     12  C   UNL     1       5.550   3.064  11.959  0.00  0.00    +0.000 C 
ATOM     13  C   UNL     1       6.071   3.675  12.986  0.00  0.00    +0.000 C 
ENDBRANCH  11  13
ENDBRANCH  10  11
ENDBRANCH   8  10
ENDBRANCH   1   8
TORSDOF 4
ENDMDL
MODEL 9
REMARK VINA RESULT:      -5.4      1.679      2.289
REMARK  Name = 
REMARK  5 active torsions:
REMARK  status: ('A' for Active; 'I' for Inactive)
REMARK    1  A    between atoms: C_2  and  C_3
REMARK    2  A    between atoms: C_3  and  O_4
REMARK    3  A    between atoms: O_4  and  C_5
REMARK    4  A    between atoms: C_5  and  C_7
REMARK    5  A    between atoms: N_11  and  C_12
REMARK                            x       y       z     vdW  Elec       q    Type
REMARK                         _______ _______ _______ _____ _____    ______ ____
ROOT
ATOM      1  C   UNL     1       5.487   5.716  17.305  0.00  0.00    +0.000 C 
ATOM      2  C   UNL     1       4.357   6.438  17.213  0.00  0.00    +0.000 C 
ATOM      3  C   UNL     1       3.279   6.394  18.238  0.00  0.00    +0.000 C 
ATOM      4  C   UNL     1       3.538   5.478  19.442  0.00  0.00    +0.000 C 
ATOM      5  N   UNL     1       4.659   4.542  19.409  0.00  0.00    +0.000 NA
ATOM      6  C   UNL     1       4.230   3.157  19.534  0.00  0.00    +0.000 C 
ATOM      7  C   UNL     1       5.731   4.745  18.416  0.00  0.00    +0.000 C 
ENDROOT
BRANCH   1   8
ATOM      8  C   UNL     1       6.509   5.977  16.242  0.00  0.00    +0.000 C 
ATOM      9  O   UNL     1       7.587   6.505  16.481  0.00  0.00    +0.000 OA
BRANCH   8  10
ATOM     10  O   UNL     1       6.134   5.543  15.002  0.00  0.00    +0.000 OA
BRANCH  10  11
ATOM     11  C   UNL     1       6.067   4.096  14.872  0.00  0.00    +0.000 C 
BRANCH  11  13
ATOM     12  C   UNL     1       6.162   3.392  12.139  0.00  0.00    +0.000 C 
ATOM     13  C   UNL     1       6.118   3.717  13.401  0.00  0.00    +0.000 C 
ENDBRANCH  11  13
ENDBRANCH  10  11
ENDBRANCH   8  10
ENDBRANCH   1   8
TORSDOF 4
ENDMDL
