MODEL 1
REMARK VINA RESULT:      -8.9      0.000      0.000
REMARK  Name = 
REMARK  1 active torsions:
REMARK  status: ('A' for Active; 'I' for Inactive)
REMARK    1  A    between atoms: C_13  and  C_14
REMARK                            x       y       z     vdW  Elec       q    Type
REMARK                         _______ _______ _______ _____ _____    ______ ____
ROOT
ATOM      1  O   UNL     1       5.701   5.474  15.519  0.00  0.00    +0.000 OA
ATOM      2  C   UNL     1       4.937   4.919  16.285  0.00  0.00    +0.000 C 
ATOM      3  N   UNL     1       4.499   3.617  16.282  0.00  0.00    +0.000 N 
ATOM      4  C   UNL     1       3.649   3.360  17.363  0.00  0.00    +0.000 A 
ATOM      5  C   UNL     1       3.016   2.179  17.665  0.00  0.00    +0.000 A 
ATOM      6  C   UNL     1       2.198   2.168  18.797  0.00  0.00    +0.000 A 
ATOM      7  C   UNL     1       2.065   3.316  19.598  0.00  0.00    +0.000 A 
ATOM      8 CL   UNL     1       1.031   3.277  20.976  0.00  0.00    +0.000 Cl
ATOM      9  C   UNL     1       2.726   4.496  19.273  0.00  0.00    +0.000 A 
ATOM     10  C   UNL     1       3.498   4.526  18.135  0.00  0.00    +0.000 A 
ATOM     11  C   UNL     1       4.295   5.596  17.488  0.00  0.00    +0.000 C 
ATOM     12  C   UNL     1       5.076   6.617  18.254  0.00  0.00    +0.000 C 
ATOM     13  C   UNL     1       3.859   7.030  17.408  0.00  0.00    +0.000 C 
ATOM     14  H   UNL     1       4.789   2.947  15.581  0.00  0.00    +0.000 HD
ENDROOT
BRANCH  13  15
ATOM     15  C   UNL     1       2.736   7.705  18.173  0.00  0.00    +0.000 A 
ATOM     16  C   UNL     1       2.173   8.806  17.545  0.00  0.00    +0.000 A 
ATOM     17  C   UNL     1       1.030   9.348  18.069  0.00  0.00    +0.000 A 
ATOM     18  C   UNL     1       1.057   9.389  19.439  0.00  0.00    +0.000 A 
ATOM     19  C   UNL     1       0.719  10.589  20.072  0.00  0.00    +0.000 A 
ATOM     20  C   UNL     1       0.647  10.621  21.453  0.00  0.00    +0.000 A 
ATOM     21  C   UNL     1       0.822   9.437  22.154  0.00  0.00    +0.000 A 
ATOM     22  C   UNL     1       1.260   8.268  21.493  0.00  0.00    +0.000 A 
ATOM     23  C   UNL     1       1.538   8.269  20.116  0.00  0.00    +0.000 A 
ATOM     24  N   UNL     1       2.289   7.345  19.418  0.00  0.00    +0.000 NA
ENDBRANCH  13  15
TORSDOF 1
ENDMDL
MODEL 2
REMARK VINA RESULT:      -8.5      2.530      6.125
REMARK  Name = 
REMARK  1 active torsions:
REMARK  status: ('A' for Active; 'I' for Inactive)
REMARK    1  A    between atoms: C_13  and  C_14
REMARK                            x       y       z     vdW  Elec       q    Type
REMARK                         _______ _______ _______ _____ _____    ______ ____
ROOT
ATOM      1  O   UNL     1       1.892   8.313  20.019  0.00  0.00    +0.000 OA
ATOM      2  C   UNL     1       2.092   7.115  20.056  0.00  0.00    +0.000 C 
ATOM      3  N   UNL     1       1.871   6.229  21.082  0.00  0.00    +0.000 N 
ATOM      4  C   UNL     1       2.200   4.920  20.709  0.00  0.00    +0.000 A 
ATOM      5  C   UNL     1       2.122   3.788  21.482  0.00  0.00    +0.000 A 
ATOM      6  C   UNL     1       2.521   2.587  20.890  0.00  0.00    +0.000 A 
ATOM      7  C   UNL     1       2.952   2.554  19.553  0.00  0.00    +0.000 A 
ATOM      8 CL   UNL     1       3.459   1.060  18.859  0.00  0.00    +0.000 Cl
ATOM      9  C   UNL     1       3.011   3.716  18.791  0.00  0.00    +0.000 A 
ATOM     10  C   UNL     1       2.661   4.907  19.380  0.00  0.00    +0.000 A 
ATOM     11  C   UNL     1       2.637   6.306  18.886  0.00  0.00    +0.000 C 
ATOM     12  C   UNL     1       2.240   6.679  17.493  0.00  0.00    +0.000 C 
ATOM     13  C   UNL     1       3.684   6.890  17.983  0.00  0.00    +0.000 C 
ATOM     14  H   UNL     1       1.500   6.516  21.978  0.00  0.00    +0.000 HD
ENDROOT
BRANCH  13  15
ATOM     15  C   UNL     1       4.751   6.153  17.196  0.00  0.00    +0.000 A 
ATOM     16  C   UNL     1       6.011   6.730  17.227  0.00  0.00    +0.000 A 
ATOM     17  C   UNL     1       7.068   6.028  16.713  0.00  0.00    +0.000 A 
ATOM     18  C   UNL     1       6.740   5.369  15.557  0.00  0.00    +0.000 A 
ATOM     19  C   UNL     1       7.588   5.503  14.453  0.00  0.00    +0.000 A 
ATOM     20  C   UNL     1       7.324   4.769  13.312  0.00  0.00    +0.000 A 
ATOM     21  C   UNL     1       6.281   3.855  13.337  0.00  0.00    +0.000 A 
ATOM     22  C   UNL     1       5.385   3.818  14.428  0.00  0.00    +0.000 A 
ATOM     23  C   UNL     1       5.516   4.701  15.512  0.00  0.00    +0.000 A 
ATOM     24  N   UNL     1       4.551   5.023  16.445  0.00  0.00    +0.000 NA
ENDBRANCH  13  15
TORSDOF 1
ENDMDL
MODEL 3
REMARK VINA RESULT:      -8.2      2.582      3.848
REMARK  Name = 
REMARK  1 active torsions:
REMARK  status: ('A' for Active; 'I' for Inactive)
REMARK    1  A    between atoms: C_13  and  C_14
REMARK                            x       y       z     vdW  Elec       q    Type
REMARK                         _______ _______ _______ _____ _____    ______ ____
ROOT
ATOM      1  O   UNL     1       3.223   2.219  19.167  0.00  0.00    +0.000 OA
ATOM      2  C   UNL     1       3.992   3.126  18.915  0.00  0.00    +0.000 C 
ATOM      3  N   UNL     1       5.364   3.111  18.853  0.00  0.00    +0.000 N 
ATOM      4  C   UNL     1       5.875   4.362  18.491  0.00  0.00    +0.000 A 
ATOM      5  C   UNL     1       7.194   4.715  18.349  0.00  0.00    +0.000 A 
ATOM      6  C   UNL     1       7.462   6.038  17.990  0.00  0.00    +0.000 A 
ATOM      7  C   UNL     1       6.414   6.946  17.757  0.00  0.00    +0.000 A 
ATOM      8 CL   UNL     1       6.779   8.577  17.337  0.00  0.00    +0.000 Cl
ATOM      9  C   UNL     1       5.087   6.557  17.899  0.00  0.00    +0.000 A 
ATOM     10  C   UNL     1       4.817   5.268  18.295  0.00  0.00    +0.000 A 
ATOM     11  C   UNL     1       3.552   4.543  18.568  0.00  0.00    +0.000 C 
ATOM     12  C   UNL     1       2.300   4.745  17.775  0.00  0.00    +0.000 C 
ATOM     13  C   UNL     1       2.368   5.159  19.256  0.00  0.00    +0.000 C 
ATOM     14  H   UNL     1       5.907   2.277  19.036  0.00  0.00    +0.000 HD
ENDROOT
BRANCH  13  15
ATOM     15  C   UNL     1       2.114   6.628  19.532  0.00  0.00    +0.000 A 
ATOM     16  C   UNL     1       1.661   6.919  20.810  0.00  0.00    +0.000 A 
ATOM     17  C   UNL     1       1.598   8.229  21.203  0.00  0.00    +0.000 A 
ATOM     18  C   UNL     1       1.138   9.048  20.204  0.00  0.00    +0.000 A 
ATOM     19  C   UNL     1       0.116   9.952  20.508  0.00  0.00    +0.000 A 
ATOM     20  C   UNL     1      -0.292  10.851  19.539  0.00  0.00    +0.000 A 
ATOM     21  C   UNL     1       0.391  10.884  18.334  0.00  0.00    +0.000 A 
ATOM     22  C   UNL     1       1.348   9.893  18.023  0.00  0.00    +0.000 A 
ATOM     23  C   UNL     1       1.631   8.846  18.916  0.00  0.00    +0.000 A 
ATOM     24  N   UNL     1       2.248   7.646  18.623  0.00  0.00    +0.000 NA
ENDBRANCH  13  15
TORSDOF 1
ENDMDL
MODEL 4
REMARK VINA RESULT:      -7.8      2.573      3.819
REMARK  Name = 
REMARK  1 active torsions:
REMARK  status: ('A' for Active; 'I' for Inactive)
REMARK    1  A    between atoms: C_13  and  C_14
REMARK                            x       y       z     vdW  Elec       q    Type
REMARK                         _______ _______ _______ _____ _____    ______ ____
ROOT
ATOM      1  O   UNL     1       3.161   2.342  21.224  0.00  0.00    +0.000 OA
ATOM      2  C   UNL     1       3.612   3.017  20.319  0.00  0.00    +0.000 C 
ATOM      3  N   UNL     1       4.780   2.855  19.614  0.00  0.00    +0.000 N 
ATOM      4  C   UNL     1       4.917   3.831  18.620  0.00  0.00    +0.000 A 
ATOM      5  C   UNL     1       5.961   3.986  17.741  0.00  0.00    +0.000 A 
ATOM      6  C   UNL     1       5.881   5.051  16.841  0.00  0.00    +0.000 A 
ATOM      7  C   UNL     1       4.760   5.898  16.830  0.00  0.00    +0.000 A 
ATOM      8 CL   UNL     1       4.701   7.217  15.722  0.00  0.00    +0.000 Cl
ATOM      9  C   UNL     1       3.712   5.712  17.726  0.00  0.00    +0.000 A 
ATOM     10  C   UNL     1       3.805   4.692  18.643  0.00  0.00    +0.000 A 
ATOM     11  C   UNL     1       2.912   4.238  19.737  0.00  0.00    +0.000 C 
ATOM     12  C   UNL     1       1.419   4.244  19.636  0.00  0.00    +0.000 C 
ATOM     13  C   UNL     1       2.144   5.169  20.629  0.00  0.00    +0.000 C 
ATOM     14  H   UNL     1       5.429   2.104  19.803  0.00  0.00    +0.000 HD
ENDROOT
BRANCH  13  15
ATOM     15  C   UNL     1       1.898   6.653  20.433  0.00  0.00    +0.000 A 
ATOM     16  C   UNL     1       1.160   7.266  21.435  0.00  0.00    +0.000 A 
ATOM     17  C   UNL     1       1.063   8.631  21.438  0.00  0.00    +0.000 A 
ATOM     18  C   UNL     1       0.899   9.142  20.176  0.00  0.00    +0.000 A 
ATOM     19  C   UNL     1      -0.123  10.072  19.965  0.00  0.00    +0.000 A 
ATOM     20  C   UNL     1      -0.240  10.669  18.723  0.00  0.00    +0.000 A 
ATOM     21  C   UNL     1       0.718  10.392  17.760  0.00  0.00    +0.000 A 
ATOM     22  C   UNL     1       1.675   9.375  17.971  0.00  0.00    +0.000 A 
ATOM     23  C   UNL     1       1.683   8.613  19.151  0.00  0.00    +0.000 A 
ATOM     24  N   UNL     1       2.297   7.392  19.349  0.00  0.00    +0.000 NA
ENDBRANCH  13  15
TORSDOF 1
ENDMDL
MODEL 5
REMARK VINA RESULT:      -7.6      4.102      7.899
REMARK  Name = 
REMARK  1 active torsions:
REMARK  status: ('A' for Active; 'I' for Inactive)
REMARK    1  A    between atoms: C_13  and  C_14
REMARK                            x       y       z     vdW  Elec       q    Type
REMARK                         _______ _______ _______ _____ _____    ______ ____
ROOT
ATOM      1  O   UNL     1      -0.462  12.878  22.993  0.00  0.00    +0.000 OA
ATOM      2  C   UNL     1      -0.969  12.499  21.956  0.00  0.00    +0.000 C 
ATOM      3  N   UNL     1      -2.238  12.722  21.478  0.00  0.00    +0.000 N 
ATOM      4  C   UNL     1      -2.419  12.141  20.217  0.00  0.00    +0.000 A 
ATOM      5  C   UNL     1      -3.559  12.148  19.451  0.00  0.00    +0.000 A 
ATOM      6  C   UNL     1      -3.503  11.485  18.224  0.00  0.00    +0.000 A 
ATOM      7  C   UNL     1      -2.316  10.868  17.794  0.00  0.00    +0.000 A 
ATOM      8 CL   UNL     1      -2.286  10.037  16.284  0.00  0.00    +0.000 Cl
ATOM      9  C   UNL     1      -1.173  10.885  18.587  0.00  0.00    +0.000 A 
ATOM     10  C   UNL     1      -1.234  11.499  19.816  0.00  0.00    +0.000 A 
ATOM     11  C   UNL     1      -0.241  11.672  20.904  0.00  0.00    +0.000 C 
ATOM     12  C   UNL     1       1.214  11.920  20.659  0.00  0.00    +0.000 C 
ATOM     13  C   UNL     1       0.739  10.613  21.317  0.00  0.00    +0.000 C 
ATOM     14  H   UNL     1      -2.925  13.257  21.990  0.00  0.00    +0.000 HD
ENDROOT
BRANCH  13  15
ATOM     15  C   UNL     1       1.103   9.342  20.574  0.00  0.00    +0.000 A 
ATOM     16  C   UNL     1       1.095   8.187  21.341  0.00  0.00    +0.000 A 
ATOM     17  C   UNL     1       1.216   6.978  20.710  0.00  0.00    +0.000 A 
ATOM     18  C   UNL     1       2.134   7.014  19.692  0.00  0.00    +0.000 A 
ATOM     19  C   UNL     1       3.102   6.007  19.638  0.00  0.00    +0.000 A 
ATOM     20  C   UNL     1       3.974   5.974  18.564  0.00  0.00    +0.000 A 
ATOM     21  C   UNL     1       3.795   6.885  17.535  0.00  0.00    +0.000 A 
ATOM     22  C   UNL     1       2.875   7.949  17.669  0.00  0.00    +0.000 A 
ATOM     23  C   UNL     1       2.122   8.120  18.843  0.00  0.00    +0.000 A 
ATOM     24  N   UNL     1       1.475   9.267  19.256  0.00  0.00    +0.000 NA
ENDBRANCH  13  15
TORSDOF 1
ENDMDL
MODEL 6
REMARK VINA RESULT:      -7.3      5.995      8.483
REMARK  Name = 
REMARK  1 active torsions:
REMARK  status: ('A' for Active; 'I' for Inactive)
REMARK    1  A    between atoms: C_13  and  C_14
REMARK                            x       y       z     vdW  Elec       q    Type
REMARK                         _______ _______ _______ _____ _____    ______ ____
ROOT
ATOM      1  O   UNL     1       1.161   9.272  18.125  0.00  0.00    +0.000 OA
ATOM      2  C   UNL     1       1.254  10.475  18.275  0.00  0.00    +0.000 C 
ATOM      3  N   UNL     1       2.322  11.301  18.024  0.00  0.00    +0.000 N 
ATOM      4  C   UNL     1       2.010  12.638  18.296  0.00  0.00    +0.000 A 
ATOM      5  C   UNL     1       2.836  13.729  18.176  0.00  0.00    +0.000 A 
ATOM      6  C   UNL     1       2.301  14.972  18.521  0.00  0.00    +0.000 A 
ATOM      7  C   UNL     1       0.965  15.086  18.942  0.00  0.00    +0.000 A 
ATOM      8 CL   UNL     1       0.341  16.631  19.383  0.00  0.00    +0.000 Cl
ATOM      9  C   UNL     1       0.148  13.965  19.045  0.00  0.00    +0.000 A 
ATOM     10  C   UNL     1       0.682  12.733  18.748  0.00  0.00    +0.000 A 
ATOM     11  C   UNL     1       0.121  11.360  18.779  0.00  0.00    +0.000 C 
ATOM     12  C   UNL     1      -1.286  11.037  18.390  0.00  0.00    +0.000 C 
ATOM     13  C   UNL     1      -0.813  10.863  19.844  0.00  0.00    +0.000 C 
ATOM     14  H   UNL     1       3.204  10.957  17.670  0.00  0.00    +0.000 HD
ENDROOT
BRANCH  13  15
ATOM     15  C   UNL     1      -1.568  11.681  20.875  0.00  0.00    +0.000 A 
ATOM     16  C   UNL     1      -1.051  11.632  22.160  0.00  0.00    +0.000 A 
ATOM     17  C   UNL     1      -1.548  12.492  23.102  0.00  0.00    +0.000 A 
ATOM     18  C   UNL     1      -2.909  12.631  23.009  0.00  0.00    +0.000 A 
ATOM     19  C   UNL     1      -3.669  12.505  24.176  0.00  0.00    +0.000 A 
ATOM     20  C   UNL     1      -5.031  12.739  24.117  0.00  0.00    +0.000 A 
ATOM     21  C   UNL     1      -5.578  13.180  22.921  0.00  0.00    +0.000 A 
ATOM     22  C   UNL     1      -4.803  13.199  21.740  0.00  0.00    +0.000 A 
ATOM     23  C   UNL     1      -3.465  12.769  21.738  0.00  0.00    +0.000 A 
ATOM     24  N   UNL     1      -2.713  12.399  20.641  0.00  0.00    +0.000 NA
ENDBRANCH  13  15
TORSDOF 1
ENDMDL
MODEL 7
REMARK VINA RESULT:      -7.2      7.501     12.010
REMARK  Name = 
REMARK  1 active torsions:
REMARK  status: ('A' for Active; 'I' for Inactive)
REMARK    1  A    between atoms: C_13  and  C_14
REMARK                            x       y       z     vdW  Elec       q    Type
REMARK                         _______ _______ _______ _____ _____    ______ ____
ROOT
ATOM      1  O   UNL     1      -7.024  13.845  23.425  0.00  0.00    +0.000 OA
ATOM      2  C   UNL     1      -6.042  14.445  23.819  0.00  0.00    +0.000 C 
ATOM      3  N   UNL     1      -5.906  15.776  24.131  0.00  0.00    +0.000 N 
ATOM      4  C   UNL     1      -4.615  16.065  24.588  0.00  0.00    +0.000 A 
ATOM      5  C   UNL     1      -4.119  17.287  24.971  0.00  0.00    +0.000 A 
ATOM      6  C   UNL     1      -2.785  17.330  25.381  0.00  0.00    +0.000 A 
ATOM      7  C   UNL     1      -2.007  16.160  25.421  0.00  0.00    +0.000 A 
ATOM      8 CL   UNL     1      -0.357  16.252  25.910  0.00  0.00    +0.000 Cl
ATOM      9  C   UNL     1      -2.539  14.934  25.036  0.00  0.00    +0.000 A 
ATOM     10  C   UNL     1      -3.839  14.892  24.591  0.00  0.00    +0.000 A 
ATOM     11  C   UNL     1      -4.694  13.789  24.086  0.00  0.00    +0.000 C 
ATOM     12  C   UNL     1      -4.654  12.399  24.636  0.00  0.00    +0.000 C 
ATOM     13  C   UNL     1      -4.197  12.688  23.196  0.00  0.00    +0.000 C 
ATOM     14  H   UNL     1      -6.668  16.435  24.047  0.00  0.00    +0.000 HD
ENDROOT
BRANCH  13  15
ATOM     15  C   UNL     1      -2.758  12.320  22.885  0.00  0.00    +0.000 A 
ATOM     16  C   UNL     1      -2.171  13.048  21.861  0.00  0.00    +0.000 A 
ATOM     17  C   UNL     1      -0.825  12.919  21.651  0.00  0.00    +0.000 A 
ATOM     18  C   UNL     1      -0.401  11.622  21.783  0.00  0.00    +0.000 A 
ATOM     19  C   UNL     1       0.407  11.084  20.777  0.00  0.00    +0.000 A 
ATOM     20  C   UNL     1       0.922   9.811  20.940  0.00  0.00    +0.000 A 
ATOM     21  C   UNL     1       0.694   9.151  22.138  0.00  0.00    +0.000 A 
ATOM     22  C   UNL     1      -0.208   9.679  23.089  0.00  0.00    +0.000 A 
ATOM     23  C   UNL     1      -0.902  10.878  22.850  0.00  0.00    +0.000 A 
ATOM     24  N   UNL     1      -2.041  11.321  23.491  0.00  0.00    +0.000 NA
ENDBRANCH  13  15
TORSDOF 1
ENDMDL
MODEL 8
REMARK VINA RESULT:      -7.1      2.443      3.756
REMARK  Name = 
REMARK  1 active torsions:
REMARK  status: ('A' for Active; 'I' for Inactive)
REMARK    1  A    between atoms: C_13  and  C_14
REMARK                            x       y       z     vdW  Elec       q    Type
REMARK                         _______ _______ _______ _____ _____    ______ ____
ROOT
ATOM      1  O   UNL     1       2.434   1.369  19.206  0.00  0.00    +0.000 OA
ATOM      2  C   UNL     1       3.073   2.164  18.544  0.00  0.00    +0.000 C 
ATOM      3  N   UNL     1       4.254   1.980  17.867  0.00  0.00    +0.000 N 
ATOM      4  C   UNL     1       4.643   3.142  17.191  0.00  0.00    +0.000 A 
ATOM      5  C   UNL     1       5.772   3.326  16.430  0.00  0.00    +0.000 A 
ATOM      6  C   UNL     1       5.954   4.588  15.861  0.00  0.00    +0.000 A 
ATOM      7  C   UNL     1       4.999   5.604  16.043  0.00  0.00    +0.000 A 
ATOM      8 CL   UNL     1       5.265   7.157  15.346  0.00  0.00    +0.000 Cl
ATOM      9  C   UNL     1       3.860   5.385  16.811  0.00  0.00    +0.000 A 
ATOM     10  C   UNL     1       3.696   4.159  17.410  0.00  0.00    +0.000 A 
ATOM     11  C   UNL     1       2.645   3.605  18.299  0.00  0.00    +0.000 C 
ATOM     12  C   UNL     1       1.190   3.920  18.147  0.00  0.00    +0.000 C 
ATOM     13  C   UNL     1       1.972   4.392  19.386  0.00  0.00    +0.000 C 
ATOM     14  H   UNL     1       4.746   1.097  17.863  0.00  0.00    +0.000 HD
ENDROOT
BRANCH  13  15
ATOM     15  C   UNL     1       2.000   5.893  19.602  0.00  0.00    +0.000 A 
ATOM     16  C   UNL     1       1.461   6.326  20.804  0.00  0.00    +0.000 A 
ATOM     17  C   UNL     1       1.627   7.636  21.164  0.00  0.00    +0.000 A 
ATOM     18  C   UNL     1       1.480   8.489  20.101  0.00  0.00    +0.000 A 
ATOM     19  C   UNL     1       0.642   9.598  20.252  0.00  0.00    +0.000 A 
ATOM     20  C   UNL     1       0.559  10.519  19.223  0.00  0.00    +0.000 A 
ATOM     21  C   UNL     1       1.381  10.357  18.119  0.00  0.00    +0.000 A 
ATOM     22  C   UNL     1       2.138   9.176  17.953  0.00  0.00    +0.000 A 
ATOM     23  C   UNL     1       2.079   8.133  18.893  0.00  0.00    +0.000 A 
ATOM     24  N   UNL     1       2.461   6.820  18.703  0.00  0.00    +0.000 NA
ENDBRANCH  13  15
TORSDOF 1
ENDMDL
MODEL 9
REMARK VINA RESULT:      -7.1      8.962     10.557
REMARK  Name = 
REMARK  1 active torsions:
REMARK  status: ('A' for Active; 'I' for Inactive)
REMARK    1  A    between atoms: C_13  and  C_14
REMARK                            x       y       z     vdW  Elec       q    Type
REMARK                         _______ _______ _______ _____ _____    ______ ____
ROOT
ATOM      1  O   UNL     1      12.333  11.289  19.049  0.00  0.00    +0.000 OA
ATOM      2  C   UNL     1      11.556  12.212  18.898  0.00  0.00    +0.000 C 
ATOM      3  N   UNL     1      11.666  13.315  18.086  0.00  0.00    +0.000 N 
ATOM      4  C   UNL     1      10.531  14.130  18.173  0.00  0.00    +0.000 A 
ATOM      5  C   UNL     1      10.302  15.315  17.519  0.00  0.00    +0.000 A 
ATOM      6  C   UNL     1       9.091  15.960  17.778  0.00  0.00    +0.000 A 
ATOM      7  C   UNL     1       8.147  15.391  18.650  0.00  0.00    +0.000 A 
ATOM      8 CL   UNL     1       6.671  16.224  18.966  0.00  0.00    +0.000 Cl
ATOM      9  C   UNL     1       8.402  14.184  19.292  0.00  0.00    +0.000 A 
ATOM     10  C   UNL     1       9.610  13.566  19.075  0.00  0.00    +0.000 A 
ATOM     11  C   UNL     1      10.212  12.318  19.606  0.00  0.00    +0.000 C 
ATOM     12  C   UNL     1       9.426  11.073  19.869  0.00  0.00    +0.000 C 
ATOM     13  C   UNL     1      10.065  11.859  21.027  0.00  0.00    +0.000 C 
ATOM     14  H   UNL     1      12.472  13.480  17.498  0.00  0.00    +0.000 HD
ENDROOT
BRANCH  13  15
ATOM     15  C   UNL     1       9.096  12.373  22.075  0.00  0.00    +0.000 A 
ATOM     16  C   UNL     1       9.394  13.626  22.589  0.00  0.00    +0.000 A 
ATOM     17  C   UNL     1       8.469  14.245  23.386  0.00  0.00    +0.000 A 
ATOM     18  C   UNL     1       7.863  13.372  24.252  0.00  0.00    +0.000 A 
ATOM     19  C   UNL     1       7.784  13.725  25.603  0.00  0.00    +0.000 A 
ATOM     20  C   UNL     1       7.091  12.901  26.471  0.00  0.00    +0.000 A 
ATOM     21  C   UNL     1       6.421  11.804  25.953  0.00  0.00    +0.000 A 
ATOM     22  C   UNL     1       6.605  11.420  24.606  0.00  0.00    +0.000 A 
ATOM     23  C   UNL     1       7.470  12.130  23.756  0.00  0.00    +0.000 A 
ATOM     24  N   UNL     1       8.015  11.688  22.567  0.00  0.00    +0.000 NA
ENDBRANCH  13  15
TORSDOF 1
ENDMDL
