MODEL 1
REMARK VINA RESULT:      -6.9      0.000      0.000
REMARK  Name = 
REMARK  14 active torsions:
REMARK  status: ('A' for Active; 'I' for Inactive)
REMARK    1  A    between atoms: C_1  and  C_2
REMARK    2  A    between atoms: C_2  and  C_3
REMARK    3  A    between atoms: C_3  and  C_4
REMARK    4  A    between atoms: C_4  and  C_5
REMARK    5  A    between atoms: C_5  and  C_6
REMARK    6  A    between atoms: C_6  and  C_7
REMARK    7  A    between atoms: C_7  and  C_8
REMARK    8  A    between atoms: C_8  and  C_9
REMARK    9  A    between atoms: C_12  and  N_13
REMARK   10  A    between atoms: C_14  and  C_16
REMARK   11  A    between atoms: C_16  and  N_17
REMARK   12  A    between atoms: C_16  and  C_18
REMARK   13  A    between atoms: C_18  and  C_19
REMARK   14  A    between atoms: C_19  and  O_20
REMARK                            x       y       z     vdW  Elec       q    Type
REMARK                         _______ _______ _______ _____ _____    ______ ____
ROOT
ATOM      1  C   UNL     1       7.538   7.503  17.837  0.00  0.00    +0.000 A 
ATOM      2  C   UNL     1       6.385   7.082  17.174  0.00  0.00    +0.000 A 
ATOM      3  C   UNL     1       5.736   5.918  17.562  0.00  0.00    +0.000 A 
ATOM      4  C   UNL     1       6.227   5.134  18.602  0.00  0.00    +0.000 A 
ATOM      5  C   UNL     1       7.422   5.516  19.228  0.00  0.00    +0.000 A 
ATOM      6  C   UNL     1       8.074   6.696  18.846  0.00  0.00    +0.000 A 
ENDROOT
BRANCH   4   7
ATOM      7  N   UNL     1       5.563   3.979  19.064  0.00  0.00    +0.000 N 
ATOM      8  C   UNL     1       4.302   3.938  19.639  0.00  0.00    +0.000 C 
ATOM      9  O   UNL     1       3.578   4.896  19.895  0.00  0.00    +0.000 OA
ATOM     10  H   UNL     1       6.014   3.070  18.973  0.00  0.00    +0.000 HD
BRANCH   8  11
ATOM     11  C   UNL     1       3.853   2.506  19.991  0.00  0.00    +0.000 C 
BRANCH  11  12
ATOM     12  N   UNL     1       4.962   1.555  19.735  0.00  0.00    +0.000 NA
ATOM     13  H   UNL     1       5.241   1.644  18.756  0.00  0.00    +0.000 HD
ATOM     14  H   UNL     1       4.551   0.610  19.790  0.00  0.00    +0.000 HD
ENDBRANCH  11  12
BRANCH  11  15
ATOM     15  C   UNL     1       2.576   2.184  19.192  0.00  0.00    +0.000 C 
BRANCH  15  16
ATOM     16  C   UNL     1       2.779   2.130  17.687  0.00  0.00    +0.000 C 
BRANCH  16  17
ATOM     17  O   UNL     1       2.085   3.197  17.049  0.00  0.00    +0.000 OA
ATOM     18  H   UNL     1       2.591   4.011  17.227  0.00  0.00    +0.000 HD
ENDBRANCH  16  17
ENDBRANCH  15  16
ENDBRANCH  11  15
ENDBRANCH   8  11
ENDBRANCH   4   7
BRANCH   1  19
ATOM     19  C   UNL     1       8.114   8.861  17.522  0.00  0.00    +0.000 C 
BRANCH  19  20
ATOM     20  C   UNL     1       8.837   9.398  18.760  0.00  0.00    +0.000 C 
BRANCH  20  21
ATOM     21  C   UNL     1       9.217  10.864  18.619  0.00  0.00    +0.000 C 
BRANCH  21  22
ATOM     22  C   UNL     1      10.299  11.214  19.639  0.00  0.00    +0.000 C 
BRANCH  22  23
ATOM     23  C   UNL     1      11.507  11.842  18.957  0.00  0.00    +0.000 C 
BRANCH  23  24
ATOM     24  C   UNL     1      11.289  11.947  17.450  0.00  0.00    +0.000 C 
BRANCH  24  26
ATOM     25  C   UNL     1      10.863  14.396  17.819  0.00  0.00    +0.000 C 
ATOM     26  C   UNL     1      11.571  13.363  16.960  0.00  0.00    +0.000 C 
ENDBRANCH  24  26
ENDBRANCH  23  24
ENDBRANCH  22  23
ENDBRANCH  21  22
ENDBRANCH  20  21
ENDBRANCH  19  20
ENDBRANCH   1  19
TORSDOF 13
ENDMDL
MODEL 2
REMARK VINA RESULT:      -6.7      5.154      7.714
REMARK  Name = 
REMARK  14 active torsions:
REMARK  status: ('A' for Active; 'I' for Inactive)
REMARK    1  A    between atoms: C_1  and  C_2
REMARK    2  A    between atoms: C_2  and  C_3
REMARK    3  A    between atoms: C_3  and  C_4
REMARK    4  A    between atoms: C_4  and  C_5
REMARK    5  A    between atoms: C_5  and  C_6
REMARK    6  A    between atoms: C_6  and  C_7
REMARK    7  A    between atoms: C_7  and  C_8
REMARK    8  A    between atoms: C_8  and  C_9
REMARK    9  A    between atoms: C_12  and  N_13
REMARK   10  A    between atoms: C_14  and  C_16
REMARK   11  A    between atoms: C_16  and  N_17
REMARK   12  A    between atoms: C_16  and  C_18
REMARK   13  A    between atoms: C_18  and  C_19
REMARK   14  A    between atoms: C_19  and  O_20
REMARK                            x       y       z     vdW  Elec       q    Type
REMARK                         _______ _______ _______ _____ _____    ______ ____
ROOT
ATOM      1  C   UNL     1       5.713   5.291  15.542  0.00  0.00    +0.000 A 
ATOM      2  C   UNL     1       5.436   4.057  16.131  0.00  0.00    +0.000 A 
ATOM      3  C   UNL     1       4.591   3.976  17.229  0.00  0.00    +0.000 A 
ATOM      4  C   UNL     1       4.019   5.119  17.782  0.00  0.00    +0.000 A 
ATOM      5  C   UNL     1       4.347   6.367  17.236  0.00  0.00    +0.000 A 
ATOM      6  C   UNL     1       5.190   6.452  16.121  0.00  0.00    +0.000 A 
ENDROOT
BRANCH   4   7
ATOM      7  N   UNL     1       3.109   5.070  18.858  0.00  0.00    +0.000 N 
ATOM      8  C   UNL     1       1.887   4.415  18.864  0.00  0.00    +0.000 C 
ATOM      9  O   UNL     1       1.365   3.821  17.925  0.00  0.00    +0.000 OA
ATOM     10  H   UNL     1       3.342   5.535  19.733  0.00  0.00    +0.000 HD
BRANCH   8  11
ATOM     11  C   UNL     1       1.160   4.523  20.219  0.00  0.00    +0.000 C 
BRANCH  11  12
ATOM     12  N   UNL     1       1.740   5.633  21.014  0.00  0.00    +0.000 NA
ATOM     13  H   UNL     1       1.047   5.929  21.703  0.00  0.00    +0.000 HD
ATOM     14  H   UNL     1       1.813   6.439  20.375  0.00  0.00    +0.000 HD
ENDBRANCH  11  12
BRANCH  11  15
ATOM     15  C   UNL     1       1.242   3.157  20.926  0.00  0.00    +0.000 C 
BRANCH  15  16
ATOM     16  C   UNL     1       2.644   2.759  21.354  0.00  0.00    +0.000 C 
BRANCH  16  17
ATOM     17  O   UNL     1       3.401   2.310  20.235  0.00  0.00    +0.000 OA
ATOM     18  H   UNL     1       3.201   1.364  20.118  0.00  0.00    +0.000 HD
ENDBRANCH  16  17
ENDBRANCH  15  16
ENDBRANCH  11  15
ENDBRANCH   8  11
ENDBRANCH   4   7
BRANCH   1  19
ATOM     19  C   UNL     1       6.478   5.331  14.243  0.00  0.00    +0.000 C 
BRANCH  19  20
ATOM     20  C   UNL     1       6.644   3.904  13.714  0.00  0.00    +0.000 C 
BRANCH  20  21
ATOM     21  C   UNL     1       6.676   3.848  12.195  0.00  0.00    +0.000 C 
BRANCH  21  22
ATOM     22  C   UNL     1       6.590   2.395  11.733  0.00  0.00    +0.000 C 
BRANCH  22  23
ATOM     23  C   UNL     1       5.237   2.106  11.094  0.00  0.00    +0.000 C 
BRANCH  23  24
ATOM     24  C   UNL     1       4.236   3.213  11.414  0.00  0.00    +0.000 C 
BRANCH  24  26
ATOM     25  C   UNL     1       2.976   4.315   9.541  0.00  0.00    +0.000 C 
ATOM     26  C   UNL     1       3.027   3.131  10.489  0.00  0.00    +0.000 C 
ENDBRANCH  24  26
ENDBRANCH  23  24
ENDBRANCH  22  23
ENDBRANCH  21  22
ENDBRANCH  20  21
ENDBRANCH  19  20
ENDBRANCH   1  19
TORSDOF 13
ENDMDL
MODEL 3
REMARK VINA RESULT:      -6.6      5.389      8.407
REMARK  Name = 
REMARK  14 active torsions:
REMARK  status: ('A' for Active; 'I' for Inactive)
REMARK    1  A    between atoms: C_1  and  C_2
REMARK    2  A    between atoms: C_2  and  C_3
REMARK    3  A    between atoms: C_3  and  C_4
REMARK    4  A    between atoms: C_4  and  C_5
REMARK    5  A    between atoms: C_5  and  C_6
REMARK    6  A    between atoms: C_6  and  C_7
REMARK    7  A    between atoms: C_7  and  C_8
REMARK    8  A    between atoms: C_8  and  C_9
REMARK    9  A    between atoms: C_12  and  N_13
REMARK   10  A    between atoms: C_14  and  C_16
REMARK   11  A    between atoms: C_16  and  N_17
REMARK   12  A    between atoms: C_16  and  C_18
REMARK   13  A    between atoms: C_18  and  C_19
REMARK   14  A    between atoms: C_19  and  O_20
REMARK                            x       y       z     vdW  Elec       q    Type
REMARK                         _______ _______ _______ _____ _____    ______ ____
ROOT
ATOM      1  C   UNL     1       3.386   5.967  19.493  0.00  0.00    +0.000 A 
ATOM      2  C   UNL     1       2.958   6.424  18.246  0.00  0.00    +0.000 A 
ATOM      3  C   UNL     1       3.659   6.088  17.096  0.00  0.00    +0.000 A 
ATOM      4  C   UNL     1       4.812   5.310  17.158  0.00  0.00    +0.000 A 
ATOM      5  C   UNL     1       5.284   4.904  18.414  0.00  0.00    +0.000 A 
ATOM      6  C   UNL     1       4.573   5.231  19.576  0.00  0.00    +0.000 A 
ENDROOT
BRANCH   4   7
ATOM      7  N   UNL     1       5.515   4.898  16.007  0.00  0.00    +0.000 N 
ATOM      8  C   UNL     1       6.780   5.322  15.630  0.00  0.00    +0.000 C 
ATOM      9  O   UNL     1       7.475   6.163  16.193  0.00  0.00    +0.000 OA
ATOM     10  H   UNL     1       5.094   4.218  15.378  0.00  0.00    +0.000 HD
BRANCH   8  11
ATOM     11  C   UNL     1       7.276   4.641  14.339  0.00  0.00    +0.000 C 
BRANCH  11  12
ATOM     12  N   UNL     1       8.042   5.612  13.520  0.00  0.00    +0.000 NA
ATOM     13  H   UNL     1       8.641   5.088  12.879  0.00  0.00    +0.000 HD
ATOM     14  H   UNL     1       8.707   6.070  14.160  0.00  0.00    +0.000 HD
ENDBRANCH  11  12
BRANCH  11  15
ATOM     15  C   UNL     1       6.061   4.046  13.603  0.00  0.00    +0.000 C 
BRANCH  15  16
ATOM     16  C   UNL     1       6.398   3.374  12.282  0.00  0.00    +0.000 C 
BRANCH  16  17
ATOM     17  O   UNL     1       5.238   2.783  11.710  0.00  0.00    +0.000 OA
ATOM     18  H   UNL     1       4.484   3.029  12.277  0.00  0.00    +0.000 HD
ENDBRANCH  16  17
ENDBRANCH  15  16
ENDBRANCH  11  15
ENDBRANCH   8  11
ENDBRANCH   4   7
BRANCH   1  19
ATOM     19  C   UNL     1       2.507   6.186  20.699  0.00  0.00    +0.000 C 
BRANCH  19  20
ATOM     20  C   UNL     1       1.216   5.380  20.531  0.00  0.00    +0.000 C 
BRANCH  20  21
ATOM     21  C   UNL     1       1.456   3.880  20.611  0.00  0.00    +0.000 C 
BRANCH  21  22
ATOM     22  C   UNL     1       0.422   3.149  19.756  0.00  0.00    +0.000 C 
BRANCH  22  23
ATOM     23  C   UNL     1       1.091   2.112  18.862  0.00  0.00    +0.000 C 
BRANCH  23  24
ATOM     24  C   UNL     1       2.157   2.758  17.982  0.00  0.00    +0.000 C 
BRANCH  24  26
ATOM     25  C   UNL     1       3.997   1.680  19.311  0.00  0.00    +0.000 C 
ATOM     26  C   UNL     1       3.410   1.890  17.927  0.00  0.00    +0.000 C 
ENDBRANCH  24  26
ENDBRANCH  23  24
ENDBRANCH  22  23
ENDBRANCH  21  22
ENDBRANCH  20  21
ENDBRANCH  19  20
ENDBRANCH   1  19
TORSDOF 13
ENDMDL
MODEL 4
REMARK VINA RESULT:      -6.5      0.983      1.243
REMARK  Name = 
REMARK  14 active torsions:
REMARK  status: ('A' for Active; 'I' for Inactive)
REMARK    1  A    between atoms: C_1  and  C_2
REMARK    2  A    between atoms: C_2  and  C_3
REMARK    3  A    between atoms: C_3  and  C_4
REMARK    4  A    between atoms: C_4  and  C_5
REMARK    5  A    between atoms: C_5  and  C_6
REMARK    6  A    between atoms: C_6  and  C_7
REMARK    7  A    between atoms: C_7  and  C_8
REMARK    8  A    between atoms: C_8  and  C_9
REMARK    9  A    between atoms: C_12  and  N_13
REMARK   10  A    between atoms: C_14  and  C_16
REMARK   11  A    between atoms: C_16  and  N_17
REMARK   12  A    between atoms: C_16  and  C_18
REMARK   13  A    between atoms: C_18  and  C_19
REMARK   14  A    between atoms: C_19  and  O_20
REMARK                            x       y       z     vdW  Elec       q    Type
REMARK                         _______ _______ _______ _____ _____    ______ ____
ROOT
ATOM      1  C   UNL     1       7.569   7.537  17.830  0.00  0.00    +0.000 A 
ATOM      2  C   UNL     1       6.408   7.092  17.195  0.00  0.00    +0.000 A 
ATOM      3  C   UNL     1       5.777   5.931  17.619  0.00  0.00    +0.000 A 
ATOM      4  C   UNL     1       6.293   5.173  18.667  0.00  0.00    +0.000 A 
ATOM      5  C   UNL     1       7.494   5.578  19.263  0.00  0.00    +0.000 A 
ATOM      6  C   UNL     1       8.129   6.756  18.846  0.00  0.00    +0.000 A 
ENDROOT
BRANCH   4   7
ATOM      7  N   UNL     1       5.647   4.022  19.164  0.00  0.00    +0.000 N 
ATOM      8  C   UNL     1       4.386   3.978  19.738  0.00  0.00    +0.000 C 
ATOM      9  O   UNL     1       3.646   4.932  19.965  0.00  0.00    +0.000 OA
ATOM     10  H   UNL     1       6.113   3.119  19.101  0.00  0.00    +0.000 HD
BRANCH   8  11
ATOM     11  C   UNL     1       3.961   2.551  20.135  0.00  0.00    +0.000 C 
BRANCH  11  12
ATOM     12  N   UNL     1       5.124   1.635  20.041  0.00  0.00    +0.000 NA
ATOM     13  H   UNL     1       5.966   2.162  20.279  0.00  0.00    +0.000 HD
ATOM     14  H   UNL     1       5.243   1.420  19.039  0.00  0.00    +0.000 HD
ENDBRANCH  11  12
BRANCH  11  15
ATOM     15  C   UNL     1       2.779   2.128  19.242  0.00  0.00    +0.000 C 
BRANCH  15  16
ATOM     16  C   UNL     1       3.030   2.295  17.753  0.00  0.00    +0.000 C 
BRANCH  16  17
ATOM     17  O   UNL     1       4.255   1.675  17.379  0.00  0.00    +0.000 OA
ATOM     18  H   UNL     1       4.234   0.768  17.733  0.00  0.00    +0.000 HD
ENDBRANCH  16  17
ENDBRANCH  15  16
ENDBRANCH  11  15
ENDBRANCH   8  11
ENDBRANCH   4   7
BRANCH   1  19
ATOM     19  C   UNL     1       8.126   8.893  17.477  0.00  0.00    +0.000 C 
BRANCH  19  20
ATOM     20  C   UNL     1       8.824   9.483  18.706  0.00  0.00    +0.000 C 
BRANCH  20  21
ATOM     21  C   UNL     1       9.137  10.962  18.540  0.00  0.00    +0.000 C 
BRANCH  21  22
ATOM     22  C   UNL     1      10.572  11.236  18.986  0.00  0.00    +0.000 C 
BRANCH  22  23
ATOM     23  C   UNL     1      10.607  11.764  20.414  0.00  0.00    +0.000 C 
BRANCH  23  24
ATOM     24  C   UNL     1      10.277  13.254  20.452  0.00  0.00    +0.000 C 
BRANCH  24  26
ATOM     25  C   UNL     1      12.277  14.501  19.582  0.00  0.00    +0.000 C 
ATOM     26  C   UNL     1      10.892  13.974  19.257  0.00  0.00    +0.000 C 
ENDBRANCH  24  26
ENDBRANCH  23  24
ENDBRANCH  22  23
ENDBRANCH  21  22
ENDBRANCH  20  21
ENDBRANCH  19  20
ENDBRANCH   1  19
TORSDOF 13
ENDMDL
MODEL 5
REMARK VINA RESULT:      -6.5      0.713      1.004
REMARK  Name = 
REMARK  14 active torsions:
REMARK  status: ('A' for Active; 'I' for Inactive)
REMARK    1  A    between atoms: C_1  and  C_2
REMARK    2  A    between atoms: C_2  and  C_3
REMARK    3  A    between atoms: C_3  and  C_4
REMARK    4  A    between atoms: C_4  and  C_5
REMARK    5  A    between atoms: C_5  and  C_6
REMARK    6  A    between atoms: C_6  and  C_7
REMARK    7  A    between atoms: C_7  and  C_8
REMARK    8  A    between atoms: C_8  and  C_9
REMARK    9  A    between atoms: C_12  and  N_13
REMARK   10  A    between atoms: C_14  and  C_16
REMARK   11  A    between atoms: C_16  and  N_17
REMARK   12  A    between atoms: C_16  and  C_18
REMARK   13  A    between atoms: C_18  and  C_19
REMARK   14  A    between atoms: C_19  and  O_20
REMARK                            x       y       z     vdW  Elec       q    Type
REMARK                         _______ _______ _______ _____ _____    ______ ____
ROOT
ATOM      1  C   UNL     1       7.509   7.555  17.857  0.00  0.00    +0.000 A 
ATOM      2  C   UNL     1       6.336   7.157  17.213  0.00  0.00    +0.000 A 
ATOM      3  C   UNL     1       5.696   5.982  17.582  0.00  0.00    +0.000 A 
ATOM      4  C   UNL     1       6.216   5.164  18.582  0.00  0.00    +0.000 A 
ATOM      5  C   UNL     1       7.429   5.524  19.185  0.00  0.00    +0.000 A 
ATOM      6  C   UNL     1       8.072   6.715  18.823  0.00  0.00    +0.000 A 
ENDROOT
BRANCH   4   7
ATOM      7  N   UNL     1       5.563   3.995  19.025  0.00  0.00    +0.000 N 
ATOM      8  C   UNL     1       4.327   3.940  19.653  0.00  0.00    +0.000 C 
ATOM      9  O   UNL     1       3.624   4.891  19.980  0.00  0.00    +0.000 OA
ATOM     10  H   UNL     1       6.001   3.088  18.876  0.00  0.00    +0.000 HD
BRANCH   8  11
ATOM     11  C   UNL     1       3.883   2.497  19.965  0.00  0.00    +0.000 C 
BRANCH  11  12
ATOM     12  N   UNL     1       5.029   1.570  19.800  0.00  0.00    +0.000 NA
ATOM     13  H   UNL     1       5.179   1.422  18.800  0.00  0.00    +0.000 HD
ATOM     14  H   UNL     1       4.709   0.651  20.141  0.00  0.00    +0.000 HD
ENDBRANCH  11  12
BRANCH  11  15
ATOM     15  C   UNL     1       2.683   2.150  19.064  0.00  0.00    +0.000 C 
BRANCH  15  16
ATOM     16  C   UNL     1       2.926   2.385  17.583  0.00  0.00    +0.000 C 
BRANCH  16  17
ATOM     17  O   UNL     1       1.981   3.312  17.060  0.00  0.00    +0.000 OA
ATOM     18  H   UNL     1       1.703   2.974  16.190  0.00  0.00    +0.000 HD
ENDBRANCH  16  17
ENDBRANCH  15  16
ENDBRANCH  11  15
ENDBRANCH   8  11
ENDBRANCH   4   7
BRANCH   1  19
ATOM     19  C   UNL     1       8.078   8.922  17.569  0.00  0.00    +0.000 C 
BRANCH  19  20
ATOM     20  C   UNL     1       8.815   9.429  18.812  0.00  0.00    +0.000 C 
BRANCH  20  21
ATOM     21  C   UNL     1       9.612  10.695  18.537  0.00  0.00    +0.000 C 
BRANCH  21  22
ATOM     22  C   UNL     1       8.729  11.711  17.815  0.00  0.00    +0.000 C 
BRANCH  22  23
ATOM     23  C   UNL     1       9.208  13.133  18.077  0.00  0.00    +0.000 C 
BRANCH  23  24
ATOM     24  C   UNL     1      10.415  13.138  19.011  0.00  0.00    +0.000 C 
BRANCH  24  26
ATOM     25  C   UNL     1      11.362  14.019  16.857  0.00  0.00    +0.000 C 
ATOM     26  C   UNL     1      11.618  13.786  18.334  0.00  0.00    +0.000 C 
ENDBRANCH  24  26
ENDBRANCH  23  24
ENDBRANCH  22  23
ENDBRANCH  21  22
ENDBRANCH  20  21
ENDBRANCH  19  20
ENDBRANCH   1  19
TORSDOF 13
ENDMDL
MODEL 6
REMARK VINA RESULT:      -6.4      4.971      7.276
REMARK  Name = 
REMARK  14 active torsions:
REMARK  status: ('A' for Active; 'I' for Inactive)
REMARK    1  A    between atoms: C_1  and  C_2
REMARK    2  A    between atoms: C_2  and  C_3
REMARK    3  A    between atoms: C_3  and  C_4
REMARK    4  A    between atoms: C_4  and  C_5
REMARK    5  A    between atoms: C_5  and  C_6
REMARK    6  A    between atoms: C_6  and  C_7
REMARK    7  A    between atoms: C_7  and  C_8
REMARK    8  A    between atoms: C_8  and  C_9
REMARK    9  A    between atoms: C_12  and  N_13
REMARK   10  A    between atoms: C_14  and  C_16
REMARK   11  A    between atoms: C_16  and  N_17
REMARK   12  A    between atoms: C_16  and  C_18
REMARK   13  A    between atoms: C_18  and  C_19
REMARK   14  A    between atoms: C_19  and  O_20
REMARK                            x       y       z     vdW  Elec       q    Type
REMARK                         _______ _______ _______ _____ _____    ______ ____
ROOT
ATOM      1  C   UNL     1       6.365   4.517  16.597  0.00  0.00    +0.000 A 
ATOM      2  C   UNL     1       5.197   3.851  16.221  0.00  0.00    +0.000 A 
ATOM      3  C   UNL     1       4.253   3.496  17.174  0.00  0.00    +0.000 A 
ATOM      4  C   UNL     1       4.455   3.773  18.524  0.00  0.00    +0.000 A 
ATOM      5  C   UNL     1       5.655   4.381  18.915  0.00  0.00    +0.000 A 
ATOM      6  C   UNL     1       6.606   4.752  17.954  0.00  0.00    +0.000 A 
ENDROOT
BRANCH   4   7
ATOM      7  N   UNL     1       3.492   3.481  19.512  0.00  0.00    +0.000 N 
ATOM      8  C   UNL     1       2.546   4.362  20.014  0.00  0.00    +0.000 C 
ATOM      9  O   UNL     1       2.421   5.550  19.730  0.00  0.00    +0.000 OA
ATOM     10  H   UNL     1       3.448   2.545  19.909  0.00  0.00    +0.000 HD
BRANCH   8  11
ATOM     11  C   UNL     1       1.616   3.708  21.054  0.00  0.00    +0.000 C 
BRANCH  11  12
ATOM     12  N   UNL     1       2.388   3.363  22.273  0.00  0.00    +0.000 NA
ATOM     13  H   UNL     1       1.772   3.463  23.081  0.00  0.00    +0.000 HD
ATOM     14  H   UNL     1       3.083   4.115  22.398  0.00  0.00    +0.000 HD
ENDBRANCH  11  12
BRANCH  11  15
ATOM     15  C   UNL     1       0.932   2.492  20.401  0.00  0.00    +0.000 C 
BRANCH  15  16
ATOM     16  C   UNL     1       0.570   2.690  18.939  0.00  0.00    +0.000 C 
BRANCH  16  17
ATOM     17  O   UNL     1       1.323   1.810  18.113  0.00  0.00    +0.000 OA
ATOM     18  H   UNL     1       1.935   1.326  18.697  0.00  0.00    +0.000 HD
ENDBRANCH  16  17
ENDBRANCH  15  16
ENDBRANCH  11  15
ENDBRANCH   8  11
ENDBRANCH   4   7
BRANCH   1  19
ATOM     19  C   UNL     1       7.280   5.058  15.527  0.00  0.00    +0.000 C 
BRANCH  19  20
ATOM     20  C   UNL     1       6.583   4.947  14.168  0.00  0.00    +0.000 C 
BRANCH  20  21
ATOM     21  C   UNL     1       7.568   4.955  13.009  0.00  0.00    +0.000 C 
BRANCH  21  22
ATOM     22  C   UNL     1       7.103   3.976  11.933  0.00  0.00    +0.000 C 
BRANCH  22  23
ATOM     23  C   UNL     1       6.052   3.021  12.484  0.00  0.00    +0.000 C 
BRANCH  23  24
ATOM     24  C   UNL     1       5.500   2.122  11.380  0.00  0.00    +0.000 C 
BRANCH  24  26
ATOM     25  C   UNL     1       6.068  -0.323  11.270  0.00  0.00    +0.000 C 
ATOM     26  C   UNL     1       6.536   1.087  10.957  0.00  0.00    +0.000 C 
ENDBRANCH  24  26
ENDBRANCH  23  24
ENDBRANCH  22  23
ENDBRANCH  21  22
ENDBRANCH  20  21
ENDBRANCH  19  20
ENDBRANCH   1  19
TORSDOF 13
ENDMDL
MODEL 7
REMARK VINA RESULT:      -6.4      1.265      1.575
REMARK  Name = 
REMARK  14 active torsions:
REMARK  status: ('A' for Active; 'I' for Inactive)
REMARK    1  A    between atoms: C_1  and  C_2
REMARK    2  A    between atoms: C_2  and  C_3
REMARK    3  A    between atoms: C_3  and  C_4
REMARK    4  A    between atoms: C_4  and  C_5
REMARK    5  A    between atoms: C_5  and  C_6
REMARK    6  A    between atoms: C_6  and  C_7
REMARK    7  A    between atoms: C_7  and  C_8
REMARK    8  A    between atoms: C_8  and  C_9
REMARK    9  A    between atoms: C_12  and  N_13
REMARK   10  A    between atoms: C_14  and  C_16
REMARK   11  A    between atoms: C_16  and  N_17
REMARK   12  A    between atoms: C_16  and  C_18
REMARK   13  A    between atoms: C_18  and  C_19
REMARK   14  A    between atoms: C_19  and  O_20
REMARK                            x       y       z     vdW  Elec       q    Type
REMARK                         _______ _______ _______ _____ _____    ______ ____
ROOT
ATOM      1  C   UNL     1       7.406   6.929  17.580  0.00  0.00    +0.000 A 
ATOM      2  C   UNL     1       6.639   6.258  16.626  0.00  0.00    +0.000 A 
ATOM      3  C   UNL     1       5.951   5.100  16.964  0.00  0.00    +0.000 A 
ATOM      4  C   UNL     1       6.026   4.570  18.249  0.00  0.00    +0.000 A 
ATOM      5  C   UNL     1       6.848   5.201  19.192  0.00  0.00    +0.000 A 
ATOM      6  C   UNL     1       7.534   6.376  18.858  0.00  0.00    +0.000 A 
ENDROOT
BRANCH   4   7
ATOM      7  N   UNL     1       5.295   3.431  18.646  0.00  0.00    +0.000 N 
ATOM      8  C   UNL     1       3.952   3.403  18.989  0.00  0.00    +0.000 C 
ATOM      9  O   UNL     1       3.190   4.363  19.062  0.00  0.00    +0.000 OA
ATOM     10  H   UNL     1       5.759   2.525  18.684  0.00  0.00    +0.000 HD
BRANCH   8  11
ATOM     11  C   UNL     1       3.454   1.985  19.331  0.00  0.00    +0.000 C 
BRANCH  11  12
ATOM     12  N   UNL     1       4.032   1.005  18.379  0.00  0.00    +0.000 NA
ATOM     13  H   UNL     1       5.032   0.923  18.573  0.00  0.00    +0.000 HD
ATOM     14  H   UNL     1       3.997   1.450  17.449  0.00  0.00    +0.000 HD
ENDBRANCH  11  12
BRANCH  11  15
ATOM     15  C   UNL     1       1.913   1.996  19.333  0.00  0.00    +0.000 C 
BRANCH  15  16
ATOM     16  C   UNL     1       1.295   2.547  20.608  0.00  0.00    +0.000 C 
BRANCH  16  17
ATOM     17  O   UNL     1       0.561   3.735  20.336  0.00  0.00    +0.000 OA
ATOM     18  H   UNL     1       0.811   4.385  21.017  0.00  0.00    +0.000 HD
ENDBRANCH  16  17
ENDBRANCH  15  16
ENDBRANCH  11  15
ENDBRANCH   8  11
ENDBRANCH   4   7
BRANCH   1  19
ATOM     19  C   UNL     1       7.986   8.279  17.240  0.00  0.00    +0.000 C 
BRANCH  19  20
ATOM     20  C   UNL     1       8.409   8.982  18.532  0.00  0.00    +0.000 C 
BRANCH  20  21
ATOM     21  C   UNL     1       8.959  10.377  18.280  0.00  0.00    +0.000 C 
BRANCH  21  22
ATOM     22  C   UNL     1       9.963  10.739  19.374  0.00  0.00    +0.000 C 
BRANCH  22  23
ATOM     23  C   UNL     1      11.155  11.486  18.792  0.00  0.00    +0.000 C 
BRANCH  23  24
ATOM     24  C   UNL     1      11.954  12.180  19.893  0.00  0.00    +0.000 C 
BRANCH  24  26
ATOM     25  C   UNL     1      12.322  14.282  18.567  0.00  0.00    +0.000 C 
ATOM     26  C   UNL     1      11.747  13.690  19.840  0.00  0.00    +0.000 C 
ENDBRANCH  24  26
ENDBRANCH  23  24
ENDBRANCH  22  23
ENDBRANCH  21  22
ENDBRANCH  20  21
ENDBRANCH  19  20
ENDBRANCH   1  19
TORSDOF 13
ENDMDL
MODEL 8
REMARK VINA RESULT:      -6.3      5.469      8.364
REMARK  Name = 
REMARK  14 active torsions:
REMARK  status: ('A' for Active; 'I' for Inactive)
REMARK    1  A    between atoms: C_1  and  C_2
REMARK    2  A    between atoms: C_2  and  C_3
REMARK    3  A    between atoms: C_3  and  C_4
REMARK    4  A    between atoms: C_4  and  C_5
REMARK    5  A    between atoms: C_5  and  C_6
REMARK    6  A    between atoms: C_6  and  C_7
REMARK    7  A    between atoms: C_7  and  C_8
REMARK    8  A    between atoms: C_8  and  C_9
REMARK    9  A    between atoms: C_12  and  N_13
REMARK   10  A    between atoms: C_14  and  C_16
REMARK   11  A    between atoms: C_16  and  N_17
REMARK   12  A    between atoms: C_16  and  C_18
REMARK   13  A    between atoms: C_18  and  C_19
REMARK   14  A    between atoms: C_19  and  O_20
REMARK                            x       y       z     vdW  Elec       q    Type
REMARK                         _______ _______ _______ _____ _____    ______ ____
ROOT
ATOM      1  C   UNL     1       5.140   4.531  15.904  0.00  0.00    +0.000 A 
ATOM      2  C   UNL     1       5.272   5.919  15.939  0.00  0.00    +0.000 A 
ATOM      3  C   UNL     1       4.649   6.660  16.935  0.00  0.00    +0.000 A 
ATOM      4  C   UNL     1       3.864   6.042  17.905  0.00  0.00    +0.000 A 
ATOM      5  C   UNL     1       3.674   4.656  17.835  0.00  0.00    +0.000 A 
ATOM      6  C   UNL     1       4.310   3.904  16.839  0.00  0.00    +0.000 A 
ENDROOT
BRANCH   4   7
ATOM      7  N   UNL     1       3.267   6.754  18.966  0.00  0.00    +0.000 N 
ATOM      8  C   UNL     1       2.326   7.765  18.842  0.00  0.00    +0.000 C 
ATOM      9  O   UNL     1       1.899   8.250  17.799  0.00  0.00    +0.000 OA
ATOM     10  H   UNL     1       3.513   6.523  19.926  0.00  0.00    +0.000 HD
BRANCH   8  11
ATOM     11  C   UNL     1       1.844   8.300  20.205  0.00  0.00    +0.000 C 
BRANCH  11  12
ATOM     12  N   UNL     1       1.340   7.179  21.036  0.00  0.00    +0.000 NA
ATOM     13  H   UNL     1       0.395   7.412  21.347  0.00  0.00    +0.000 HD
ATOM     14  H   UNL     1       1.896   7.190  21.904  0.00  0.00    +0.000 HD
ENDBRANCH  11  12
BRANCH  11  15
ATOM     15  C   UNL     1       0.791   9.395  19.954  0.00  0.00    +0.000 C 
BRANCH  15  16
ATOM     16  C   UNL     1       0.029   9.825  21.197  0.00  0.00    +0.000 C 
BRANCH  16  17
ATOM     17  O   UNL     1       0.643  10.962  21.793  0.00  0.00    +0.000 OA
ATOM     18  H   UNL     1       0.863  11.577  21.071  0.00  0.00    +0.000 HD
ENDBRANCH  16  17
ENDBRANCH  15  16
ENDBRANCH  11  15
ENDBRANCH   8  11
ENDBRANCH   4   7
BRANCH   1  19
ATOM     19  C   UNL     1       5.975   3.737  14.931  0.00  0.00    +0.000 C 
BRANCH  19  20
ATOM     20  C   UNL     1       6.689   4.701  13.980  0.00  0.00    +0.000 C 
BRANCH  20  21
ATOM     21  C   UNL     1       6.625   4.242  12.532  0.00  0.00    +0.000 C 
BRANCH  21  22
ATOM     22  C   UNL     1       6.282   2.754  12.480  0.00  0.00    +0.000 C 
BRANCH  22  23
ATOM     23  C   UNL     1       5.271   2.466  11.378  0.00  0.00    +0.000 C 
BRANCH  23  24
ATOM     24  C   UNL     1       4.199   3.552  11.323  0.00  0.00    +0.000 C 
BRANCH  24  26
ATOM     25  C   UNL     1       2.779   4.406   9.435  0.00  0.00    +0.000 C 
ATOM     26  C   UNL     1       3.130   3.205  10.294  0.00  0.00    +0.000 C 
ENDBRANCH  24  26
ENDBRANCH  23  24
ENDBRANCH  22  23
ENDBRANCH  21  22
ENDBRANCH  20  21
ENDBRANCH  19  20
ENDBRANCH   1  19
TORSDOF 13
ENDMDL
MODEL 9
REMARK VINA RESULT:      -6.3      6.538      9.888
REMARK  Name = 
REMARK  14 active torsions:
REMARK  status: ('A' for Active; 'I' for Inactive)
REMARK    1  A    between atoms: C_1  and  C_2
REMARK    2  A    between atoms: C_2  and  C_3
REMARK    3  A    between atoms: C_3  and  C_4
REMARK    4  A    between atoms: C_4  and  C_5
REMARK    5  A    between atoms: C_5  and  C_6
REMARK    6  A    between atoms: C_6  and  C_7
REMARK    7  A    between atoms: C_7  and  C_8
REMARK    8  A    between atoms: C_8  and  C_9
REMARK    9  A    between atoms: C_12  and  N_13
REMARK   10  A    between atoms: C_14  and  C_16
REMARK   11  A    between atoms: C_16  and  N_17
REMARK   12  A    between atoms: C_16  and  C_18
REMARK   13  A    between atoms: C_18  and  C_19
REMARK   14  A    between atoms: C_19  and  O_20
REMARK                            x       y       z     vdW  Elec       q    Type
REMARK                         _______ _______ _______ _____ _____    ______ ____
ROOT
ATOM      1  C   UNL     1       2.949   6.689  18.768  0.00  0.00    +0.000 A 
ATOM      2  C   UNL     1       2.894   7.532  17.657  0.00  0.00    +0.000 A 
ATOM      3  C   UNL     1       2.210   8.738  17.725  0.00  0.00    +0.000 A 
ATOM      4  C   UNL     1       1.547   9.125  18.887  0.00  0.00    +0.000 A 
ATOM      5  C   UNL     1       1.542   8.251  19.982  0.00  0.00    +0.000 A 
ATOM      6  C   UNL     1       2.241   7.038  19.922  0.00  0.00    +0.000 A 
ENDROOT
BRANCH   4   7
ATOM      7  N   UNL     1       0.893  10.368  19.012  0.00  0.00    +0.000 N 
ATOM      8  C   UNL     1      -0.344  10.696  18.479  0.00  0.00    +0.000 C 
ATOM      9  O   UNL     1      -1.050   9.990  17.765  0.00  0.00    +0.000 OA
ATOM     10  H   UNL     1       1.333  11.114  19.547  0.00  0.00    +0.000 HD
BRANCH   8  11
ATOM     11  C   UNL     1      -0.789  12.127  18.842  0.00  0.00    +0.000 C 
BRANCH  11  12
ATOM     12  N   UNL     1      -1.103  12.885  17.607  0.00  0.00    +0.000 NA
ATOM     13  H   UNL     1      -1.746  13.641  17.850  0.00  0.00    +0.000 HD
ATOM     14  H   UNL     1      -1.672  12.257  17.019  0.00  0.00    +0.000 HD
ENDBRANCH  11  12
BRANCH  11  15
ATOM     15  C   UNL     1       0.317  12.780  19.694  0.00  0.00    +0.000 C 
BRANCH  15  16
ATOM     16  C   UNL     1      -0.189  13.473  20.948  0.00  0.00    +0.000 C 
BRANCH  16  17
ATOM     17  O   UNL     1       0.833  13.530  21.936  0.00  0.00    +0.000 OA
ATOM     18  H   UNL     1       0.580  14.228  22.567  0.00  0.00    +0.000 HD
ENDBRANCH  16  17
ENDBRANCH  15  16
ENDBRANCH  11  15
ENDBRANCH   8  11
ENDBRANCH   4   7
BRANCH   1  19
ATOM     19  C   UNL     1       3.852   5.481  18.729  0.00  0.00    +0.000 C 
BRANCH  19  20
ATOM     20  C   UNL     1       3.820   4.876  17.323  0.00  0.00    +0.000 C 
BRANCH  20  21
ATOM     21  C   UNL     1       3.052   3.565  17.273  0.00  0.00    +0.000 C 
BRANCH  21  22
ATOM     22  C   UNL     1       3.484   2.672  18.435  0.00  0.00    +0.000 C 
BRANCH  22  23
ATOM     23  C   UNL     1       2.275   2.044  19.116  0.00  0.00    +0.000 C 
BRANCH  23  24
ATOM     24  C   UNL     1       1.112   3.030  19.182  0.00  0.00    +0.000 C 
BRANCH  24  26
ATOM     25  C   UNL     1       1.766   2.786  21.596  0.00  0.00    +0.000 C 
ATOM     26  C   UNL     1       0.956   3.588  20.593  0.00  0.00    +0.000 C 
ENDBRANCH  24  26
ENDBRANCH  23  24
ENDBRANCH  22  23
ENDBRANCH  21  22
ENDBRANCH  20  21
ENDBRANCH  19  20
ENDBRANCH   1  19
TORSDOF 13
ENDMDL
