MODEL 1
REMARK VINA RESULT:      -8.0      0.000      0.000
REMARK  Name = 
REMARK  12 active torsions:
REMARK  status: ('A' for Active; 'I' for Inactive)
REMARK    1  A    between atoms: C_1  and  C_2
REMARK    2  A    between atoms: C_2  and  C_3
REMARK    3  A    between atoms: C_3  and  O_4
REMARK    4  A    between atoms: O_4  and  C_5
REMARK    5  A    between atoms: C_8  and  C_9
REMARK    6  A    between atoms: C_9  and  C_10
REMARK    7  A    between atoms: C_13  and  C_14
REMARK    8  A    between atoms: C_16  and  O_17
REMARK    9  A    between atoms: N_20  and  C_21
REMARK   10  A    between atoms: N_24  and  C_25
REMARK   11  A    between atoms: C_28  and  C_29
REMARK   12  A    between atoms: C_29  and  C_30
REMARK                            x       y       z     vdW  Elec       q    Type
REMARK                         _______ _______ _______ _____ _____    ______ ____
ROOT
ATOM      1  C   UNL     1       2.501   7.803  18.949  0.00  0.00    +0.000 A 
ATOM      2  N   UNL     1       2.735   8.790  18.013  0.00  0.00    +0.000 NA
ATOM      3  C   UNL     1       2.049   9.945  18.094  0.00  0.00    +0.000 A 
ATOM      4  C   UNL     1       1.127  10.089  19.132  0.00  0.00    +0.000 A 
ATOM      5  N   UNL     1       0.312  11.096  19.466  0.00  0.00    +0.000 NA
ATOM      6  N   UNL     1      -0.323  10.696  20.589  0.00  0.00    +0.000 N 
ATOM      7  C   UNL     1       0.035   9.424  21.005  0.00  0.00    +0.000 A 
ATOM      8  C   UNL     1       0.963   9.020  20.063  0.00  0.00    +0.000 A 
ATOM      9  N   UNL     1       1.634   7.839  20.012  0.00  0.00    +0.000 NA
ENDROOT
BRANCH   6  10
ATOM     10  C   UNL     1      -1.251  11.665  21.186  0.00  0.00    +0.000 C 
ATOM     11  C   UNL     1      -2.054  12.403  20.099  0.00  0.00    +0.000 C 
ATOM     12  C   UNL     1      -2.920  13.514  20.688  0.00  0.00    +0.000 C 
ATOM     13  N   UNL     1      -2.116  14.451  21.478  0.00  0.00    +0.000 NA
ATOM     14  C   UNL     1      -2.935  15.557  21.972  0.00  0.00    +0.000 C 
ATOM     15  C   UNL     1      -1.430  13.773  22.583  0.00  0.00    +0.000 C 
ATOM     16  C   UNL     1      -0.502  12.677  22.065  0.00  0.00    +0.000 C 
ENDBRANCH   6  10
BRANCH   1  22
ATOM     17  C   UNL     1       3.260   5.421  19.484  0.00  0.00    +0.000 A 
ATOM     18  N   UNL     1       3.921   4.272  19.163  0.00  0.00    +0.000 NA
ATOM     19  C   UNL     1       4.584   4.214  17.987  0.00  0.00    +0.000 A 
ATOM     20  C   UNL     1       4.639   5.259  17.092  0.00  0.00    +0.000 A 
ATOM     21  C   UNL     1       3.944   6.424  17.443  0.00  0.00    +0.000 A 
ATOM     22  C   UNL     1       3.213   6.540  18.651  0.00  0.00    +0.000 A 
BRANCH  20  23
ATOM     23  C   UNL     1       5.391   5.215  15.806  0.00  0.00    +0.000 C 
ATOM     24  C   UNL     1       6.034   3.943  15.315  0.00  0.00    +0.000 C 
ATOM     25  O   UNL     1       5.483   6.247  15.138  0.00  0.00    +0.000 OA
ENDBRANCH  20  23
BRANCH  17  26
ATOM     26  O   UNL     1       2.637   5.452  20.713  0.00  0.00    +0.000 OA
BRANCH  26  27
ATOM     27  C   UNL     1       2.048   4.192  21.058  0.00  0.00    +0.000 C 
BRANCH  27  29
ATOM     28  C   UNL     1       0.781   2.669  19.515  0.00  0.00    +0.000 C 
ATOM     29  C   UNL     1       0.772   3.999  20.248  0.00  0.00    +0.000 C 
ENDBRANCH  27  29
ENDBRANCH  26  27
ENDBRANCH  17  26
ENDBRANCH   1  22
BRANCH   3  30
ATOM     30  O   UNL     1       2.313  10.879  17.134  0.00  0.00    +0.000 OA
ATOM     31  H   UNL     1       2.741  11.579  17.658  0.00  0.00    +0.000 HD
ENDBRANCH   3  30
BRANCH   7  32
ATOM     32  C   UNL     1      -0.434   8.729  22.239  0.00  0.00    +0.000 C 
ATOM     33  C   UNL     1       0.057   9.350  23.538  0.00  0.00    +0.000 C 
ENDBRANCH   7  32
TORSDOF 8
ENDMDL
MODEL 2
REMARK VINA RESULT:      -7.9      1.221      1.396
REMARK  Name = 
REMARK  12 active torsions:
REMARK  status: ('A' for Active; 'I' for Inactive)
REMARK    1  A    between atoms: C_1  and  C_2
REMARK    2  A    between atoms: C_2  and  C_3
REMARK    3  A    between atoms: C_3  and  O_4
REMARK    4  A    between atoms: O_4  and  C_5
REMARK    5  A    between atoms: C_8  and  C_9
REMARK    6  A    between atoms: C_9  and  C_10
REMARK    7  A    between atoms: C_13  and  C_14
REMARK    8  A    between atoms: C_16  and  O_17
REMARK    9  A    between atoms: N_20  and  C_21
REMARK   10  A    between atoms: N_24  and  C_25
REMARK   11  A    between atoms: C_28  and  C_29
REMARK   12  A    between atoms: C_29  and  C_30
REMARK                            x       y       z     vdW  Elec       q    Type
REMARK                         _______ _______ _______ _____ _____    ______ ____
ROOT
ATOM      1  C   UNL     1       2.653   7.517  18.957  0.00  0.00    +0.000 A 
ATOM      2  N   UNL     1       2.857   8.474  17.984  0.00  0.00    +0.000 NA
ATOM      3  C   UNL     1       2.158   9.623  18.038  0.00  0.00    +0.000 A 
ATOM      4  C   UNL     1       1.252   9.790  19.087  0.00  0.00    +0.000 A 
ATOM      5  N   UNL     1       0.430  10.798  19.401  0.00  0.00    +0.000 NA
ATOM      6  N   UNL     1      -0.180  10.428  20.548  0.00  0.00    +0.000 N 
ATOM      7  C   UNL     1       0.201   9.176  21.000  0.00  0.00    +0.000 A 
ATOM      8  C   UNL     1       1.118   8.752  20.056  0.00  0.00    +0.000 A 
ATOM      9  N   UNL     1       1.803   7.578  20.033  0.00  0.00    +0.000 NA
ENDROOT
BRANCH   6  10
ATOM     10  C   UNL     1      -1.111  11.405  21.128  0.00  0.00    +0.000 C 
ATOM     11  C   UNL     1      -1.984  12.052  20.037  0.00  0.00    +0.000 C 
ATOM     12  C   UNL     1      -2.858  13.172  20.598  0.00  0.00    +0.000 C 
ATOM     13  N   UNL     1      -2.048  14.178  21.292  0.00  0.00    +0.000 NA
ATOM     14  C   UNL     1      -2.879  15.289  21.756  0.00  0.00    +0.000 C 
ATOM     15  C   UNL     1      -1.292  13.589  22.403  0.00  0.00    +0.000 C 
ATOM     16  C   UNL     1      -0.355  12.490  21.909  0.00  0.00    +0.000 C 
ENDBRANCH   6  10
BRANCH   1  22
ATOM     17  C   UNL     1       2.800   4.983  18.652  0.00  0.00    +0.000 A 
ATOM     18  N   UNL     1       3.505   3.846  18.390  0.00  0.00    +0.000 NA
ATOM     19  C   UNL     1       4.836   3.943  18.173  0.00  0.00    +0.000 A 
ATOM     20  C   UNL     1       5.526   5.134  18.212  0.00  0.00    +0.000 A 
ATOM     21  C   UNL     1       4.776   6.287  18.475  0.00  0.00    +0.000 A 
ATOM     22  C   UNL     1       3.376   6.254  18.689  0.00  0.00    +0.000 A 
BRANCH  20  23
ATOM     23  C   UNL     1       6.997   5.250  18.003  0.00  0.00    +0.000 C 
ATOM     24  C   UNL     1       7.871   6.009  18.970  0.00  0.00    +0.000 C 
ATOM     25  O   UNL     1       7.499   4.711  17.015  0.00  0.00    +0.000 OA
ENDBRANCH  20  23
BRANCH  17  26
ATOM     26  O   UNL     1       1.455   4.830  18.913  0.00  0.00    +0.000 OA
BRANCH  26  27
ATOM     27  C   UNL     1       1.142   3.524  19.416  0.00  0.00    +0.000 C 
BRANCH  27  29
ATOM     28  C   UNL     1       2.214   2.748  21.550  0.00  0.00    +0.000 C 
ATOM     29  C   UNL     1       1.095   3.574  20.938  0.00  0.00    +0.000 C 
ENDBRANCH  27  29
ENDBRANCH  26  27
ENDBRANCH  17  26
ENDBRANCH   1  22
BRANCH   3  30
ATOM     30  O   UNL     1       2.393  10.527  17.042  0.00  0.00    +0.000 OA
ATOM     31  H   UNL     1       3.269  10.868  17.294  0.00  0.00    +0.000 HD
ENDBRANCH   3  30
BRANCH   7  32
ATOM     32  C   UNL     1      -0.237   8.518  22.265  0.00  0.00    +0.000 C 
ATOM     33  C   UNL     1       0.109   9.288  23.530  0.00  0.00    +0.000 C 
ENDBRANCH   7  32
TORSDOF 8
ENDMDL
MODEL 3
REMARK VINA RESULT:      -7.8      1.312      3.350
REMARK  Name = 
REMARK  12 active torsions:
REMARK  status: ('A' for Active; 'I' for Inactive)
REMARK    1  A    between atoms: C_1  and  C_2
REMARK    2  A    between atoms: C_2  and  C_3
REMARK    3  A    between atoms: C_3  and  O_4
REMARK    4  A    between atoms: O_4  and  C_5
REMARK    5  A    between atoms: C_8  and  C_9
REMARK    6  A    between atoms: C_9  and  C_10
REMARK    7  A    between atoms: C_13  and  C_14
REMARK    8  A    between atoms: C_16  and  O_17
REMARK    9  A    between atoms: N_20  and  C_21
REMARK   10  A    between atoms: N_24  and  C_25
REMARK   11  A    between atoms: C_28  and  C_29
REMARK   12  A    between atoms: C_29  and  C_30
REMARK                            x       y       z     vdW  Elec       q    Type
REMARK                         _______ _______ _______ _____ _____    ______ ____
ROOT
ATOM      1  C   UNL     1       2.286   7.490  19.287  0.00  0.00    +0.000 A 
ATOM      2  N   UNL     1       2.552   8.348  18.239  0.00  0.00    +0.000 NA
ATOM      3  C   UNL     1       1.929   9.540  18.193  0.00  0.00    +0.000 A 
ATOM      4  C   UNL     1       1.035   9.852  19.220  0.00  0.00    +0.000 A 
ATOM      5  N   UNL     1       0.280  10.933  19.444  0.00  0.00    +0.000 NA
ATOM      6  N   UNL     1      -0.353  10.701  20.615  0.00  0.00    +0.000 N 
ATOM      7  C   UNL     1      -0.053   9.469  21.171  0.00  0.00    +0.000 A 
ATOM      8  C   UNL     1       0.834   8.909  20.271  0.00  0.00    +0.000 A 
ATOM      9  N   UNL     1       1.443   7.696  20.350  0.00  0.00    +0.000 NA
ENDROOT
BRANCH   6  10
ATOM     10  C   UNL     1      -1.218  11.781  21.106  0.00  0.00    +0.000 C 
ATOM     11  C   UNL     1      -2.163  12.280  19.997  0.00  0.00    +0.000 C 
ATOM     12  C   UNL     1      -2.971  13.496  20.444  0.00  0.00    +0.000 C 
ATOM     13  N   UNL     1      -2.093  14.572  20.913  0.00  0.00    +0.000 NA
ATOM     14  C   UNL     1      -2.865  15.764  21.263  0.00  0.00    +0.000 C 
ATOM     15  C   UNL     1      -1.262  14.137  22.041  0.00  0.00    +0.000 C 
ATOM     16  C   UNL     1      -0.385  12.950  21.653  0.00  0.00    +0.000 C 
ENDBRANCH   6  10
BRANCH   1  22
ATOM     17  C   UNL     1       3.799   5.805  18.102  0.00  0.00    +0.000 A 
ATOM     18  N   UNL     1       4.375   4.573  18.003  0.00  0.00    +0.000 NA
ATOM     19  C   UNL     1       4.076   3.640  18.933  0.00  0.00    +0.000 A 
ATOM     20  C   UNL     1       3.206   3.862  19.979  0.00  0.00    +0.000 A 
ATOM     21  C   UNL     1       2.636   5.139  20.061  0.00  0.00    +0.000 A 
ATOM     22  C   UNL     1       2.926   6.165  19.129  0.00  0.00    +0.000 A 
BRANCH  20  23
ATOM     23  C   UNL     1       2.847   2.833  20.994  0.00  0.00    +0.000 C 
ATOM     24  C   UNL     1       1.432   2.683  21.494  0.00  0.00    +0.000 C 
ATOM     25  O   UNL     1       3.732   2.093  21.427  0.00  0.00    +0.000 OA
ENDBRANCH  20  23
BRANCH  17  26
ATOM     26  O   UNL     1       4.098   6.709  17.105  0.00  0.00    +0.000 OA
BRANCH  26  27
ATOM     27  C   UNL     1       5.406   6.505  16.557  0.00  0.00    +0.000 C 
BRANCH  27  29
ATOM     28  C   UNL     1       7.534   6.443  17.889  0.00  0.00    +0.000 C 
ATOM     29  C   UNL     1       6.415   7.321  17.356  0.00  0.00    +0.000 C 
ENDBRANCH  27  29
ENDBRANCH  26  27
ENDBRANCH  17  26
ENDBRANCH   1  22
BRANCH   3  30
ATOM     30  O   UNL     1       2.221  10.341  17.126  0.00  0.00    +0.000 OA
ATOM     31  H   UNL     1       3.150  10.569  17.306  0.00  0.00    +0.000 HD
ENDBRANCH   3  30
BRANCH   7  32
ATOM     32  C   UNL     1      -0.532   8.948  22.484  0.00  0.00    +0.000 C 
ATOM     33  C   UNL     1       0.166   9.548  23.695  0.00  0.00    +0.000 C 
ENDBRANCH   7  32
TORSDOF 8
ENDMDL
MODEL 4
REMARK VINA RESULT:      -7.7      2.337      4.799
REMARK  Name = 
REMARK  12 active torsions:
REMARK  status: ('A' for Active; 'I' for Inactive)
REMARK    1  A    between atoms: C_1  and  C_2
REMARK    2  A    between atoms: C_2  and  C_3
REMARK    3  A    between atoms: C_3  and  O_4
REMARK    4  A    between atoms: O_4  and  C_5
REMARK    5  A    between atoms: C_8  and  C_9
REMARK    6  A    between atoms: C_9  and  C_10
REMARK    7  A    between atoms: C_13  and  C_14
REMARK    8  A    between atoms: C_16  and  O_17
REMARK    9  A    between atoms: N_20  and  C_21
REMARK   10  A    between atoms: N_24  and  C_25
REMARK   11  A    between atoms: C_28  and  C_29
REMARK   12  A    between atoms: C_29  and  C_30
REMARK                            x       y       z     vdW  Elec       q    Type
REMARK                         _______ _______ _______ _____ _____    ______ ____
ROOT
ATOM      1  C   UNL     1       4.275   6.073  17.601  0.00  0.00    +0.000 A 
ATOM      2  N   UNL     1       4.158   5.159  18.628  0.00  0.00    +0.000 NA
ATOM      3  C   UNL     1       3.317   5.420  19.646  0.00  0.00    +0.000 A 
ATOM      4  C   UNL     1       2.597   6.616  19.611  0.00  0.00    +0.000 A 
ATOM      5  N   UNL     1       1.707   7.143  20.459  0.00  0.00    +0.000 NA
ATOM      6  N   UNL     1       1.303   8.301  19.891  0.00  0.00    +0.000 N 
ATOM      7  C   UNL     1       1.926   8.572  18.684  0.00  0.00    +0.000 A 
ATOM      8  C   UNL     1       2.772   7.494  18.501  0.00  0.00    +0.000 A 
ATOM      9  N   UNL     1       3.613   7.266  17.457  0.00  0.00    +0.000 NA
ENDROOT
BRANCH   6  10
ATOM     10  C   UNL     1       0.275   9.053  20.620  0.00  0.00    +0.000 C 
ATOM     11  C   UNL     1       0.126  10.478  20.056  0.00  0.00    +0.000 C 
ATOM     12  C   UNL     1      -0.835  11.323  20.889  0.00  0.00    +0.000 C 
ATOM     13  N   UNL     1      -0.429  11.352  22.298  0.00  0.00    +0.000 NA
ATOM     14  C   UNL     1      -1.304  12.228  23.077  0.00  0.00    +0.000 C 
ATOM     15  C   UNL     1      -0.387  10.005  22.875  0.00  0.00    +0.000 C 
ATOM     16  C   UNL     1       0.596   9.112  22.121  0.00  0.00    +0.000 C 
ENDBRANCH   6  10
BRANCH   1  22
ATOM     17  C   UNL     1       6.687   6.058  16.757  0.00  0.00    +0.000 A 
ATOM     18  N   UNL     1       7.636   5.706  15.843  0.00  0.00    +0.000 NA
ATOM     19  C   UNL     1       7.254   5.015  14.746  0.00  0.00    +0.000 A 
ATOM     20  C   UNL     1       5.950   4.653  14.492  0.00  0.00    +0.000 A 
ATOM     21  C   UNL     1       4.998   5.020  15.452  0.00  0.00    +0.000 A 
ATOM     22  C   UNL     1       5.338   5.725  16.633  0.00  0.00    +0.000 A 
BRANCH  20  23
ATOM     23  C   UNL     1       5.513   3.916  13.273  0.00  0.00    +0.000 C 
ATOM     24  C   UNL     1       6.498   3.513  12.204  0.00  0.00    +0.000 C 
ATOM     25  O   UNL     1       4.320   3.636  13.145  0.00  0.00    +0.000 OA
ENDBRANCH  20  23
BRANCH  17  26
ATOM     26  O   UNL     1       7.116   6.802  17.836  0.00  0.00    +0.000 OA
BRANCH  26  27
ATOM     27  C   UNL     1       7.547   8.115  17.457  0.00  0.00    +0.000 C 
BRANCH  27  29
ATOM     28  C   UNL     1       8.788  10.125  18.310  0.00  0.00    +0.000 C 
ATOM     29  C   UNL     1       8.522   8.641  18.502  0.00  0.00    +0.000 C 
ENDBRANCH  27  29
ENDBRANCH  26  27
ENDBRANCH  17  26
ENDBRANCH   1  22
BRANCH   3  30
ATOM     30  O   UNL     1       3.253   4.485  20.639  0.00  0.00    +0.000 OA
ATOM     31  H   UNL     1       2.357   4.637  20.989  0.00  0.00    +0.000 HD
ENDBRANCH   3  30
BRANCH   7  32
ATOM     32  C   UNL     1       1.649   9.729  17.783  0.00  0.00    +0.000 C 
ATOM     33  C   UNL     1       2.598  10.905  17.955  0.00  0.00    +0.000 C 
ENDBRANCH   7  32
TORSDOF 8
ENDMDL
MODEL 5
REMARK VINA RESULT:      -7.6      2.200      4.400
REMARK  Name = 
REMARK  12 active torsions:
REMARK  status: ('A' for Active; 'I' for Inactive)
REMARK    1  A    between atoms: C_1  and  C_2
REMARK    2  A    between atoms: C_2  and  C_3
REMARK    3  A    between atoms: C_3  and  O_4
REMARK    4  A    between atoms: O_4  and  C_5
REMARK    5  A    between atoms: C_8  and  C_9
REMARK    6  A    between atoms: C_9  and  C_10
REMARK    7  A    between atoms: C_13  and  C_14
REMARK    8  A    between atoms: C_16  and  O_17
REMARK    9  A    between atoms: N_20  and  C_21
REMARK   10  A    between atoms: N_24  and  C_25
REMARK   11  A    between atoms: C_28  and  C_29
REMARK   12  A    between atoms: C_29  and  C_30
REMARK                            x       y       z     vdW  Elec       q    Type
REMARK                         _______ _______ _______ _____ _____    ______ ____
ROOT
ATOM      1  C   UNL     1       4.167   6.115  17.925  0.00  0.00    +0.000 A 
ATOM      2  N   UNL     1       3.864   5.302  18.998  0.00  0.00    +0.000 NA
ATOM      3  C   UNL     1       2.953   5.715  19.898  0.00  0.00    +0.000 A 
ATOM      4  C   UNL     1       2.352   6.960  19.698  0.00  0.00    +0.000 A 
ATOM      5  N   UNL     1       1.434   7.628  20.404  0.00  0.00    +0.000 NA
ATOM      6  N   UNL     1       1.196   8.764  19.713  0.00  0.00    +0.000 N 
ATOM      7  C   UNL     1       1.959   8.882  18.563  0.00  0.00    +0.000 A 
ATOM      8  C   UNL     1       2.717   7.726  18.551  0.00  0.00    +0.000 A 
ATOM      9  N   UNL     1       3.634   7.343  17.624  0.00  0.00    +0.000 NA
ENDROOT
BRANCH   6  10
ATOM     10  C   UNL     1       0.172   9.657  20.271  0.00  0.00    +0.000 C 
ATOM     11  C   UNL     1      -0.705  10.257  19.157  0.00  0.00    +0.000 C 
ATOM     12  C   UNL     1      -1.682  11.297  19.700  0.00  0.00    +0.000 C 
ATOM     13  N   UNL     1      -0.979  12.347  20.443  0.00  0.00    +0.000 NA
ATOM     14  C   UNL     1      -1.909  13.383  20.892  0.00  0.00    +0.000 C 
ATOM     15  C   UNL     1      -0.224  11.795  21.574  0.00  0.00    +0.000 C 
ATOM     16  C   UNL     1       0.813  10.780  21.100  0.00  0.00    +0.000 C 
ENDBRANCH   6  10
BRANCH   1  22
ATOM     17  C   UNL     1       6.629   5.597  17.479  0.00  0.00    +0.000 A 
ATOM     18  N   UNL     1       7.628   5.102  16.692  0.00  0.00    +0.000 NA
ATOM     19  C   UNL     1       7.309   4.605  15.477  0.00  0.00    +0.000 A 
ATOM     20  C   UNL     1       6.025   4.579  14.980  0.00  0.00    +0.000 A 
ATOM     21  C   UNL     1       5.018   5.086  15.812  0.00  0.00    +0.000 A 
ATOM     22  C   UNL     1       5.285   5.601  17.104  0.00  0.00    +0.000 A 
BRANCH  20  23
ATOM     23  C   UNL     1       5.666   4.060  13.630  0.00  0.00    +0.000 C 
ATOM     24  C   UNL     1       6.711   3.860  12.562  0.00  0.00    +0.000 C 
ATOM     25  O   UNL     1       4.487   3.792  13.392  0.00  0.00    +0.000 OA
ENDBRANCH  20  23
BRANCH  17  26
ATOM     26  O   UNL     1       7.007   6.137  18.690  0.00  0.00    +0.000 OA
BRANCH  26  27
ATOM     27  C   UNL     1       8.132   7.016  18.569  0.00  0.00    +0.000 C 
BRANCH  27  29
ATOM     28  C   UNL     1       8.479   9.473  18.177  0.00  0.00    +0.000 C 
ATOM     29  C   UNL     1       7.732   8.226  17.734  0.00  0.00    +0.000 C 
ENDBRANCH  27  29
ENDBRANCH  26  27
ENDBRANCH  17  26
ENDBRANCH   1  22
BRANCH   3  30
ATOM     30  O   UNL     1       2.705   4.874  20.945  0.00  0.00    +0.000 OA
ATOM     31  H   UNL     1       2.505   4.042  20.481  0.00  0.00    +0.000 HD
ENDBRANCH   3  30
BRANCH   7  32
ATOM     32  C   UNL     1       1.880   9.979  17.555  0.00  0.00    +0.000 C 
ATOM     33  C   UNL     1       2.515  11.289  17.997  0.00  0.00    +0.000 C 
ENDBRANCH   7  32
TORSDOF 8
ENDMDL
MODEL 6
REMARK VINA RESULT:      -7.6      1.218      3.241
REMARK  Name = 
REMARK  12 active torsions:
REMARK  status: ('A' for Active; 'I' for Inactive)
REMARK    1  A    between atoms: C_1  and  C_2
REMARK    2  A    between atoms: C_2  and  C_3
REMARK    3  A    between atoms: C_3  and  O_4
REMARK    4  A    between atoms: O_4  and  C_5
REMARK    5  A    between atoms: C_8  and  C_9
REMARK    6  A    between atoms: C_9  and  C_10
REMARK    7  A    between atoms: C_13  and  C_14
REMARK    8  A    between atoms: C_16  and  O_17
REMARK    9  A    between atoms: N_20  and  C_21
REMARK   10  A    between atoms: N_24  and  C_25
REMARK   11  A    between atoms: C_28  and  C_29
REMARK   12  A    between atoms: C_29  and  C_30
REMARK                            x       y       z     vdW  Elec       q    Type
REMARK                         _______ _______ _______ _____ _____    ______ ____
ROOT
ATOM      1  C   UNL     1       2.210   7.543  19.266  0.00  0.00    +0.000 A 
ATOM      2  N   UNL     1       2.497   8.407  18.229  0.00  0.00    +0.000 NA
ATOM      3  C   UNL     1       1.908   9.617  18.202  0.00  0.00    +0.000 A 
ATOM      4  C   UNL     1       1.028   9.941  19.236  0.00  0.00    +0.000 A 
ATOM      5  N   UNL     1       0.305  11.041  19.478  0.00  0.00    +0.000 NA
ATOM      6  N   UNL     1      -0.330  10.811  20.648  0.00  0.00    +0.000 N 
ATOM      7  C   UNL     1      -0.063   9.563  21.187  0.00  0.00    +0.000 A 
ATOM      8  C   UNL     1       0.804   8.990  20.275  0.00  0.00    +0.000 A 
ATOM      9  N   UNL     1       1.377   7.759  20.335  0.00  0.00    +0.000 NA
ENDROOT
BRANCH   6  10
ATOM     10  C   UNL     1      -1.161  11.908  21.158  0.00  0.00    +0.000 C 
ATOM     11  C   UNL     1      -2.233  12.314  20.129  0.00  0.00    +0.000 C 
ATOM     12  C   UNL     1      -3.016  13.545  20.578  0.00  0.00    +0.000 C 
ATOM     13  N   UNL     1      -2.117  14.665  20.874  0.00  0.00    +0.000 NA
ATOM     14  C   UNL     1      -2.874  15.866  21.225  0.00  0.00    +0.000 C 
ATOM     15  C   UNL     1      -1.159  14.323  21.931  0.00  0.00    +0.000 C 
ATOM     16  C   UNL     1      -0.301  13.125  21.529  0.00  0.00    +0.000 C 
ENDBRANCH   6  10
BRANCH   1  22
ATOM     17  C   UNL     1       3.981   5.928  18.379  0.00  0.00    +0.000 A 
ATOM     18  N   UNL     1       4.505   4.675  18.250  0.00  0.00    +0.000 NA
ATOM     19  C   UNL     1       3.853   3.638  18.820  0.00  0.00    +0.000 A 
ATOM     20  C   UNL     1       2.674   3.774  19.520  0.00  0.00    +0.000 A 
ATOM     21  C   UNL     1       2.163   5.072  19.644  0.00  0.00    +0.000 A 
ATOM     22  C   UNL     1       2.811   6.203  19.088  0.00  0.00    +0.000 A 
BRANCH  20  23
ATOM     23  C   UNL     1       1.932   2.634  20.127  0.00  0.00    +0.000 C 
ATOM     24  C   UNL     1       1.613   2.600  21.601  0.00  0.00    +0.000 C 
ATOM     25  O   UNL     1       1.576   1.704  19.401  0.00  0.00    +0.000 OA
ENDBRANCH  20  23
BRANCH  17  26
ATOM     26  O   UNL     1       4.655   6.948  17.743  0.00  0.00    +0.000 OA
BRANCH  26  27
ATOM     27  C   UNL     1       5.738   6.467  16.936  0.00  0.00    +0.000 C 
BRANCH  27  29
ATOM     28  C   UNL     1       5.889   5.089  14.842  0.00  0.00    +0.000 C 
ATOM     29  C   UNL     1       5.257   6.304  15.500  0.00  0.00    +0.000 C 
ENDBRANCH  27  29
ENDBRANCH  26  27
ENDBRANCH  17  26
ENDBRANCH   1  22
BRANCH   3  30
ATOM     30  O   UNL     1       2.220  10.424  17.145  0.00  0.00    +0.000 OA
ATOM     31  H   UNL     1       3.185  10.306  17.090  0.00  0.00    +0.000 HD
ENDBRANCH   3  30
BRANCH   7  32
ATOM     32  C   UNL     1      -0.553   9.038  22.494  0.00  0.00    +0.000 C 
ATOM     33  C   UNL     1       0.259   9.488  23.699  0.00  0.00    +0.000 C 
ENDBRANCH   7  32
TORSDOF 8
ENDMDL
MODEL 7
REMARK VINA RESULT:      -7.6      1.698      2.674
REMARK  Name = 
REMARK  12 active torsions:
REMARK  status: ('A' for Active; 'I' for Inactive)
REMARK    1  A    between atoms: C_1  and  C_2
REMARK    2  A    between atoms: C_2  and  C_3
REMARK    3  A    between atoms: C_3  and  O_4
REMARK    4  A    between atoms: O_4  and  C_5
REMARK    5  A    between atoms: C_8  and  C_9
REMARK    6  A    between atoms: C_9  and  C_10
REMARK    7  A    between atoms: C_13  and  C_14
REMARK    8  A    between atoms: C_16  and  O_17
REMARK    9  A    between atoms: N_20  and  C_21
REMARK   10  A    between atoms: N_24  and  C_25
REMARK   11  A    between atoms: C_28  and  C_29
REMARK   12  A    between atoms: C_29  and  C_30
REMARK                            x       y       z     vdW  Elec       q    Type
REMARK                         _______ _______ _______ _____ _____    ______ ____
ROOT
ATOM      1  C   UNL     1       1.624   8.088  19.703  0.00  0.00    +0.000 A 
ATOM      2  N   UNL     1       1.831   8.251  21.058  0.00  0.00    +0.000 NA
ATOM      3  C   UNL     1       1.241   9.282  21.691  0.00  0.00    +0.000 A 
ATOM      4  C   UNL     1       0.439  10.142  20.938  0.00  0.00    +0.000 A 
ATOM      5  N   UNL     1      -0.261  11.230  21.277  0.00  0.00    +0.000 NA
ATOM      6  N   UNL     1      -0.882  11.631  20.146  0.00  0.00    +0.000 N 
ATOM      7  C   UNL     1      -0.592  10.843  19.045  0.00  0.00    +0.000 A 
ATOM      8  C   UNL     1       0.270   9.885  19.545  0.00  0.00    +0.000 A 
ATOM      9  N   UNL     1       0.852   8.858  18.871  0.00  0.00    +0.000 NA
ENDROOT
BRANCH   6  10
ATOM     10  C   UNL     1      -1.763  12.799  20.274  0.00  0.00    +0.000 C 
ATOM     11  C   UNL     1      -1.336  13.687  21.457  0.00  0.00    +0.000 C 
ATOM     12  C   UNL     1      -2.322  14.829  21.695  0.00  0.00    +0.000 C 
ATOM     13  N   UNL     1      -3.685  14.322  21.880  0.00  0.00    +0.000 NA
ATOM     14  C   UNL     1      -4.612  15.411  22.189  0.00  0.00    +0.000 C 
ATOM     15  C   UNL     1      -4.141  13.563  20.711  0.00  0.00    +0.000 C 
ATOM     16  C   UNL     1      -3.228  12.369  20.439  0.00  0.00    +0.000 C 
ENDBRANCH   6  10
BRANCH   1  22
ATOM     17  C   UNL     1       2.316   5.647  19.395  0.00  0.00    +0.000 A 
ATOM     18  N   UNL     1       3.093   4.683  18.821  0.00  0.00    +0.000 NA
ATOM     19  C   UNL     1       4.055   5.060  17.950  0.00  0.00    +0.000 A 
ATOM     20  C   UNL     1       4.304   6.373  17.615  0.00  0.00    +0.000 A 
ATOM     21  C   UNL     1       3.486   7.340  18.212  0.00  0.00    +0.000 A 
ATOM     22  C   UNL     1       2.448   7.007  19.117  0.00  0.00    +0.000 A 
BRANCH  20  23
ATOM     23  C   UNL     1       5.380   6.801  16.678  0.00  0.00    +0.000 C 
ATOM     24  C   UNL     1       6.749   7.190  17.178  0.00  0.00    +0.000 C 
ATOM     25  O   UNL     1       5.136   6.837  15.470  0.00  0.00    +0.000 OA
ENDBRANCH  20  23
BRANCH  17  26
ATOM     26  O   UNL     1       1.380   5.220  20.312  0.00  0.00    +0.000 OA
BRANCH  26  27
ATOM     27  C   UNL     1       0.987   3.858  20.098  0.00  0.00    +0.000 C 
BRANCH  27  29
ATOM     28  C   UNL     1       2.637   2.607  21.520  0.00  0.00    +0.000 C 
ATOM     29  C   UNL     1       1.196   3.070  21.385  0.00  0.00    +0.000 C 
ENDBRANCH  27  29
ENDBRANCH  26  27
ENDBRANCH  17  26
ENDBRANCH   1  22
BRANCH   3  30
ATOM     30  O   UNL     1       1.493   9.401  23.028  0.00  0.00    +0.000 OA
ATOM     31  H   UNL     1       2.322   8.899  23.114  0.00  0.00    +0.000 HD
ENDBRANCH   3  30
BRANCH   7  32
ATOM     32  C   UNL     1      -1.169  10.983  17.677  0.00  0.00    +0.000 C 
ATOM     33  C   UNL     1      -2.312  10.026  17.373  0.00  0.00    +0.000 C 
ENDBRANCH   7  32
TORSDOF 8
ENDMDL
MODEL 8
REMARK VINA RESULT:      -7.6      1.117      1.173
REMARK  Name = 
REMARK  12 active torsions:
REMARK  status: ('A' for Active; 'I' for Inactive)
REMARK    1  A    between atoms: C_1  and  C_2
REMARK    2  A    between atoms: C_2  and  C_3
REMARK    3  A    between atoms: C_3  and  O_4
REMARK    4  A    between atoms: O_4  and  C_5
REMARK    5  A    between atoms: C_8  and  C_9
REMARK    6  A    between atoms: C_9  and  C_10
REMARK    7  A    between atoms: C_13  and  C_14
REMARK    8  A    between atoms: C_16  and  O_17
REMARK    9  A    between atoms: N_20  and  C_21
REMARK   10  A    between atoms: N_24  and  C_25
REMARK   11  A    between atoms: C_28  and  C_29
REMARK   12  A    between atoms: C_29  and  C_30
REMARK                            x       y       z     vdW  Elec       q    Type
REMARK                         _______ _______ _______ _____ _____    ______ ____
ROOT
ATOM      1  C   UNL     1       2.614   7.205  19.427  0.00  0.00    +0.000 A 
ATOM      2  N   UNL     1       2.821   7.999  18.318  0.00  0.00    +0.000 NA
ATOM      3  C   UNL     1       2.103   9.128  18.177  0.00  0.00    +0.000 A 
ATOM      4  C   UNL     1       1.175   9.443  19.172  0.00  0.00    +0.000 A 
ATOM      5  N   UNL     1       0.332  10.472  19.308  0.00  0.00    +0.000 NA
ATOM      6  N   UNL     1      -0.293  10.279  20.491  0.00  0.00    +0.000 N 
ATOM      7  C   UNL     1       0.100   9.121  21.142  0.00  0.00    +0.000 A 
ATOM      8  C   UNL     1       1.040   8.570  20.292  0.00  0.00    +0.000 A 
ATOM      9  N   UNL     1       1.745   7.420  20.467  0.00  0.00    +0.000 NA
ENDROOT
BRANCH   6  10
ATOM     10  C   UNL     1      -1.249  11.318  20.893  0.00  0.00    +0.000 C 
ATOM     11  C   UNL     1      -2.000  11.881  19.672  0.00  0.00    +0.000 C 
ATOM     12  C   UNL     1      -2.895  13.060  20.049  0.00  0.00    +0.000 C 
ATOM     13  N   UNL     1      -2.130  14.109  20.729  0.00  0.00    +0.000 NA
ATOM     14  C   UNL     1      -2.972  15.270  21.014  0.00  0.00    +0.000 C 
ATOM     15  C   UNL     1      -1.496  13.608  21.953  0.00  0.00    +0.000 C 
ATOM     16  C   UNL     1      -0.543  12.455  21.647  0.00  0.00    +0.000 C 
ENDBRANCH   6  10
BRANCH   1  22
ATOM     17  C   UNL     1       3.043   4.774  20.089  0.00  0.00    +0.000 A 
ATOM     18  N   UNL     1       3.757   3.614  20.002  0.00  0.00    +0.000 NA
ATOM     19  C   UNL     1       4.843   3.581  19.198  0.00  0.00    +0.000 A 
ATOM     20  C   UNL     1       5.279   4.662  18.464  0.00  0.00    +0.000 A 
ATOM     21  C   UNL     1       4.522   5.837  18.566  0.00  0.00    +0.000 A 
ATOM     22  C   UNL     1       3.363   5.929  19.375  0.00  0.00    +0.000 A 
BRANCH  20  23
ATOM     23  C   UNL     1       6.490   4.645  17.597  0.00  0.00    +0.000 C 
ATOM     24  C   UNL     1       6.379   4.643  16.093  0.00  0.00    +0.000 C 
ATOM     25  O   UNL     1       7.601   4.630  18.131  0.00  0.00    +0.000 OA
ENDBRANCH  20  23
BRANCH  17  26
ATOM     26  O   UNL     1       1.972   4.775  20.957  0.00  0.00    +0.000 OA
BRANCH  26  27
ATOM     27  C   UNL     1       1.132   3.627  20.789  0.00  0.00    +0.000 C 
BRANCH  27  29
ATOM     28  C   UNL     1       0.668   2.090  18.858  0.00  0.00    +0.000 C 
ATOM     29  C   UNL     1       0.700   3.533  19.331  0.00  0.00    +0.000 C 
ENDBRANCH  27  29
ENDBRANCH  26  27
ENDBRANCH  17  26
ENDBRANCH   1  22
BRANCH   3  30
ATOM     30  O   UNL     1       2.341   9.867  17.053  0.00  0.00    +0.000 OA
ATOM     31  H   UNL     1       2.008  10.741  17.323  0.00  0.00    +0.000 HD
ENDBRANCH   3  30
BRANCH   7  32
ATOM     32  C   UNL     1      -0.350   8.665  22.488  0.00  0.00    +0.000 C 
ATOM     33  C   UNL     1       0.181   9.495  23.647  0.00  0.00    +0.000 C 
ENDBRANCH   7  32
TORSDOF 8
ENDMDL
MODEL 9
REMARK VINA RESULT:      -7.5      1.582      3.259
REMARK  Name = 
REMARK  12 active torsions:
REMARK  status: ('A' for Active; 'I' for Inactive)
REMARK    1  A    between atoms: C_1  and  C_2
REMARK    2  A    between atoms: C_2  and  C_3
REMARK    3  A    between atoms: C_3  and  O_4
REMARK    4  A    between atoms: O_4  and  C_5
REMARK    5  A    between atoms: C_8  and  C_9
REMARK    6  A    between atoms: C_9  and  C_10
REMARK    7  A    between atoms: C_13  and  C_14
REMARK    8  A    between atoms: C_16  and  O_17
REMARK    9  A    between atoms: N_20  and  C_21
REMARK   10  A    between atoms: N_24  and  C_25
REMARK   11  A    between atoms: C_28  and  C_29
REMARK   12  A    between atoms: C_29  and  C_30
REMARK                            x       y       z     vdW  Elec       q    Type
REMARK                         _______ _______ _______ _____ _____    ______ ____
ROOT
ATOM      1  C   UNL     1       2.384   7.792  18.752  0.00  0.00    +0.000 A 
ATOM      2  N   UNL     1       2.718   8.794  17.864  0.00  0.00    +0.000 NA
ATOM      3  C   UNL     1       2.171  10.014  18.016  0.00  0.00    +0.000 A 
ATOM      4  C   UNL     1       1.284  10.207  19.077  0.00  0.00    +0.000 A 
ATOM      5  N   UNL     1       0.595  11.281  19.476  0.00  0.00    +0.000 NA
ATOM      6  N   UNL     1      -0.069  10.897  20.589  0.00  0.00    +0.000 N 
ATOM      7  C   UNL     1       0.145   9.572  20.932  0.00  0.00    +0.000 A 
ATOM      8  C   UNL     1       1.009   9.116  19.954  0.00  0.00    +0.000 A 
ATOM      9  N   UNL     1       1.539   7.870  19.831  0.00  0.00    +0.000 NA
ENDROOT
BRANCH   6  10
ATOM     10  C   UNL     1      -0.872  11.933  21.251  0.00  0.00    +0.000 C 
ATOM     11  C   UNL     1      -1.984  12.450  20.320  0.00  0.00    +0.000 C 
ATOM     12  C   UNL     1      -2.741  13.625  20.935  0.00  0.00    +0.000 C 
ATOM     13  N   UNL     1      -1.824  14.705  21.314  0.00  0.00    +0.000 NA
ATOM     14  C   UNL     1      -2.559  15.861  21.827  0.00  0.00    +0.000 C 
ATOM     15  C   UNL     1      -0.824  14.248  22.284  0.00  0.00    +0.000 C 
ATOM     16  C   UNL     1       0.010  13.101  21.717  0.00  0.00    +0.000 C 
ENDBRANCH   6  10
BRANCH   1  22
ATOM     17  C   UNL     1       4.196   6.260  17.802  0.00  0.00    +0.000 A 
ATOM     18  N   UNL     1       4.675   5.024  17.482  0.00  0.00    +0.000 NA
ATOM     19  C   UNL     1       3.893   3.946  17.713  0.00  0.00    +0.000 A 
ATOM     20  C   UNL     1       2.626   4.027  18.248  0.00  0.00    +0.000 A 
ATOM     21  C   UNL     1       2.163   5.308  18.575  0.00  0.00    +0.000 A 
ATOM     22  C   UNL     1       2.943   6.474  18.377  0.00  0.00    +0.000 A 
BRANCH  20  23
ATOM     23  C   UNL     1       1.745   2.848  18.480  0.00  0.00    +0.000 C 
ATOM     24  C   UNL     1       2.285   1.565  19.060  0.00  0.00    +0.000 C 
ATOM     25  O   UNL     1       0.551   2.934  18.188  0.00  0.00    +0.000 OA
ENDBRANCH  20  23
BRANCH  17  26
ATOM     26  O   UNL     1       5.009   7.333  17.506  0.00  0.00    +0.000 OA
BRANCH  26  27
ATOM     27  C   UNL     1       6.216   6.936  16.842  0.00  0.00    +0.000 C 
BRANCH  27  29
ATOM     28  C   UNL     1       7.909   8.581  17.699  0.00  0.00    +0.000 C 
ATOM     29  C   UNL     1       7.396   7.154  17.780  0.00  0.00    +0.000 C 
ENDBRANCH  27  29
ENDBRANCH  26  27
ENDBRANCH  17  26
ENDBRANCH   1  22
BRANCH   3  30
ATOM     30  O   UNL     1       2.529  10.962  17.101  0.00  0.00    +0.000 OA
ATOM     31  H   UNL     1       3.310  10.549  16.691  0.00  0.00    +0.000 HD
ENDBRANCH   3  30
BRANCH   7  32
ATOM     32  C   UNL     1      -0.385   8.871  22.137  0.00  0.00    +0.000 C 
ATOM     33  C   UNL     1       0.030   9.491  23.462  0.00  0.00    +0.000 C 
ENDBRANCH   7  32
TORSDOF 8
ENDMDL
