MODEL 1
REMARK VINA RESULT:      -8.4      0.000      0.000
REMARK  Name = 
REMARK  5 active torsions:
REMARK  status: ('A' for Active; 'I' for Inactive)
REMARK    1  A    between atoms: C_1  and  C_2
REMARK    2  A    between atoms: C_3  and  C_4
REMARK    3  A    between atoms: C_8  and  C_9
REMARK    4  A    between atoms: C_25  and  C_26
REMARK    5  A    between atoms: C_26  and  C_27
REMARK                            x       y       z     vdW  Elec       q    Type
REMARK                         _______ _______ _______ _____ _____    ______ ____
ROOT
ATOM      1  C   UNL     1       1.492   8.540  18.694  0.00  0.00    +0.000 A 
ATOM      2  C   UNL     1       2.601   8.771  17.853  0.00  0.00    +0.000 A 
ATOM      3  C   UNL     1       3.525   7.763  17.548  0.00  0.00    +0.000 A 
ATOM      4  C   UNL     1       3.368   6.491  18.081  0.00  0.00    +0.000 A 
ATOM      5  C   UNL     1       2.261   6.218  18.911  0.00  0.00    +0.000 A 
ATOM      6  C   UNL     1       1.328   7.233  19.195  0.00  0.00    +0.000 A 
ATOM      7  C   UNL     1       2.244   4.872  19.581  0.00  0.00    +0.000 C 
ATOM      8  C   UNL     1       3.103   5.055  20.842  0.00  0.00    +0.000 C 
ATOM      9  O   UNL     1       2.812   3.892  21.575  0.00  0.00    +0.000 OA
ATOM     10  C   UNL     1       1.529   3.658  21.210  0.00  0.00    +0.000 C 
ATOM     11  N   UNL     1       0.990   2.693  21.978  0.00  0.00    +0.000 N 
ATOM     12  N   UNL     1       1.024   4.288  20.188  0.00  0.00    +0.000 NA
ATOM     13  C   UNL     1       2.757   3.887  18.494  0.00  0.00    +0.000 C 
ATOM     14  C   UNL     1       2.223   2.415  18.501  0.00  0.00    +0.000 C 
ATOM     15  O   UNL     1       2.130   2.428  17.049  0.00  0.00    +0.000 OA
ATOM     16  C   UNL     1       1.998   3.880  17.112  0.00  0.00    +0.000 C 
ATOM     17  C   UNL     1       4.233   4.216  18.254  0.00  0.00    +0.000 C 
ATOM     18  O   UNL     1       4.328   5.566  17.722  0.00  0.00    +0.000 OA
ATOM     19  H   UNL     1       1.701   2.209  22.520  0.00  0.00    +0.000 HD
ATOM     20  H   UNL     1       0.397   2.055  21.463  0.00  0.00    +0.000 HD
ENDROOT
BRANCH   1  25
ATOM     21  C   UNL     1      -1.438  10.985  18.846  0.00  0.00    +0.000 A 
ATOM     22  C   UNL     1      -1.046  11.715  19.960  0.00  0.00    +0.000 A 
ATOM     23  N   UNL     1       0.091  11.481  20.648  0.00  0.00    +0.000 NA
ATOM     24  C   UNL     1       0.865  10.460  20.199  0.00  0.00    +0.000 A 
ATOM     25  C   UNL     1       0.588   9.650  19.088  0.00  0.00    +0.000 A 
ATOM     26  C   UNL     1      -0.609   9.944  18.412  0.00  0.00    +0.000 A 
BRANCH  21  29
ATOM     27  C   UNL     1      -5.047  11.834  17.121  0.00  0.00    +0.000 C 
ATOM     28  C   UNL     1      -3.738  11.539  17.687  0.00  0.00    +0.000 C 
ATOM     29  C   UNL     1      -2.676  11.291  18.191  0.00  0.00    +0.000 C 
ENDBRANCH  21  29
ENDBRANCH   1  25
BRANCH  17  30
ATOM     30  C   UNL     1       4.987   3.186  17.376  0.00  0.00    +0.000 C 
BRANCH  30  31
ATOM     31  C   UNL     1       5.658   3.846  16.186  0.00  0.00    +0.000 A 
ATOM     32  C   UNL     1       5.116   3.753  14.895  0.00  0.00    +0.000 A 
ATOM     33  C   UNL     1       5.822   4.250  13.796  0.00  0.00    +0.000 A 
ATOM     34  C   UNL     1       7.065   4.855  13.980  0.00  0.00    +0.000 A 
ATOM     35  C   UNL     1       7.580   5.008  15.264  0.00  0.00    +0.000 A 
ATOM     36  C   UNL     1       6.874   4.516  16.361  0.00  0.00    +0.000 A 
ENDBRANCH  30  31
ENDBRANCH  17  30
TORSDOF 4
ENDMDL
MODEL 2
REMARK VINA RESULT:      -8.3      5.110     11.507
REMARK  Name = 
REMARK  5 active torsions:
REMARK  status: ('A' for Active; 'I' for Inactive)
REMARK    1  A    between atoms: C_1  and  C_2
REMARK    2  A    between atoms: C_3  and  C_4
REMARK    3  A    between atoms: C_8  and  C_9
REMARK    4  A    between atoms: C_25  and  C_26
REMARK    5  A    between atoms: C_26  and  C_27
REMARK                            x       y       z     vdW  Elec       q    Type
REMARK                         _______ _______ _______ _____ _____    ______ ____
ROOT
ATOM      1  C   UNL     1       0.524   9.735  20.706  0.00  0.00    +0.000 A 
ATOM      2  C   UNL     1       0.286   9.278  22.019  0.00  0.00    +0.000 A 
ATOM      3  C   UNL     1      -0.384  10.060  22.968  0.00  0.00    +0.000 A 
ATOM      4  C   UNL     1      -0.835  11.329  22.632  0.00  0.00    +0.000 A 
ATOM      5  C   UNL     1      -0.632  11.812  21.323  0.00  0.00    +0.000 A 
ATOM      6  C   UNL     1       0.025  11.011  20.371  0.00  0.00    +0.000 A 
ATOM      7  C   UNL     1      -0.999  13.250  21.077  0.00  0.00    +0.000 C 
ATOM      8  C   UNL     1       0.235  14.048  21.527  0.00  0.00    +0.000 C 
ATOM      9  O   UNL     1      -0.027  15.326  21.006  0.00  0.00    +0.000 OA
ATOM     10  C   UNL     1      -0.721  15.021  19.884  0.00  0.00    +0.000 C 
ATOM     11  N   UNL     1      -0.883  16.117  19.120  0.00  0.00    +0.000 N 
ATOM     12  N   UNL     1      -1.183  13.815  19.719  0.00  0.00    +0.000 NA
ATOM     13  C   UNL     1      -2.321  13.457  21.866  0.00  0.00    +0.000 C 
ATOM     14  C   UNL     1      -3.369  14.485  21.320  0.00  0.00    +0.000 C 
ATOM     15  O   UNL     1      -4.455  13.579  21.661  0.00  0.00    +0.000 OA
ATOM     16  C   UNL     1      -3.510  12.472  21.551  0.00  0.00    +0.000 C 
ATOM     17  C   UNL     1      -1.973  13.364  23.354  0.00  0.00    +0.000 C 
ATOM     18  O   UNL     1      -1.485  12.022  23.634  0.00  0.00    +0.000 OA
ATOM     19  H   UNL     1      -0.639  16.964  19.627  0.00  0.00    +0.000 HD
ATOM     20  H   UNL     1      -1.798  16.176  18.691  0.00  0.00    +0.000 HD
ENDROOT
BRANCH   1  25
ATOM     21  C   UNL     1       2.580   6.941  19.111  0.00  0.00    +0.000 A 
ATOM     22  C   UNL     1       2.768   7.507  17.857  0.00  0.00    +0.000 A 
ATOM     23  N   UNL     1       2.292   8.718  17.502  0.00  0.00    +0.000 NA
ATOM     24  C   UNL     1       1.587   9.388  18.450  0.00  0.00    +0.000 A 
ATOM     25  C   UNL     1       1.329   8.933  19.752  0.00  0.00    +0.000 A 
ATOM     26  C   UNL     1       1.853   7.665  20.062  0.00  0.00    +0.000 A 
BRANCH  21  29
ATOM     27  C   UNL     1       3.948   3.155  19.829  0.00  0.00    +0.000 C 
ATOM     28  C   UNL     1       3.503   4.523  19.602  0.00  0.00    +0.000 C 
ATOM     29  C   UNL     1       3.105   5.636  19.392  0.00  0.00    +0.000 C 
ENDBRANCH  21  29
ENDBRANCH   1  25
BRANCH  17  30
ATOM     30  C   UNL     1      -3.118  13.781  24.311  0.00  0.00    +0.000 C 
BRANCH  30  31
ATOM     31  C   UNL     1      -2.888  15.162  24.895  0.00  0.00    +0.000 A 
ATOM     32  C   UNL     1      -3.806  16.205  24.694  0.00  0.00    +0.000 A 
ATOM     33  C   UNL     1      -3.506  17.501  25.123  0.00  0.00    +0.000 A 
ATOM     34  C   UNL     1      -2.296  17.761  25.767  0.00  0.00    +0.000 A 
ATOM     35  C   UNL     1      -1.409  16.720  26.026  0.00  0.00    +0.000 A 
ATOM     36  C   UNL     1      -1.710  15.426  25.602  0.00  0.00    +0.000 A 
ENDBRANCH  30  31
ENDBRANCH  17  30
TORSDOF 4
ENDMDL
MODEL 3
REMARK VINA RESULT:      -8.2      1.615      1.993
REMARK  Name = 
REMARK  5 active torsions:
REMARK  status: ('A' for Active; 'I' for Inactive)
REMARK    1  A    between atoms: C_1  and  C_2
REMARK    2  A    between atoms: C_3  and  C_4
REMARK    3  A    between atoms: C_8  and  C_9
REMARK    4  A    between atoms: C_25  and  C_26
REMARK    5  A    between atoms: C_26  and  C_27
REMARK                            x       y       z     vdW  Elec       q    Type
REMARK                         _______ _______ _______ _____ _____    ______ ____
ROOT
ATOM      1  C   UNL     1       1.156   8.326  20.346  0.00  0.00    +0.000 A 
ATOM      2  C   UNL     1       1.921   8.779  19.250  0.00  0.00    +0.000 A 
ATOM      3  C   UNL     1       2.660   7.901  18.447  0.00  0.00    +0.000 A 
ATOM      4  C   UNL     1       2.661   6.540  18.721  0.00  0.00    +0.000 A 
ATOM      5  C   UNL     1       1.893   6.049  19.797  0.00  0.00    +0.000 A 
ATOM      6  C   UNL     1       1.138   6.937  20.585  0.00  0.00    +0.000 A 
ATOM      7  C   UNL     1       2.069   4.594  20.134  0.00  0.00    +0.000 C 
ATOM      8  C   UNL     1       3.308   4.553  21.042  0.00  0.00    +0.000 C 
ATOM      9  O   UNL     1       3.253   3.251  21.568  0.00  0.00    +0.000 OA
ATOM     10  C   UNL     1       1.917   3.037  21.614  0.00  0.00    +0.000 C 
ATOM     11  N   UNL     1       1.645   1.909  22.297  0.00  0.00    +0.000 N 
ATOM     12  N   UNL     1       1.112   3.840  20.979  0.00  0.00    +0.000 NA
ATOM     13  C   UNL     1       2.159   3.881  18.756  0.00  0.00    +0.000 C 
ATOM     14  C   UNL     1       1.621   2.415  18.633  0.00  0.00    +0.000 C 
ATOM     15  O   UNL     1       1.042   2.724  17.333  0.00  0.00    +0.000 OA
ATOM     16  C   UNL     1       0.977   4.124  17.742  0.00  0.00    +0.000 C 
ATOM     17  C   UNL     1       3.475   4.322  18.110  0.00  0.00    +0.000 C 
ATOM     18  O   UNL     1       3.419   5.756  17.874  0.00  0.00    +0.000 OA
ATOM     19  H   UNL     1       2.484   1.358  22.453  0.00  0.00    +0.000 HD
ATOM     20  H   UNL     1       0.897   1.364  21.889  0.00  0.00    +0.000 HD
ENDROOT
BRANCH   1  25
ATOM     21  C   UNL     1      -1.053  11.142  21.677  0.00  0.00    +0.000 A 
ATOM     22  C   UNL     1      -0.806  10.981  23.034  0.00  0.00    +0.000 A 
ATOM     23  N   UNL     1       0.024  10.045  23.539  0.00  0.00    +0.000 NA
ATOM     24  C   UNL     1       0.627   9.227  22.637  0.00  0.00    +0.000 A 
ATOM     25  C   UNL     1       0.467   9.286  21.244  0.00  0.00    +0.000 A 
ATOM     26  C   UNL     1      -0.408  10.284  20.780  0.00  0.00    +0.000 A 
BRANCH  21  29
ATOM     27  C   UNL     1      -3.792  13.920  20.450  0.00  0.00    +0.000 C 
ATOM     28  C   UNL     1      -2.777  12.965  20.873  0.00  0.00    +0.000 C 
ATOM     29  C   UNL     1      -1.969  12.152  21.234  0.00  0.00    +0.000 C 
ENDBRANCH  21  29
ENDBRANCH   1  25
BRANCH  17  30
ATOM     30  C   UNL     1       3.860   3.533  16.833  0.00  0.00    +0.000 C 
BRANCH  30  31
ATOM     31  C   UNL     1       5.191   3.994  16.268  0.00  0.00    +0.000 A 
ATOM     32  C   UNL     1       6.272   4.309  17.105  0.00  0.00    +0.000 A 
ATOM     33  C   UNL     1       7.439   4.862  16.571  0.00  0.00    +0.000 A 
ATOM     34  C   UNL     1       7.540   5.091  15.199  0.00  0.00    +0.000 A 
ATOM     35  C   UNL     1       6.496   4.722  14.355  0.00  0.00    +0.000 A 
ATOM     36  C   UNL     1       5.333   4.167  14.886  0.00  0.00    +0.000 A 
ENDBRANCH  30  31
ENDBRANCH  17  30
TORSDOF 4
ENDMDL
MODEL 4
REMARK VINA RESULT:      -8.0      1.769      1.927
REMARK  Name = 
REMARK  5 active torsions:
REMARK  status: ('A' for Active; 'I' for Inactive)
REMARK    1  A    between atoms: C_1  and  C_2
REMARK    2  A    between atoms: C_3  and  C_4
REMARK    3  A    between atoms: C_8  and  C_9
REMARK    4  A    between atoms: C_25  and  C_26
REMARK    5  A    between atoms: C_26  and  C_27
REMARK                            x       y       z     vdW  Elec       q    Type
REMARK                         _______ _______ _______ _____ _____    ______ ____
ROOT
ATOM      1  C   UNL     1       1.262   8.375  20.040  0.00  0.00    +0.000 A 
ATOM      2  C   UNL     1       2.129   8.745  18.990  0.00  0.00    +0.000 A 
ATOM      3  C   UNL     1       2.903   7.805  18.300  0.00  0.00    +0.000 A 
ATOM      4  C   UNL     1       2.837   6.461  18.643  0.00  0.00    +0.000 A 
ATOM      5  C   UNL     1       1.968   6.051  19.676  0.00  0.00    +0.000 A 
ATOM      6  C   UNL     1       1.179   7.003  20.350  0.00  0.00    +0.000 A 
ATOM      7  C   UNL     1       2.068   4.613  20.102  0.00  0.00    +0.000 C 
ATOM      8  C   UNL     1       3.226   4.587  21.112  0.00  0.00    +0.000 C 
ATOM      9  O   UNL     1       3.086   3.319  21.698  0.00  0.00    +0.000 OA
ATOM     10  C   UNL     1       1.744   3.144  21.644  0.00  0.00    +0.000 C 
ATOM     11  N   UNL     1       1.381   2.064  22.360  0.00  0.00    +0.000 N 
ATOM     12  N   UNL     1       1.021   3.933  20.902  0.00  0.00    +0.000 NA
ATOM     13  C   UNL     1       2.248   3.823  18.776  0.00  0.00    +0.000 C 
ATOM     14  C   UNL     1       1.674   2.368  18.685  0.00  0.00    +0.000 C 
ATOM     15  O   UNL     1       1.215   2.621  17.327  0.00  0.00    +0.000 OA
ATOM     16  C   UNL     1       1.162   4.043  17.655  0.00  0.00    +0.000 C 
ATOM     17  C   UNL     1       3.626   4.191  18.220  0.00  0.00    +0.000 C 
ATOM     18  O   UNL     1       3.636   5.611  17.905  0.00  0.00    +0.000 OA
ATOM     19  H   UNL     1       2.186   1.499  22.615  0.00  0.00    +0.000 HD
ATOM     20  H   UNL     1       0.651   1.518  21.919  0.00  0.00    +0.000 HD
ENDROOT
BRANCH   1  25
ATOM     21  C   UNL     1      -0.389  11.636  21.147  0.00  0.00    +0.000 A 
ATOM     22  C   UNL     1      -0.900  11.210  22.366  0.00  0.00    +0.000 A 
ATOM     23  N   UNL     1      -0.739   9.962  22.852  0.00  0.00    +0.000 NA
ATOM     24  C   UNL     1      -0.038   9.099  22.072  0.00  0.00    +0.000 A 
ATOM     25  C   UNL     1       0.533   9.402  20.826  0.00  0.00    +0.000 A 
ATOM     26  C   UNL     1       0.333  10.718  20.376  0.00  0.00    +0.000 A 
BRANCH  21  29
ATOM     27  C   UNL     1      -0.916  15.470  19.827  0.00  0.00    +0.000 C 
ATOM     28  C   UNL     1      -0.780  14.104  20.313  0.00  0.00    +0.000 C 
ATOM     29  C   UNL     1      -0.629  12.977  20.702  0.00  0.00    +0.000 C 
ENDBRANCH  21  29
ENDBRANCH   1  25
BRANCH  17  30
ATOM     30  C   UNL     1       4.090   3.323  17.023  0.00  0.00    +0.000 C 
BRANCH  30  31
ATOM     31  C   UNL     1       5.221   3.981  16.255  0.00  0.00    +0.000 A 
ATOM     32  C   UNL     1       5.170   4.129  14.860  0.00  0.00    +0.000 A 
ATOM     33  C   UNL     1       6.280   4.611  14.162  0.00  0.00    +0.000 A 
ATOM     34  C   UNL     1       7.441   4.963  14.851  0.00  0.00    +0.000 A 
ATOM     35  C   UNL     1       7.476   4.879  16.240  0.00  0.00    +0.000 A 
ATOM     36  C   UNL     1       6.367   4.402  16.938  0.00  0.00    +0.000 A 
ENDBRANCH  30  31
ENDBRANCH  17  30
TORSDOF 4
ENDMDL
MODEL 5
REMARK VINA RESULT:      -7.9      4.760     10.318
REMARK  Name = 
REMARK  5 active torsions:
REMARK  status: ('A' for Active; 'I' for Inactive)
REMARK    1  A    between atoms: C_1  and  C_2
REMARK    2  A    between atoms: C_3  and  C_4
REMARK    3  A    between atoms: C_8  and  C_9
REMARK    4  A    between atoms: C_25  and  C_26
REMARK    5  A    between atoms: C_26  and  C_27
REMARK                            x       y       z     vdW  Elec       q    Type
REMARK                         _______ _______ _______ _____ _____    ______ ____
ROOT
ATOM      1  C   UNL     1       1.068  10.278  19.663  0.00  0.00    +0.000 A 
ATOM      2  C   UNL     1       1.433  11.135  18.604  0.00  0.00    +0.000 A 
ATOM      3  C   UNL     1       0.952  12.447  18.512  0.00  0.00    +0.000 A 
ATOM      4  C   UNL     1       0.085  12.941  19.477  0.00  0.00    +0.000 A 
ATOM      5  C   UNL     1      -0.287  12.119  20.561  0.00  0.00    +0.000 A 
ATOM      6  C   UNL     1       0.217  10.808  20.654  0.00  0.00    +0.000 A 
ATOM      7  C   UNL     1      -1.351  12.659  21.475  0.00  0.00    +0.000 C 
ATOM      8  C   UNL     1      -2.677  12.296  20.787  0.00  0.00    +0.000 C 
ATOM      9  O   UNL     1      -3.618  12.540  21.800  0.00  0.00    +0.000 OA
ATOM     10  C   UNL     1      -2.903  12.243  22.910  0.00  0.00    +0.000 C 
ATOM     11  N   UNL     1      -3.704  12.208  23.991  0.00  0.00    +0.000 N 
ATOM     12  N   UNL     1      -1.610  12.108  22.827  0.00  0.00    +0.000 NA
ATOM     13  C   UNL     1      -1.006  14.166  21.629  0.00  0.00    +0.000 C 
ATOM     14  C   UNL     1      -1.361  14.885  22.975  0.00  0.00    +0.000 C 
ATOM     15  O   UNL     1      -0.098  15.607  22.937  0.00  0.00    +0.000 OA
ATOM     16  C   UNL     1       0.447  14.526  22.120  0.00  0.00    +0.000 C 
ATOM     17  C   UNL     1      -1.253  14.823  20.268  0.00  0.00    +0.000 C 
ATOM     18  O   UNL     1      -0.334  14.245  19.300  0.00  0.00    +0.000 OA
ATOM     19  H   UNL     1      -4.617  12.606  23.789  0.00  0.00    +0.000 HD
ATOM     20  H   UNL     1      -3.281  12.614  24.816  0.00  0.00    +0.000 HD
ENDROOT
BRANCH   1  25
ATOM     21  C   UNL     1       2.744   6.960  18.786  0.00  0.00    +0.000 A 
ATOM     22  C   UNL     1       2.300   6.208  19.865  0.00  0.00    +0.000 A 
ATOM     23  N   UNL     1       1.498   6.690  20.837  0.00  0.00    +0.000 NA
ATOM     24  C   UNL     1       1.132   7.993  20.721  0.00  0.00    +0.000 A 
ATOM     25  C   UNL     1       1.505   8.859  19.683  0.00  0.00    +0.000 A 
ATOM     26  C   UNL     1       2.339   8.297  18.700  0.00  0.00    +0.000 A 
BRANCH  21  29
ATOM     27  C   UNL     1       5.134   5.130  16.019  0.00  0.00    +0.000 C 
ATOM     28  C   UNL     1       4.314   5.826  17.000  0.00  0.00    +0.000 C 
ATOM     29  C   UNL     1       3.613   6.367  17.812  0.00  0.00    +0.000 C 
ENDBRANCH  21  29
ENDBRANCH   1  25
BRANCH  17  30
ATOM     30  C   UNL     1      -1.194  16.371  20.279  0.00  0.00    +0.000 C 
BRANCH  30  31
ATOM     31  C   UNL     1      -0.369  16.911  19.126  0.00  0.00    +0.000 A 
ATOM     32  C   UNL     1       1.034  16.852  19.139  0.00  0.00    +0.000 A 
ATOM     33  C   UNL     1       1.774  17.479  18.132  0.00  0.00    +0.000 A 
ATOM     34  C   UNL     1       1.121  18.154  17.102  0.00  0.00    +0.000 A 
ATOM     35  C   UNL     1      -0.270  18.162  17.048  0.00  0.00    +0.000 A 
ATOM     36  C   UNL     1      -1.009  17.534  18.049  0.00  0.00    +0.000 A 
ENDBRANCH  30  31
ENDBRANCH  17  30
TORSDOF 4
ENDMDL
MODEL 6
REMARK VINA RESULT:      -7.9      1.561      1.883
REMARK  Name = 
REMARK  5 active torsions:
REMARK  status: ('A' for Active; 'I' for Inactive)
REMARK    1  A    between atoms: C_1  and  C_2
REMARK    2  A    between atoms: C_3  and  C_4
REMARK    3  A    between atoms: C_8  and  C_9
REMARK    4  A    between atoms: C_25  and  C_26
REMARK    5  A    between atoms: C_26  and  C_27
REMARK                            x       y       z     vdW  Elec       q    Type
REMARK                         _______ _______ _______ _____ _____    ______ ____
ROOT
ATOM      1  C   UNL     1       1.564   8.510  19.309  0.00  0.00    +0.000 A 
ATOM      2  C   UNL     1       2.499   8.752  18.281  0.00  0.00    +0.000 A 
ATOM      3  C   UNL     1       3.286   7.730  17.736  0.00  0.00    +0.000 A 
ATOM      4  C   UNL     1       3.163   6.431  18.209  0.00  0.00    +0.000 A 
ATOM      5  C   UNL     1       2.226   6.147  19.224  0.00  0.00    +0.000 A 
ATOM      6  C   UNL     1       1.426   7.179  19.751  0.00  0.00    +0.000 A 
ATOM      7  C   UNL     1       2.263   4.758  19.798  0.00  0.00    +0.000 C 
ATOM      8  C   UNL     1       3.360   4.811  20.873  0.00  0.00    +0.000 C 
ATOM      9  O   UNL     1       3.152   3.612  21.575  0.00  0.00    +0.000 OA
ATOM     10  C   UNL     1       1.811   3.461  21.458  0.00  0.00    +0.000 C 
ATOM     11  N   UNL     1       1.378   2.468  22.256  0.00  0.00    +0.000 N 
ATOM     12  N   UNL     1       1.153   4.186  20.598  0.00  0.00    +0.000 NA
ATOM     13  C   UNL     1       2.496   3.833  18.571  0.00  0.00    +0.000 C 
ATOM     14  C   UNL     1       1.890   2.389  18.593  0.00  0.00    +0.000 C 
ATOM     15  O   UNL     1       1.516   2.511  17.192  0.00  0.00    +0.000 OA
ATOM     16  C   UNL     1       1.483   3.960  17.371  0.00  0.00    +0.000 C 
ATOM     17  C   UNL     1       3.914   4.113  18.065  0.00  0.00    +0.000 C 
ATOM     18  O   UNL     1       3.980   5.493  17.610  0.00  0.00    +0.000 OA
ATOM     19  H   UNL     1       2.152   1.915  22.614  0.00  0.00    +0.000 HD
ATOM     20  H   UNL     1       0.660   1.896  21.830  0.00  0.00    +0.000 HD
ENDROOT
BRANCH   1  25
ATOM     21  C   UNL     1       0.034  11.934  20.034  0.00  0.00    +0.000 A 
ATOM     22  C   UNL     1      -0.659  11.614  21.193  0.00  0.00    +0.000 A 
ATOM     23  N   UNL     1      -0.656  10.387  21.755  0.00  0.00    +0.000 NA
ATOM     24  C   UNL     1       0.073   9.435  21.115  0.00  0.00    +0.000 A 
ATOM     25  C   UNL     1       0.820   9.627  19.943  0.00  0.00    +0.000 A 
ATOM     26  C   UNL     1       0.778  10.927  19.408  0.00  0.00    +0.000 A 
BRANCH  21  29
ATOM     27  C   UNL     1      -0.225  15.775  18.658  0.00  0.00    +0.000 C 
ATOM     28  C   UNL     1      -0.124  14.391  19.097  0.00  0.00    +0.000 C 
ATOM     29  C   UNL     1      -0.046  13.261  19.497  0.00  0.00    +0.000 C 
ENDBRANCH  21  29
ENDBRANCH   1  25
BRANCH  17  30
ATOM     30  C   UNL     1       4.421   3.117  16.991  0.00  0.00    +0.000 C 
BRANCH  30  31
ATOM     31  C   UNL     1       5.478   3.742  16.100  0.00  0.00    +0.000 A 
ATOM     32  C   UNL     1       6.621   4.354  16.638  0.00  0.00    +0.000 A 
ATOM     33  C   UNL     1       7.509   5.042  15.807  0.00  0.00    +0.000 A 
ATOM     34  C   UNL     1       7.272   5.112  14.435  0.00  0.00    +0.000 A 
ATOM     35  C   UNL     1       6.175   4.453  13.886  0.00  0.00    +0.000 A 
ATOM     36  C   UNL     1       5.290   3.763  14.714  0.00  0.00    +0.000 A 
ENDBRANCH  30  31
ENDBRANCH  17  30
TORSDOF 4
ENDMDL
MODEL 7
REMARK VINA RESULT:      -7.8      4.067     10.466
REMARK  Name = 
REMARK  5 active torsions:
REMARK  status: ('A' for Active; 'I' for Inactive)
REMARK    1  A    between atoms: C_1  and  C_2
REMARK    2  A    between atoms: C_3  and  C_4
REMARK    3  A    between atoms: C_8  and  C_9
REMARK    4  A    between atoms: C_25  and  C_26
REMARK    5  A    between atoms: C_26  and  C_27
REMARK                            x       y       z     vdW  Elec       q    Type
REMARK                         _______ _______ _______ _____ _____    ______ ____
ROOT
ATOM      1  C   UNL     1       1.507   8.299  19.696  0.00  0.00    +0.000 A 
ATOM      2  C   UNL     1       0.882   7.769  20.844  0.00  0.00    +0.000 A 
ATOM      3  C   UNL     1       0.081   8.554  21.683  0.00  0.00    +0.000 A 
ATOM      4  C   UNL     1      -0.116   9.898  21.398  0.00  0.00    +0.000 A 
ATOM      5  C   UNL     1       0.478  10.458  20.249  0.00  0.00    +0.000 A 
ATOM      6  C   UNL     1       1.265   9.656  19.402  0.00  0.00    +0.000 A 
ATOM      7  C   UNL     1       0.357  11.949  20.093  0.00  0.00    +0.000 C 
ATOM      8  C   UNL     1       1.512  12.522  20.929  0.00  0.00    +0.000 C 
ATOM      9  O   UNL     1       1.546  13.864  20.515  0.00  0.00    +0.000 OA
ATOM     10  C   UNL     1       1.141  13.759  19.227  0.00  0.00    +0.000 C 
ATOM     11  N   UNL     1       1.313  14.928  18.583  0.00  0.00    +0.000 N 
ATOM     12  N   UNL     1       0.603  12.649  18.809  0.00  0.00    +0.000 NA
ATOM     13  C   UNL     1      -1.093  12.273  20.546  0.00  0.00    +0.000 C 
ATOM     14  C   UNL     1      -1.835  13.484  19.883  0.00  0.00    +0.000 C 
ATOM     15  O   UNL     1      -3.070  12.715  19.832  0.00  0.00    +0.000 OA
ATOM     16  C   UNL     1      -2.263  11.498  19.829  0.00  0.00    +0.000 C 
ATOM     17  C   UNL     1      -1.162  12.005  22.052  0.00  0.00    +0.000 C 
ATOM     18  O   UNL     1      -0.922  10.588  22.282  0.00  0.00    +0.000 OA
ATOM     19  H   UNL     1       1.511  15.684  19.232  0.00  0.00    +0.000 HD
ATOM     20  H   UNL     1       0.556  15.152  17.951  0.00  0.00    +0.000 HD
ENDROOT
BRANCH   1  25
ATOM     21  C   UNL     1       3.440   5.352  18.223  0.00  0.00    +0.000 A 
ATOM     22  C   UNL     1       4.168   6.038  17.260  0.00  0.00    +0.000 A 
ATOM     23  N   UNL     1       4.086   7.371  17.065  0.00  0.00    +0.000 NA
ATOM     24  C   UNL     1       3.225   8.044  17.872  0.00  0.00    +0.000 A 
ATOM     25  C   UNL     1       2.437   7.474  18.884  0.00  0.00    +0.000 A 
ATOM     26  C   UNL     1       2.569   6.083  19.039  0.00  0.00    +0.000 A 
BRANCH  21  29
ATOM     27  C   UNL     1       3.680   1.279  18.490  0.00  0.00    +0.000 C 
ATOM     28  C   UNL     1       3.643   2.733  18.421  0.00  0.00    +0.000 C 
ATOM     29  C   UNL     1       3.576   3.930  18.343  0.00  0.00    +0.000 C 
ENDBRANCH  21  29
ENDBRANCH   1  25
BRANCH  17  30
ATOM     30  C   UNL     1      -2.462  12.497  22.736  0.00  0.00    +0.000 C 
BRANCH  30  31
ATOM     31  C   UNL     1      -2.223  13.743  23.568  0.00  0.00    +0.000 A 
ATOM     32  C   UNL     1      -1.034  14.481  23.456  0.00  0.00    +0.000 A 
ATOM     33  C   UNL     1      -0.778  15.542  24.329  0.00  0.00    +0.000 A 
ATOM     34  C   UNL     1      -1.711  15.881  25.309  0.00  0.00    +0.000 A 
ATOM     35  C   UNL     1      -2.919  15.194  25.385  0.00  0.00    +0.000 A 
ATOM     36  C   UNL     1      -3.177  14.139  24.511  0.00  0.00    +0.000 A 
ENDBRANCH  30  31
ENDBRANCH  17  30
TORSDOF 4
ENDMDL
MODEL 8
REMARK VINA RESULT:      -7.8      3.670     10.105
REMARK  Name = 
REMARK  5 active torsions:
REMARK  status: ('A' for Active; 'I' for Inactive)
REMARK    1  A    between atoms: C_1  and  C_2
REMARK    2  A    between atoms: C_3  and  C_4
REMARK    3  A    between atoms: C_8  and  C_9
REMARK    4  A    between atoms: C_25  and  C_26
REMARK    5  A    between atoms: C_26  and  C_27
REMARK                            x       y       z     vdW  Elec       q    Type
REMARK                         _______ _______ _______ _____ _____    ______ ____
ROOT
ATOM      1  C   UNL     1       1.423   7.605  20.183  0.00  0.00    +0.000 A 
ATOM      2  C   UNL     1       0.504   7.471  21.246  0.00  0.00    +0.000 A 
ATOM      3  C   UNL     1      -0.268   8.547  21.700  0.00  0.00    +0.000 A 
ATOM      4  C   UNL     1      -0.141   9.795  21.106  0.00  0.00    +0.000 A 
ATOM      5  C   UNL     1       0.754   9.963  20.029  0.00  0.00    +0.000 A 
ATOM      6  C   UNL     1       1.511   8.870  19.567  0.00  0.00    +0.000 A 
ATOM      7  C   UNL     1       0.960  11.371  19.544  0.00  0.00    +0.000 C 
ATOM      8  C   UNL     1       2.031  11.952  20.481  0.00  0.00    +0.000 C 
ATOM      9  O   UNL     1       2.404  13.132  19.816  0.00  0.00    +0.000 OA
ATOM     10  C   UNL     1       2.231  12.777  18.521  0.00  0.00    +0.000 C 
ATOM     11  N   UNL     1       2.746  13.714  17.703  0.00  0.00    +0.000 N 
ATOM     12  N   UNL     1       1.572  11.692  18.232  0.00  0.00    +0.000 NA
ATOM     13  C   UNL     1      -0.457  12.009  19.582  0.00  0.00    +0.000 C 
ATOM     14  C   UNL     1      -0.810  13.117  18.532  0.00  0.00    +0.000 C 
ATOM     15  O   UNL     1      -2.141  12.552  18.365  0.00  0.00    +0.000 OA
ATOM     16  C   UNL     1      -1.603  11.265  18.796  0.00  0.00    +0.000 C 
ATOM     17  C   UNL     1      -0.853  12.129  21.056  0.00  0.00    +0.000 C 
ATOM     18  O   UNL     1      -0.944  10.793  21.622  0.00  0.00    +0.000 OA
ATOM     19  H   UNL     1       2.965  14.568  18.209  0.00  0.00    +0.000 HD
ATOM     20  H   UNL     1       2.177  13.888  16.884  0.00  0.00    +0.000 HD
ENDROOT
BRANCH   1  25
ATOM     21  C   UNL     1       3.853   5.365  18.270  0.00  0.00    +0.000 A 
ATOM     22  C   UNL     1       3.972   4.341  19.199  0.00  0.00    +0.000 A 
ATOM     23  N   UNL     1       3.320   4.320  20.381  0.00  0.00    +0.000 NA
ATOM     24  C   UNL     1       2.518   5.384  20.642  0.00  0.00    +0.000 A 
ATOM     25  C   UNL     1       2.306   6.478  19.790  0.00  0.00    +0.000 A 
ATOM     26  C   UNL     1       3.011   6.440  18.574  0.00  0.00    +0.000 A 
BRANCH  21  29
ATOM     27  C   UNL     1       6.123   5.166  14.875  0.00  0.00    +0.000 C 
ATOM     28  C   UNL     1       5.273   5.253  16.054  0.00  0.00    +0.000 C 
ATOM     29  C   UNL     1       4.602   5.312  17.048  0.00  0.00    +0.000 C 
ENDBRANCH  21  29
ENDBRANCH   1  25
BRANCH  17  30
ATOM     30  C   UNL     1      -2.135  12.962  21.311  0.00  0.00    +0.000 C 
BRANCH  30  31
ATOM     31  C   UNL     1      -2.131  13.590  22.692  0.00  0.00    +0.000 A 
ATOM     32  C   UNL     1      -3.251  13.510  23.536  0.00  0.00    +0.000 A 
ATOM     33  C   UNL     1      -3.274  14.213  24.744  0.00  0.00    +0.000 A 
ATOM     34  C   UNL     1      -2.177  14.986  25.124  0.00  0.00    +0.000 A 
ATOM     35  C   UNL     1      -1.039  15.018  24.323  0.00  0.00    +0.000 A 
ATOM     36  C   UNL     1      -1.013  14.315  23.120  0.00  0.00    +0.000 A 
ENDBRANCH  30  31
ENDBRANCH  17  30
TORSDOF 4
ENDMDL
MODEL 9
REMARK VINA RESULT:      -7.7      4.729     11.029
REMARK  Name = 
REMARK  5 active torsions:
REMARK  status: ('A' for Active; 'I' for Inactive)
REMARK    1  A    between atoms: C_1  and  C_2
REMARK    2  A    between atoms: C_3  and  C_4
REMARK    3  A    between atoms: C_8  and  C_9
REMARK    4  A    between atoms: C_25  and  C_26
REMARK    5  A    between atoms: C_26  and  C_27
REMARK                            x       y       z     vdW  Elec       q    Type
REMARK                         _______ _______ _______ _____ _____    ______ ____
ROOT
ATOM      1  C   UNL     1       1.115   9.162  20.421  0.00  0.00    +0.000 A 
ATOM      2  C   UNL     1       0.711   8.797  21.722  0.00  0.00    +0.000 A 
ATOM      3  C   UNL     1       0.110   9.711  22.597  0.00  0.00    +0.000 A 
ATOM      4  C   UNL     1      -0.101  11.023  22.196  0.00  0.00    +0.000 A 
ATOM      5  C   UNL     1       0.273  11.420  20.896  0.00  0.00    +0.000 A 
ATOM      6  C   UNL     1       0.858  10.488  20.017  0.00  0.00    +0.000 A 
ATOM      7  C   UNL     1       0.166  12.887  20.588  0.00  0.00    +0.000 C 
ATOM      8  C   UNL     1       1.478  13.492  21.114  0.00  0.00    +0.000 C 
ATOM      9  O   UNL     1       1.468  14.775  20.543  0.00  0.00    +0.000 OA
ATOM     10  C   UNL     1       0.816  14.547  19.378  0.00  0.00    +0.000 C 
ATOM     11  N   UNL     1       0.892  15.626  18.578  0.00  0.00    +0.000 N 
ATOM     12  N   UNL     1       0.176  13.426  19.206  0.00  0.00    +0.000 NA
ATOM     13  C   UNL     1      -1.159  13.334  21.267  0.00  0.00    +0.000 C 
ATOM     14  C   UNL     1      -1.981  14.498  20.616  0.00  0.00    +0.000 C 
ATOM     15  O   UNL     1      -3.223  13.792  20.894  0.00  0.00    +0.000 OA
ATOM     16  C   UNL     1      -2.467  12.543  20.884  0.00  0.00    +0.000 C 
ATOM     17  C   UNL     1      -0.939  13.240  22.780  0.00  0.00    +0.000 C 
ATOM     18  O   UNL     1      -0.699  11.848  23.128  0.00  0.00    +0.000 OA
ATOM     19  H   UNL     1       1.234  16.440  19.082  0.00  0.00    +0.000 HD
ATOM     20  H   UNL     1       0.032  15.816  18.079  0.00  0.00    +0.000 HD
ENDROOT
BRANCH   1  25
ATOM     21  C   UNL     1       2.905   6.056  19.104  0.00  0.00    +0.000 A 
ATOM     22  C   UNL     1       3.152   6.489  17.808  0.00  0.00    +0.000 A 
ATOM     23  N   UNL     1       2.794   7.703  17.341  0.00  0.00    +0.000 NA
ATOM     24  C   UNL     1       2.151   8.518  18.218  0.00  0.00    +0.000 A 
ATOM     25  C   UNL     1       1.845   8.206  19.551  0.00  0.00    +0.000 A 
ATOM     26  C   UNL     1       2.245   6.928  19.978  0.00  0.00    +0.000 A 
BRANCH  21  29
ATOM     27  C   UNL     1       4.108   2.277  20.098  0.00  0.00    +0.000 C 
ATOM     28  C   UNL     1       3.657   3.627  19.793  0.00  0.00    +0.000 C 
ATOM     29  C   UNL     1       3.303   4.739  19.505  0.00  0.00    +0.000 C 
ENDBRANCH  21  29
ENDBRANCH   1  25
BRANCH  17  30
ATOM     30  C   UNL     1      -2.067  13.871  23.634  0.00  0.00    +0.000 C 
BRANCH  30  31
ATOM     31  C   UNL     1      -1.595  15.121  24.353  0.00  0.00    +0.000 A 
ATOM     32  C   UNL     1      -0.818  16.091  23.702  0.00  0.00    +0.000 A 
ATOM     33  C   UNL     1      -0.280  17.162  24.420  0.00  0.00    +0.000 A 
ATOM     34  C   UNL     1      -0.526  17.280  25.788  0.00  0.00    +0.000 A 
ATOM     35  C   UNL     1      -1.348  16.357  26.428  0.00  0.00    +0.000 A 
ATOM     36  C   UNL     1      -1.889  15.290  25.711  0.00  0.00    +0.000 A 
ENDBRANCH  30  31
ENDBRANCH  17  30
TORSDOF 4
ENDMDL
