MODEL 1
REMARK VINA RESULT:      -6.8      0.000      0.000
REMARK  Name = 
REMARK  8 active torsions:
REMARK  status: ('A' for Active; 'I' for Inactive)
REMARK    1  A    between atoms: C_1  and  C_2
REMARK    2  A    between atoms: C_2  and  N_3
REMARK    3  A    between atoms: N_3  and  C_4
REMARK    4  A    between atoms: C_4  and  C_5
REMARK    5  A    between atoms: C_6  and  C_8
REMARK    6  A    between atoms: C_8  and  N_9
REMARK    7  A    between atoms: C_15  and  C_16
REMARK    8  A    between atoms: C_15  and  C_17
REMARK                            x       y       z     vdW  Elec       q    Type
REMARK                         _______ _______ _______ _____ _____    ______ ____
ROOT
ATOM      1  N   UNL     1      -2.942  12.233  19.834  0.00  0.00    +0.000 N 
ATOM      2  C   UNL     1      -1.909  11.744  20.631  0.00  0.00    +0.000 C 
ATOM      3  O   UNL     1      -1.617  12.146  21.756  0.00  0.00    +0.000 OA
ATOM      4  C   UNL     1      -1.155  10.616  19.797  0.00  0.00    +0.000 C 
ATOM      5  O   UNL     1      -1.255   9.306  20.337  0.00  0.00    +0.000 OA
ATOM      6  C   UNL     1      -0.405   9.126  21.469  0.00  0.00    +0.000 C 
ATOM      7  C   UNL     1       1.075   9.385  21.100  0.00  0.00    +0.000 C 
ATOM      8  C   UNL     1       1.936   9.311  22.373  0.00  0.00    +0.000 C 
ATOM      9  C   UNL     1       1.071  10.836  20.562  0.00  0.00    +0.000 C 
ATOM     10  O   UNL     1       0.181  10.975  19.455  0.00  0.00    +0.000 OA
ATOM     11  C   UNL     1      -1.965  10.639  18.515  0.00  0.00    +0.000 A 
ATOM     12  C   UNL     1      -1.800   9.888  17.358  0.00  0.00    +0.000 A 
ATOM     13  C   UNL     1      -2.683  10.096  16.294  0.00  0.00    +0.000 A 
ATOM     14  C   UNL     1      -3.722  11.037  16.398  0.00  0.00    +0.000 A 
ATOM     15  C   UNL     1      -3.885  11.788  17.563  0.00  0.00    +0.000 A 
ATOM     16  C   UNL     1      -2.994  11.579  18.603  0.00  0.00    +0.000 A 
ENDROOT
BRANCH   7  17
ATOM     17  C   UNL     1       1.631   8.377  20.066  0.00  0.00    +0.000 A 
ATOM     18  C   UNL     1       1.871   7.034  20.413  0.00  0.00    +0.000 A 
ATOM     19  C   UNL     1       2.449   6.136  19.510  0.00  0.00    +0.000 A 
ATOM     20  C   UNL     1       2.772   6.550  18.224  0.00  0.00    +0.000 A 
ATOM     21  C   UNL     1       2.493   7.855  17.835  0.00  0.00    +0.000 A 
ATOM     22  C   UNL     1       1.921   8.754  18.743  0.00  0.00    +0.000 A 
ENDBRANCH   7  17
BRANCH   1  23
ATOM     23  C   UNL     1      -3.839  13.274  20.258  0.00  0.00    +0.000 C 
BRANCH  23  25
ATOM     24  N   UNL     1      -4.702  13.527  22.587  0.00  0.00    +0.000 N 
ATOM     25  C   UNL     1      -4.802  12.824  21.372  0.00  0.00    +0.000 C 
ATOM     26  O   UNL     1      -5.593  11.892  21.219  0.00  0.00    +0.000 OA
BRANCH  24  28
ATOM     27  C   UNL     1      -4.582  12.348  24.785  0.00  0.00    +0.000 C 
ATOM     28  C   UNL     1      -5.459  13.003  23.726  0.00  0.00    +0.000 C 
ENDBRANCH  24  28
BRANCH  24  29
ATOM     29  C   UNL     1      -3.796  14.672  22.725  0.00  0.00    +0.000 C 
ATOM     30  C   UNL     1      -4.238  15.870  23.546  0.00  0.00    +0.000 C 
ENDBRANCH  24  29
ENDBRANCH  23  25
ENDBRANCH   1  23
TORSDOF 5
ENDMDL
MODEL 2
REMARK VINA RESULT:      -6.5      1.249      1.661
REMARK  Name = 
REMARK  8 active torsions:
REMARK  status: ('A' for Active; 'I' for Inactive)
REMARK    1  A    between atoms: C_1  and  C_2
REMARK    2  A    between atoms: C_2  and  N_3
REMARK    3  A    between atoms: N_3  and  C_4
REMARK    4  A    between atoms: C_4  and  C_5
REMARK    5  A    between atoms: C_6  and  C_8
REMARK    6  A    between atoms: C_8  and  N_9
REMARK    7  A    between atoms: C_15  and  C_16
REMARK    8  A    between atoms: C_15  and  C_17
REMARK                            x       y       z     vdW  Elec       q    Type
REMARK                         _______ _______ _______ _____ _____    ______ ____
ROOT
ATOM      1  N   UNL     1      -2.802  12.284  20.038  0.00  0.00    +0.000 N 
ATOM      2  C   UNL     1      -1.762  11.761  20.801  0.00  0.00    +0.000 C 
ATOM      3  O   UNL     1      -1.423  12.149  21.919  0.00  0.00    +0.000 OA
ATOM      4  C   UNL     1      -1.067  10.615  19.941  0.00  0.00    +0.000 C 
ATOM      5  O   UNL     1      -1.191   9.306  20.480  0.00  0.00    +0.000 OA
ATOM      6  C   UNL     1      -0.313   9.096  21.585  0.00  0.00    +0.000 C 
ATOM      7  C   UNL     1       1.163   9.312  21.172  0.00  0.00    +0.000 C 
ATOM      8  C   UNL     1       2.059   9.206  22.418  0.00  0.00    +0.000 C 
ATOM      9  C   UNL     1       1.187  10.765  20.640  0.00  0.00    +0.000 C 
ATOM     10  O   UNL     1       0.268  10.935  19.560  0.00  0.00    +0.000 OA
ATOM     11  C   UNL     1      -1.915  10.667  18.685  0.00  0.00    +0.000 A 
ATOM     12  C   UNL     1      -1.807   9.918  17.521  0.00  0.00    +0.000 A 
ATOM     13  C   UNL     1      -2.716  10.156  16.485  0.00  0.00    +0.000 A 
ATOM     14  C   UNL     1      -3.722  11.127  16.623  0.00  0.00    +0.000 A 
ATOM     15  C   UNL     1      -3.827  11.878  17.796  0.00  0.00    +0.000 A 
ATOM     16  C   UNL     1      -2.912  11.638  18.808  0.00  0.00    +0.000 A 
ENDROOT
BRANCH   7  17
ATOM     17  C   UNL     1       1.656   8.292  20.118  0.00  0.00    +0.000 A 
ATOM     18  C   UNL     1       1.845   6.936  20.447  0.00  0.00    +0.000 A 
ATOM     19  C   UNL     1       2.368   6.024  19.525  0.00  0.00    +0.000 A 
ATOM     20  C   UNL     1       2.685   6.438  18.237  0.00  0.00    +0.000 A 
ATOM     21  C   UNL     1       2.455   7.757  17.867  0.00  0.00    +0.000 A 
ATOM     22  C   UNL     1       1.939   8.671  18.793  0.00  0.00    +0.000 A 
ENDBRANCH   7  17
BRANCH   1  23
ATOM     23  C   UNL     1      -3.655  13.350  20.493  0.00  0.00    +0.000 C 
BRANCH  23  25
ATOM     24  N   UNL     1      -6.112  13.143  20.879  0.00  0.00    +0.000 N 
ATOM     25  C   UNL     1      -4.823  12.857  21.366  0.00  0.00    +0.000 C 
ATOM     26  O   UNL     1      -4.643  12.271  22.434  0.00  0.00    +0.000 OA
BRANCH  24  28
ATOM     27  C   UNL     1      -7.916  11.530  21.494  0.00  0.00    +0.000 C 
ATOM     28  C   UNL     1      -7.240  12.865  21.772  0.00  0.00    +0.000 C 
ENDBRANCH  24  28
BRANCH  24  29
ATOM     29  C   UNL     1      -6.302  13.788  19.575  0.00  0.00    +0.000 C 
ATOM     30  C   UNL     1      -7.372  14.854  19.427  0.00  0.00    +0.000 C 
ENDBRANCH  24  29
ENDBRANCH  23  25
ENDBRANCH   1  23
TORSDOF 5
ENDMDL
MODEL 3
REMARK VINA RESULT:      -6.4      2.103      7.538
REMARK  Name = 
REMARK  8 active torsions:
REMARK  status: ('A' for Active; 'I' for Inactive)
REMARK    1  A    between atoms: C_1  and  C_2
REMARK    2  A    between atoms: C_2  and  N_3
REMARK    3  A    between atoms: N_3  and  C_4
REMARK    4  A    between atoms: C_4  and  C_5
REMARK    5  A    between atoms: C_6  and  C_8
REMARK    6  A    between atoms: C_8  and  N_9
REMARK    7  A    between atoms: C_15  and  C_16
REMARK    8  A    between atoms: C_15  and  C_17
REMARK                            x       y       z     vdW  Elec       q    Type
REMARK                         _______ _______ _______ _____ _____    ______ ____
ROOT
ATOM      1  N   UNL     1       0.282  10.588  19.278  0.00  0.00    +0.000 N 
ATOM      2  C   UNL     1       0.249  11.429  20.387  0.00  0.00    +0.000 C 
ATOM      3  O   UNL     1       1.174  11.614  21.177  0.00  0.00    +0.000 OA
ATOM      4  C   UNL     1      -1.212  12.058  20.467  0.00  0.00    +0.000 C 
ATOM      5  O   UNL     1      -1.270  13.464  20.271  0.00  0.00    +0.000 OA
ATOM      6  C   UNL     1      -0.828  14.184  21.421  0.00  0.00    +0.000 C 
ATOM      7  C   UNL     1      -1.686  13.833  22.660  0.00  0.00    +0.000 C 
ATOM      8  C   UNL     1      -1.095  14.527  23.900  0.00  0.00    +0.000 C 
ATOM      9  C   UNL     1      -1.522  12.300  22.799  0.00  0.00    +0.000 C 
ATOM     10  O   UNL     1      -1.943  11.626  21.612  0.00  0.00    +0.000 OA
ATOM     11  C   UNL     1      -1.854  11.407  19.257  0.00  0.00    +0.000 A 
ATOM     12  C   UNL     1      -3.152  11.529  18.779  0.00  0.00    +0.000 A 
ATOM     13  C   UNL     1      -3.513  10.816  17.632  0.00  0.00    +0.000 A 
ATOM     14  C   UNL     1      -2.578   9.999  16.972  0.00  0.00    +0.000 A 
ATOM     15  C   UNL     1      -1.274   9.879  17.456  0.00  0.00    +0.000 A 
ATOM     16  C   UNL     1      -0.937  10.584  18.600  0.00  0.00    +0.000 A 
ENDROOT
BRANCH   7  17
ATOM     17  C   UNL     1      -3.168  14.254  22.515  0.00  0.00    +0.000 A 
ATOM     18  C   UNL     1      -3.526  15.456  21.875  0.00  0.00    +0.000 A 
ATOM     19  C   UNL     1      -4.855  15.885  21.811  0.00  0.00    +0.000 A 
ATOM     20  C   UNL     1      -5.867  15.106  22.358  0.00  0.00    +0.000 A 
ATOM     21  C   UNL     1      -5.549  13.886  22.945  0.00  0.00    +0.000 A 
ATOM     22  C   UNL     1      -4.218  13.462  23.014  0.00  0.00    +0.000 A 
ENDBRANCH   7  17
BRANCH   1  23
ATOM     23  C   UNL     1       1.448   9.839  18.891  0.00  0.00    +0.000 C 
BRANCH  23  25
ATOM     24  N   UNL     1       2.400   7.537  19.060  0.00  0.00    +0.000 N 
ATOM     25  C   UNL     1       1.607   8.524  19.675  0.00  0.00    +0.000 C 
ATOM     26  O   UNL     1       1.057   8.336  20.762  0.00  0.00    +0.000 OA
BRANCH  24  28
ATOM     27  C   UNL     1       1.781   5.131  18.810  0.00  0.00    +0.000 C 
ATOM     28  C   UNL     1       2.414   6.209  19.679  0.00  0.00    +0.000 C 
ENDBRANCH  24  28
BRANCH  24  29
ATOM     29  C   UNL     1       3.094   7.806  17.796  0.00  0.00    +0.000 C 
ATOM     30  C   UNL     1       4.283   6.945  17.408  0.00  0.00    +0.000 C 
ENDBRANCH  24  29
ENDBRANCH  23  25
ENDBRANCH   1  23
TORSDOF 5
ENDMDL
MODEL 4
REMARK VINA RESULT:      -6.1      2.341      7.549
REMARK  Name = 
REMARK  8 active torsions:
REMARK  status: ('A' for Active; 'I' for Inactive)
REMARK    1  A    between atoms: C_1  and  C_2
REMARK    2  A    between atoms: C_2  and  N_3
REMARK    3  A    between atoms: N_3  and  C_4
REMARK    4  A    between atoms: C_4  and  C_5
REMARK    5  A    between atoms: C_6  and  C_8
REMARK    6  A    between atoms: C_8  and  N_9
REMARK    7  A    between atoms: C_15  and  C_16
REMARK    8  A    between atoms: C_15  and  C_17
REMARK                            x       y       z     vdW  Elec       q    Type
REMARK                         _______ _______ _______ _____ _____    ______ ____
ROOT
ATOM      1  N   UNL     1       0.357  10.710  18.775  0.00  0.00    +0.000 N 
ATOM      2  C   UNL     1       0.529  11.757  19.676  0.00  0.00    +0.000 C 
ATOM      3  O   UNL     1       1.576  12.044  20.255  0.00  0.00    +0.000 OA
ATOM      4  C   UNL     1      -0.883  12.472  19.854  0.00  0.00    +0.000 C 
ATOM      5  O   UNL     1      -0.938  13.811  19.381  0.00  0.00    +0.000 OA
ATOM      6  C   UNL     1      -0.294  14.722  20.272  0.00  0.00    +0.000 C 
ATOM      7  C   UNL     1      -0.942  14.677  21.677  0.00  0.00    +0.000 C 
ATOM      8  C   UNL     1      -0.136  15.570  22.636  0.00  0.00    +0.000 C 
ATOM      9  C   UNL     1      -0.795  13.196  22.103  0.00  0.00    +0.000 C 
ATOM     10  O   UNL     1      -1.423  12.323  21.164  0.00  0.00    +0.000 OA
ATOM     11  C   UNL     1      -1.732  11.630  18.922  0.00  0.00    +0.000 A 
ATOM     12  C   UNL     1      -3.089  11.729  18.640  0.00  0.00    +0.000 A 
ATOM     13  C   UNL     1      -3.653  10.821  17.738  0.00  0.00    +0.000 A 
ATOM     14  C   UNL     1      -2.861   9.836  17.123  0.00  0.00    +0.000 A 
ATOM     15  C   UNL     1      -1.498   9.741  17.409  0.00  0.00    +0.000 A 
ATOM     16  C   UNL     1      -0.957  10.640  18.314  0.00  0.00    +0.000 A 
ENDROOT
BRANCH   7  17
ATOM     17  C   UNL     1      -2.417  15.145  21.683  0.00  0.00    +0.000 A 
ATOM     18  C   UNL     1      -3.353  14.597  22.581  0.00  0.00    +0.000 A 
ATOM     19  C   UNL     1      -4.704  14.955  22.540  0.00  0.00    +0.000 A 
ATOM     20  C   UNL     1      -5.149  15.896  21.621  0.00  0.00    +0.000 A 
ATOM     21  C   UNL     1      -4.237  16.497  20.761  0.00  0.00    +0.000 A 
ATOM     22  C   UNL     1      -2.887  16.133  20.798  0.00  0.00    +0.000 A 
ENDBRANCH   7  17
BRANCH   1  23
ATOM     23  C   UNL     1       1.424   9.832  18.374  0.00  0.00    +0.000 C 
BRANCH  23  25
ATOM     24  N   UNL     1       2.422   7.592  18.839  0.00  0.00    +0.000 N 
ATOM     25  C   UNL     1       1.606   8.632  19.321  0.00  0.00    +0.000 C 
ATOM     26  O   UNL     1       1.054   8.574  20.421  0.00  0.00    +0.000 OA
BRANCH  24  28
ATOM     27  C   UNL     1       1.994   5.132  18.847  0.00  0.00    +0.000 C 
ATOM     28  C   UNL     1       2.460   6.355  19.623  0.00  0.00    +0.000 C 
ENDBRANCH  24  28
BRANCH  24  29
ATOM     29  C   UNL     1       3.117   7.710  17.552  0.00  0.00    +0.000 C 
ATOM     30  C   UNL     1       4.484   7.071  17.390  0.00  0.00    +0.000 C 
ENDBRANCH  24  29
ENDBRANCH  23  25
ENDBRANCH   1  23
TORSDOF 5
ENDMDL
MODEL 5
REMARK VINA RESULT:      -6.1      3.012      4.353
REMARK  Name = 
REMARK  8 active torsions:
REMARK  status: ('A' for Active; 'I' for Inactive)
REMARK    1  A    between atoms: C_1  and  C_2
REMARK    2  A    between atoms: C_2  and  N_3
REMARK    3  A    between atoms: N_3  and  C_4
REMARK    4  A    between atoms: C_4  and  C_5
REMARK    5  A    between atoms: C_6  and  C_8
REMARK    6  A    between atoms: C_8  and  N_9
REMARK    7  A    between atoms: C_15  and  C_16
REMARK    8  A    between atoms: C_15  and  C_17
REMARK                            x       y       z     vdW  Elec       q    Type
REMARK                         _______ _______ _______ _____ _____    ______ ____
ROOT
ATOM      1  N   UNL     1       0.037  14.573  21.095  0.00  0.00    +0.000 N 
ATOM      2  C   UNL     1      -0.304  13.262  21.417  0.00  0.00    +0.000 C 
ATOM      3  O   UNL     1      -1.105  12.919  22.286  0.00  0.00    +0.000 OA
ATOM      4  C   UNL     1       0.569  12.300  20.495  0.00  0.00    +0.000 C 
ATOM      5  O   UNL     1      -0.176  11.528  19.563  0.00  0.00    +0.000 OA
ATOM      6  C   UNL     1      -0.841  10.430  20.187  0.00  0.00    +0.000 C 
ATOM      7  C   UNL     1       0.171   9.495  20.892  0.00  0.00    +0.000 C 
ATOM      8  C   UNL     1      -0.595   8.404  21.660  0.00  0.00    +0.000 C 
ATOM      9  C   UNL     1       0.893  10.425  21.897  0.00  0.00    +0.000 C 
ATOM     10  O   UNL     1       1.511  11.526  21.231  0.00  0.00    +0.000 OA
ATOM     11  C   UNL     1       1.355  13.327  19.702  0.00  0.00    +0.000 A 
ATOM     12  C   UNL     1       2.324  13.128  18.726  0.00  0.00    +0.000 A 
ATOM     13  C   UNL     1       2.918  14.248  18.136  0.00  0.00    +0.000 A 
ATOM     14  C   UNL     1       2.536  15.546  18.516  0.00  0.00    +0.000 A 
ATOM     15  C   UNL     1       1.562  15.741  19.497  0.00  0.00    +0.000 A 
ATOM     16  C   UNL     1       0.992  14.621  20.080  0.00  0.00    +0.000 A 
ENDROOT
BRANCH   7  17
ATOM     17  C   UNL     1       1.156   8.814  19.912  0.00  0.00    +0.000 A 
ATOM     18  C   UNL     1       1.404   9.351  18.635  0.00  0.00    +0.000 A 
ATOM     19  C   UNL     1       2.228   8.700  17.713  0.00  0.00    +0.000 A 
ATOM     20  C   UNL     1       2.854   7.508  18.056  0.00  0.00    +0.000 A 
ATOM     21  C   UNL     1       2.673   6.983  19.330  0.00  0.00    +0.000 A 
ATOM     22  C   UNL     1       1.842   7.633  20.249  0.00  0.00    +0.000 A 
ENDBRANCH   7  17
BRANCH   1  23
ATOM     23  C   UNL     1      -0.551  15.720  21.736  0.00  0.00    +0.000 C 
BRANCH  23  25
ATOM     24  N   UNL     1      -0.890  16.050  24.186  0.00  0.00    +0.000 N 
ATOM     25  C   UNL     1       0.039  16.000  23.130  0.00  0.00    +0.000 C 
ATOM     26  O   UNL     1       1.243  16.191  23.308  0.00  0.00    +0.000 OA
BRANCH  24  28
ATOM     27  C   UNL     1      -0.788  17.938  25.816  0.00  0.00    +0.000 C 
ATOM     28  C   UNL     1      -0.396  16.505  25.488  0.00  0.00    +0.000 C 
ENDBRANCH  24  28
BRANCH  24  29
ATOM     29  C   UNL     1      -2.309  15.758  23.959  0.00  0.00    +0.000 C 
ATOM     30  C   UNL     1      -3.083  14.991  25.016  0.00  0.00    +0.000 C 
ENDBRANCH  24  29
ENDBRANCH  23  25
ENDBRANCH   1  23
TORSDOF 5
ENDMDL
MODEL 6
REMARK VINA RESULT:      -6.1      5.327      8.246
REMARK  Name = 
REMARK  8 active torsions:
REMARK  status: ('A' for Active; 'I' for Inactive)
REMARK    1  A    between atoms: C_1  and  C_2
REMARK    2  A    between atoms: C_2  and  N_3
REMARK    3  A    between atoms: N_3  and  C_4
REMARK    4  A    between atoms: C_4  and  C_5
REMARK    5  A    between atoms: C_6  and  C_8
REMARK    6  A    between atoms: C_8  and  N_9
REMARK    7  A    between atoms: C_15  and  C_16
REMARK    8  A    between atoms: C_15  and  C_17
REMARK                            x       y       z     vdW  Elec       q    Type
REMARK                         _______ _______ _______ _____ _____    ______ ____
ROOT
ATOM      1  N   UNL     1       2.446  15.654  18.149  0.00  0.00    +0.000 N 
ATOM      2  C   UNL     1       2.156  14.414  18.713  0.00  0.00    +0.000 C 
ATOM      3  O   UNL     1       2.923  13.454  18.773  0.00  0.00    +0.000 OA
ATOM      4  C   UNL     1       0.644  14.457  19.213  0.00  0.00    +0.000 C 
ATOM      5  O   UNL     1       0.477  14.357  20.620  0.00  0.00    +0.000 OA
ATOM      6  C   UNL     1       0.660  13.021  21.088  0.00  0.00    +0.000 C 
ATOM      7  C   UNL     1      -0.340  12.053  20.412  0.00  0.00    +0.000 C 
ATOM      8  C   UNL     1      -0.021  10.611  20.843  0.00  0.00    +0.000 C 
ATOM      9  C   UNL     1      -0.046  12.218  18.901  0.00  0.00    +0.000 C 
ATOM     10  O   UNL     1      -0.208  13.575  18.488  0.00  0.00    +0.000 OA
ATOM     11  C   UNL     1       0.267  15.871  18.813  0.00  0.00    +0.000 A 
ATOM     12  C   UNL     1      -0.947  16.530  18.958  0.00  0.00    +0.000 A 
ATOM     13  C   UNL     1      -1.051  17.847  18.501  0.00  0.00    +0.000 A 
ATOM     14  C   UNL     1       0.052  18.493  17.916  0.00  0.00    +0.000 A 
ATOM     15  C   UNL     1       1.270  17.827  17.773  0.00  0.00    +0.000 A 
ATOM     16  C   UNL     1       1.353  16.518  18.220  0.00  0.00    +0.000 A 
ENDROOT
BRANCH   7  17
ATOM     17  C   UNL     1      -1.816  12.360  20.760  0.00  0.00    +0.000 A 
ATOM     18  C   UNL     1      -2.215  12.617  22.085  0.00  0.00    +0.000 A 
ATOM     19  C   UNL     1      -3.558  12.815  22.421  0.00  0.00    +0.000 A 
ATOM     20  C   UNL     1      -4.535  12.794  21.434  0.00  0.00    +0.000 A 
ATOM     21  C   UNL     1      -4.163  12.601  20.109  0.00  0.00    +0.000 A 
ATOM     22  C   UNL     1      -2.820  12.395  19.775  0.00  0.00    +0.000 A 
ENDBRANCH   7  17
BRANCH   1  23
ATOM     23  C   UNL     1       3.727  15.982  17.582  0.00  0.00    +0.000 C 
BRANCH  23  25
ATOM     24  N   UNL     1       5.954  15.800  18.693  0.00  0.00    +0.000 N 
ATOM     25  C   UNL     1       4.734  16.497  18.626  0.00  0.00    +0.000 C 
ATOM     26  O   UNL     1       4.480  17.444  19.372  0.00  0.00    +0.000 OA
BRANCH  24  28
ATOM     27  C   UNL     1       7.871  17.211  19.449  0.00  0.00    +0.000 C 
ATOM     28  C   UNL     1       6.854  16.134  19.800  0.00  0.00    +0.000 C 
ENDBRANCH  24  28
BRANCH  24  29
ATOM     29  C   UNL     1       6.258  14.716  17.753  0.00  0.00    +0.000 C 
ATOM     30  C   UNL     1       7.558  13.947  17.908  0.00  0.00    +0.000 C 
ENDBRANCH  24  29
ENDBRANCH  23  25
ENDBRANCH   1  23
TORSDOF 5
ENDMDL
MODEL 7
REMARK VINA RESULT:      -6.1      3.391      7.614
REMARK  Name = 
REMARK  8 active torsions:
REMARK  status: ('A' for Active; 'I' for Inactive)
REMARK    1  A    between atoms: C_1  and  C_2
REMARK    2  A    between atoms: C_2  and  N_3
REMARK    3  A    between atoms: N_3  and  C_4
REMARK    4  A    between atoms: C_4  and  C_5
REMARK    5  A    between atoms: C_6  and  C_8
REMARK    6  A    between atoms: C_8  and  N_9
REMARK    7  A    between atoms: C_15  and  C_16
REMARK    8  A    between atoms: C_15  and  C_17
REMARK                            x       y       z     vdW  Elec       q    Type
REMARK                         _______ _______ _______ _____ _____    ______ ____
ROOT
ATOM      1  N   UNL     1       0.398  10.117  19.888  0.00  0.00    +0.000 N 
ATOM      2  C   UNL     1       0.851  11.297  20.473  0.00  0.00    +0.000 C 
ATOM      3  O   UNL     1       1.641  11.377  21.413  0.00  0.00    +0.000 OA
ATOM      4  C   UNL     1       0.118  12.506  19.740  0.00  0.00    +0.000 C 
ATOM      5  O   UNL     1       0.976  13.364  19.000  0.00  0.00    +0.000 OA
ATOM      6  C   UNL     1       1.716  14.243  19.847  0.00  0.00    +0.000 C 
ATOM      7  C   UNL     1       0.769  15.122  20.698  0.00  0.00    +0.000 C 
ATOM      8  C   UNL     1       1.602  15.955  21.687  0.00  0.00    +0.000 C 
ATOM      9  C   UNL     1      -0.085  14.094  21.479  0.00  0.00    +0.000 C 
ATOM     10  O   UNL     1      -0.777  13.216  20.592  0.00  0.00    +0.000 OA
ATOM     11  C   UNL     1      -0.728  11.743  18.739  0.00  0.00    +0.000 A 
ATOM     12  C   UNL     1      -1.628  12.229  17.799  0.00  0.00    +0.000 A 
ATOM     13  C   UNL     1      -2.301  11.315  16.982  0.00  0.00    +0.000 A 
ATOM     14  C   UNL     1      -2.065   9.935  17.105  0.00  0.00    +0.000 A 
ATOM     15  C   UNL     1      -1.160   9.451  18.051  0.00  0.00    +0.000 A 
ATOM     16  C   UNL     1      -0.510  10.369  18.860  0.00  0.00    +0.000 A 
ENDROOT
BRANCH   7  17
ATOM     17  C   UNL     1      -0.099  16.081  19.850  0.00  0.00    +0.000 A 
ATOM     18  C   UNL     1       0.349  16.565  18.605  0.00  0.00    +0.000 A 
ATOM     19  C   UNL     1      -0.391  17.494  17.870  0.00  0.00    +0.000 A 
ATOM     20  C   UNL     1      -1.618  17.942  18.344  0.00  0.00    +0.000 A 
ATOM     21  C   UNL     1      -2.113  17.439  19.541  0.00  0.00    +0.000 A 
ATOM     22  C   UNL     1      -1.367  16.514  20.280  0.00  0.00    +0.000 A 
ENDBRANCH   7  17
BRANCH   1  23
ATOM     23  C   UNL     1       0.842   8.812  20.301  0.00  0.00    +0.000 C 
BRANCH  23  25
ATOM     24  N   UNL     1       2.291   6.887  19.651  0.00  0.00    +0.000 N 
ATOM     25  C   UNL     1       1.883   8.199  19.348  0.00  0.00    +0.000 C 
ATOM     26  O   UNL     1       2.348   8.824  18.394  0.00  0.00    +0.000 OA
BRANCH  24  28
ATOM     27  C   UNL     1       2.990   5.483  17.707  0.00  0.00    +0.000 C 
ATOM     28  C   UNL     1       3.417   6.344  18.887  0.00  0.00    +0.000 C 
ENDBRANCH  24  28
BRANCH  24  29
ATOM     29  C   UNL     1       1.677   6.141  20.755  0.00  0.00    +0.000 C 
ATOM     30  C   UNL     1       1.738   4.624  20.745  0.00  0.00    +0.000 C 
ENDBRANCH  24  29
ENDBRANCH  23  25
ENDBRANCH   1  23
TORSDOF 5
ENDMDL
MODEL 8
REMARK VINA RESULT:      -6.0      1.135      1.583
REMARK  Name = 
REMARK  8 active torsions:
REMARK  status: ('A' for Active; 'I' for Inactive)
REMARK    1  A    between atoms: C_1  and  C_2
REMARK    2  A    between atoms: C_2  and  N_3
REMARK    3  A    between atoms: N_3  and  C_4
REMARK    4  A    between atoms: C_4  and  C_5
REMARK    5  A    between atoms: C_6  and  C_8
REMARK    6  A    between atoms: C_8  and  N_9
REMARK    7  A    between atoms: C_15  and  C_16
REMARK    8  A    between atoms: C_15  and  C_17
REMARK                            x       y       z     vdW  Elec       q    Type
REMARK                         _______ _______ _______ _____ _____    ______ ____
ROOT
ATOM      1  N   UNL     1      -3.111  12.218  19.476  0.00  0.00    +0.000 N 
ATOM      2  C   UNL     1      -2.107  11.771  20.331  0.00  0.00    +0.000 C 
ATOM      3  O   UNL     1      -1.883  12.198  21.463  0.00  0.00    +0.000 OA
ATOM      4  C   UNL     1      -1.283  10.650  19.556  0.00  0.00    +0.000 C 
ATOM      5  O   UNL     1      -1.376   9.347  20.113  0.00  0.00    +0.000 OA
ATOM      6  C   UNL     1      -0.580   9.208  21.289  0.00  0.00    +0.000 C 
ATOM      7  C   UNL     1       0.910   9.501  20.990  0.00  0.00    +0.000 C 
ATOM      8  C   UNL     1       1.707   9.470  22.306  0.00  0.00    +0.000 C 
ATOM      9  C   UNL     1       0.895  10.943  20.428  0.00  0.00    +0.000 C 
ATOM     10  O   UNL     1       0.059  11.039  19.275  0.00  0.00    +0.000 OA
ATOM     11  C   UNL     1      -2.028  10.631  18.235  0.00  0.00    +0.000 A 
ATOM     12  C   UNL     1      -1.785   9.867  17.101  0.00  0.00    +0.000 A 
ATOM     13  C   UNL     1      -2.619  10.033  15.991  0.00  0.00    +0.000 A 
ATOM     14  C   UNL     1      -3.685  10.948  16.026  0.00  0.00    +0.000 A 
ATOM     15  C   UNL     1      -3.927  11.713  17.169  0.00  0.00    +0.000 A 
ATOM     16  C   UNL     1      -3.084  11.544  18.256  0.00  0.00    +0.000 A 
ENDROOT
BRANCH   7  17
ATOM     17  C   UNL     1       1.543   8.492  20.003  0.00  0.00    +0.000 A 
ATOM     18  C   UNL     1       1.846   7.175  20.398  0.00  0.00    +0.000 A 
ATOM     19  C   UNL     1       2.492   6.282  19.539  0.00  0.00    +0.000 A 
ATOM     20  C   UNL     1       2.824   6.671  18.248  0.00  0.00    +0.000 A 
ATOM     21  C   UNL     1       2.485   7.946  17.810  0.00  0.00    +0.000 A 
ATOM     22  C   UNL     1       1.845   8.842  18.674  0.00  0.00    +0.000 A 
ENDBRANCH   7  17
BRANCH   1  23
ATOM     23  C   UNL     1      -4.056  13.242  19.837  0.00  0.00    +0.000 C 
BRANCH  23  25
ATOM     24  N   UNL     1      -6.041  12.433  21.115  0.00  0.00    +0.000 N 
ATOM     25  C   UNL     1      -5.511  12.742  19.849  0.00  0.00    +0.000 C 
ATOM     26  O   UNL     1      -6.165  12.598  18.814  0.00  0.00    +0.000 OA
BRANCH  24  28
ATOM     27  C   UNL     1      -7.317  10.344  20.623  0.00  0.00    +0.000 C 
ATOM     28  C   UNL     1      -7.348  11.772  21.150  0.00  0.00    +0.000 C 
ENDBRANCH  24  28
BRANCH  24  29
ATOM     29  C   UNL     1      -5.264  12.670  22.337  0.00  0.00    +0.000 C 
ATOM     30  C   UNL     1      -5.999  12.920  23.642  0.00  0.00    +0.000 C 
ENDBRANCH  24  29
ENDBRANCH  23  25
ENDBRANCH   1  23
TORSDOF 5
ENDMDL
MODEL 9
REMARK VINA RESULT:      -6.0      5.141      7.737
REMARK  Name = 
REMARK  8 active torsions:
REMARK  status: ('A' for Active; 'I' for Inactive)
REMARK    1  A    between atoms: C_1  and  C_2
REMARK    2  A    between atoms: C_2  and  N_3
REMARK    3  A    between atoms: N_3  and  C_4
REMARK    4  A    between atoms: C_4  and  C_5
REMARK    5  A    between atoms: C_6  and  C_8
REMARK    6  A    between atoms: C_8  and  N_9
REMARK    7  A    between atoms: C_15  and  C_16
REMARK    8  A    between atoms: C_15  and  C_17
REMARK                            x       y       z     vdW  Elec       q    Type
REMARK                         _______ _______ _______ _____ _____    ______ ____
ROOT
ATOM      1  N   UNL     1       2.738  15.692  20.317  0.00  0.00    +0.000 N 
ATOM      2  C   UNL     1       2.511  14.333  20.518  0.00  0.00    +0.000 C 
ATOM      3  O   UNL     1       3.271  13.553  21.090  0.00  0.00    +0.000 OA
ATOM      4  C   UNL     1       1.121  13.974  19.827  0.00  0.00    +0.000 C 
ATOM      5  O   UNL     1       0.097  13.566  20.723  0.00  0.00    +0.000 OA
ATOM      6  C   UNL     1       0.286  12.228  21.182  0.00  0.00    +0.000 C 
ATOM      7  C   UNL     1       0.318  11.233  19.997  0.00  0.00    +0.000 C 
ATOM      8  C   UNL     1       0.656   9.827  20.523  0.00  0.00    +0.000 C 
ATOM      9  C   UNL     1       1.480  11.748  19.115  0.00  0.00    +0.000 C 
ATOM     10  O   UNL     1       1.263  13.100  18.710  0.00  0.00    +0.000 OA
ATOM     11  C   UNL     1       0.730  15.334  19.283  0.00  0.00    +0.000 A 
ATOM     12  C   UNL     1      -0.391  15.696  18.546  0.00  0.00    +0.000 A 
ATOM     13  C   UNL     1      -0.529  17.030  18.150  0.00  0.00    +0.000 A 
ATOM     14  C   UNL     1       0.442  17.985  18.498  0.00  0.00    +0.000 A 
ATOM     15  C   UNL     1       1.566  17.617  19.239  0.00  0.00    +0.000 A 
ATOM     16  C   UNL     1       1.693  16.289  19.613  0.00  0.00    +0.000 A 
ENDROOT
BRANCH   7  17
ATOM     17  C   UNL     1      -1.020  11.165  19.223  0.00  0.00    +0.000 A 
ATOM     18  C   UNL     1      -1.171  10.333  18.096  0.00  0.00    +0.000 A 
ATOM     19  C   UNL     1      -2.348  10.325  17.343  0.00  0.00    +0.000 A 
ATOM     20  C   UNL     1      -3.421  11.125  17.715  0.00  0.00    +0.000 A 
ATOM     21  C   UNL     1      -3.322  11.913  18.856  0.00  0.00    +0.000 A 
ATOM     22  C   UNL     1      -2.140  11.925  19.605  0.00  0.00    +0.000 A 
ENDBRANCH   7  17
BRANCH   1  23
ATOM     23  C   UNL     1       3.909  16.375  20.801  0.00  0.00    +0.000 C 
BRANCH  23  25
ATOM     24  N   UNL     1       6.189  15.827  19.946  0.00  0.00    +0.000 N 
ATOM     25  C   UNL     1       4.997  16.542  19.725  0.00  0.00    +0.000 C 
ATOM     26  O   UNL     1       4.845  17.272  18.745  0.00  0.00    +0.000 OA
BRANCH  24  28
ATOM     27  C   UNL     1       7.517  15.051  17.978  0.00  0.00    +0.000 C 
ATOM     28  C   UNL     1       7.314  16.111  19.052  0.00  0.00    +0.000 C 
ENDBRANCH  24  28
BRANCH  24  29
ATOM     29  C   UNL     1       6.324  14.916  21.088  0.00  0.00    +0.000 C 
ATOM     30  C   UNL     1       7.652  14.839  21.819  0.00  0.00    +0.000 C 
ENDBRANCH  24  29
ENDBRANCH  23  25
ENDBRANCH   1  23
TORSDOF 5
ENDMDL
