MODEL 1
REMARK VINA RESULT:      -8.1      0.000      0.000
REMARK  Name = 
REMARK  5 active torsions:
REMARK  status: ('A' for Active; 'I' for Inactive)
REMARK    1  A    between atoms: C_2  and  C_3
REMARK    2  A    between atoms: C_2  and  C_10
REMARK    3  A    between atoms: C_18  and  C_19
REMARK    4  A    between atoms: C_19  and  S_20
REMARK    5  A    between atoms: S_20  and  C_22
REMARK                            x       y       z     vdW  Elec       q    Type
REMARK                         _______ _______ _______ _____ _____    ______ ____
ROOT
ATOM      1  C   UNL     1       4.187   4.317  18.336  0.00  0.00    +0.000 A 
ATOM      2  O   UNL     1       4.495   3.342  19.241  0.00  0.00    +0.000 OA
ATOM      3  C   UNL     1       3.418   3.172  20.045  0.00  0.00    +0.000 A 
ATOM      4  C   UNL     1       3.332   2.244  21.081  0.00  0.00    +0.000 A 
ATOM      5  C   UNL     1       2.124   2.202  21.777  0.00  0.00    +0.000 A 
ATOM      6  C   UNL     1       1.067   3.050  21.435  0.00  0.00    +0.000 A 
ATOM      7  C   UNL     1       1.190   3.980  20.392  0.00  0.00    +0.000 A 
ATOM      8  C   UNL     1       2.403   4.047  19.681  0.00  0.00    +0.000 A 
ATOM      9  C   UNL     1       2.917   4.825  18.590  0.00  0.00    +0.000 A 
ENDROOT
BRANCH   1  11
ATOM     10  O   UNL     1       5.272   4.068  16.258  0.00  0.00    +0.000 OA
ATOM     11  C   UNL     1       5.176   4.658  17.332  0.00  0.00    +0.000 C 
BRANCH  11  12
ATOM     12  C   UNL     1       6.154   5.747  17.634  0.00  0.00    +0.000 A 
ATOM     13  C   UNL     1       7.122   5.547  18.628  0.00  0.00    +0.000 A 
ATOM     14  C   UNL     1       8.033   6.563  18.933  0.00  0.00    +0.000 A 
ATOM     15  C   UNL     1       7.971   7.782  18.255  0.00  0.00    +0.000 A 
ATOM     16 CL   UNL     1       9.091   9.031  18.630  0.00  0.00    +0.000 Cl
ATOM     17  C   UNL     1       7.000   7.997  17.280  0.00  0.00    +0.000 A 
ATOM     18  C   UNL     1       6.089   6.983  16.972  0.00  0.00    +0.000 A 
ENDBRANCH  11  12
ENDBRANCH   1  11
BRANCH   9  19
ATOM     19  C   UNL     1       2.212   5.918  17.850  0.00  0.00    +0.000 C 
BRANCH  19  20
ATOM     20  S   UNL     1       2.961   7.537  18.220  0.00  0.00    +0.000 S 
ATOM     21  O   UNL     1       2.749   8.476  16.974  0.00  0.00    +0.000 OA
BRANCH  20  22
ATOM     22  C   UNL     1       1.851   8.174  19.509  0.00  0.00    +0.000 A 
ATOM     23  C   UNL     1       1.717   7.575  20.768  0.00  0.00    +0.000 A 
ATOM     24  C   UNL     1       0.880   8.145  21.739  0.00  0.00    +0.000 A 
ATOM     25  C   UNL     1       0.193   9.327  21.465  0.00  0.00    +0.000 A 
ATOM     26 CL   UNL     1      -0.819  10.030  22.663  0.00  0.00    +0.000 Cl
ATOM     27  C   UNL     1       0.334   9.946  20.227  0.00  0.00    +0.000 A 
ATOM     28  C   UNL     1       1.159   9.369  19.256  0.00  0.00    +0.000 A 
ENDBRANCH  20  22
ENDBRANCH  19  20
ENDBRANCH   9  19
TORSDOF 5
ENDMDL
MODEL 2
REMARK VINA RESULT:      -7.9      0.115      1.296
REMARK  Name = 
REMARK  5 active torsions:
REMARK  status: ('A' for Active; 'I' for Inactive)
REMARK    1  A    between atoms: C_2  and  C_3
REMARK    2  A    between atoms: C_2  and  C_10
REMARK    3  A    between atoms: C_18  and  C_19
REMARK    4  A    between atoms: C_19  and  S_20
REMARK    5  A    between atoms: S_20  and  C_22
REMARK                            x       y       z     vdW  Elec       q    Type
REMARK                         _______ _______ _______ _____ _____    ______ ____
ROOT
ATOM      1  C   UNL     1       4.149   4.425  18.332  0.00  0.00    +0.000 A 
ATOM      2  O   UNL     1       4.480   3.439  19.216  0.00  0.00    +0.000 OA
ATOM      3  C   UNL     1       3.411   3.232  20.022  0.00  0.00    +0.000 A 
ATOM      4  C   UNL     1       3.348   2.283  21.040  0.00  0.00    +0.000 A 
ATOM      5  C   UNL     1       2.145   2.204  21.741  0.00  0.00    +0.000 A 
ATOM      6  C   UNL     1       1.069   3.036  21.420  0.00  0.00    +0.000 A 
ATOM      7  C   UNL     1       1.169   3.988  20.394  0.00  0.00    +0.000 A 
ATOM      8  C   UNL     1       2.377   4.093  19.679  0.00  0.00    +0.000 A 
ATOM      9  C   UNL     1       2.870   4.902  18.601  0.00  0.00    +0.000 A 
ENDROOT
BRANCH   1  11
ATOM     10  O   UNL     1       5.201   4.264  16.228  0.00  0.00    +0.000 OA
ATOM     11  C   UNL     1       5.126   4.804  17.330  0.00  0.00    +0.000 C 
BRANCH  11  12
ATOM     12  C   UNL     1       6.117   5.871  17.667  0.00  0.00    +0.000 A 
ATOM     13  C   UNL     1       6.071   7.094  16.984  0.00  0.00    +0.000 A 
ATOM     14  C   UNL     1       7.002   8.095  17.277  0.00  0.00    +0.000 A 
ATOM     15  C   UNL     1       7.986   7.872  18.242  0.00  0.00    +0.000 A 
ATOM     16 CL   UNL     1       9.130   9.104  18.602  0.00  0.00    +0.000 Cl
ATOM     17  C   UNL     1       8.052   6.653  18.912  0.00  0.00    +0.000 A 
ATOM     18  C   UNL     1       7.122   5.650  18.622  0.00  0.00    +0.000 A 
ENDBRANCH  11  12
ENDBRANCH   1  11
BRANCH   9  19
ATOM     19  C   UNL     1       2.139   5.994  17.885  0.00  0.00    +0.000 C 
BRANCH  19  20
ATOM     20  S   UNL     1       2.934   7.607  18.183  0.00  0.00    +0.000 S 
ATOM     21  O   UNL     1       2.710   8.510  16.913  0.00  0.00    +0.000 OA
BRANCH  20  22
ATOM     22  C   UNL     1       1.874   8.309  19.480  0.00  0.00    +0.000 A 
ATOM     23  C   UNL     1       1.085   9.450  19.289  0.00  0.00    +0.000 A 
ATOM     24  C   UNL     1       0.248   9.913  20.316  0.00  0.00    +0.000 A 
ATOM     25  C   UNL     1       0.179   9.225  21.527  0.00  0.00    +0.000 A 
ATOM     26 CL   UNL     1      -0.859   9.789  22.776  0.00  0.00    +0.000 Cl
ATOM     27  C   UNL     1       0.940   8.078  21.723  0.00  0.00    +0.000 A 
ATOM     28  C   UNL     1       1.782   7.625  20.703  0.00  0.00    +0.000 A 
ENDBRANCH  20  22
ENDBRANCH  19  20
ENDBRANCH   9  19
TORSDOF 5
ENDMDL
MODEL 3
REMARK VINA RESULT:      -7.9      4.295      7.562
REMARK  Name = 
REMARK  5 active torsions:
REMARK  status: ('A' for Active; 'I' for Inactive)
REMARK    1  A    between atoms: C_2  and  C_3
REMARK    2  A    between atoms: C_2  and  C_10
REMARK    3  A    between atoms: C_18  and  C_19
REMARK    4  A    between atoms: C_19  and  S_20
REMARK    5  A    between atoms: S_20  and  C_22
REMARK                            x       y       z     vdW  Elec       q    Type
REMARK                         _______ _______ _______ _____ _____    ______ ____
ROOT
ATOM      1  C   UNL     1       0.040  10.327  18.488  0.00  0.00    +0.000 A 
ATOM      2  O   UNL     1      -0.802   9.974  17.472  0.00  0.00    +0.000 OA
ATOM      3  C   UNL     1      -2.013  10.520  17.733  0.00  0.00    +0.000 A 
ATOM      4  C   UNL     1      -3.135  10.407  16.914  0.00  0.00    +0.000 A 
ATOM      5  C   UNL     1      -4.285  11.069  17.344  0.00  0.00    +0.000 A 
ATOM      6  C   UNL     1      -4.291  11.804  18.531  0.00  0.00    +0.000 A 
ATOM      7  C   UNL     1      -3.146  11.890  19.338  0.00  0.00    +0.000 A 
ATOM      8  C   UNL     1      -1.976  11.223  18.930  0.00  0.00    +0.000 A 
ATOM      9  C   UNL     1      -0.646  11.066  19.446  0.00  0.00    +0.000 A 
ENDROOT
BRANCH   1  11
ATOM     10  O   UNL     1       2.317  10.574  17.926  0.00  0.00    +0.000 OA
ATOM     11  C   UNL     1       1.421   9.890  18.417  0.00  0.00    +0.000 C 
BRANCH  11  12
ATOM     12  C   UNL     1       1.765   8.527  18.924  0.00  0.00    +0.000 A 
ATOM     13  C   UNL     1       2.355   7.598  18.055  0.00  0.00    +0.000 A 
ATOM     14  C   UNL     1       2.667   6.313  18.510  0.00  0.00    +0.000 A 
ATOM     15  C   UNL     1       2.380   5.952  19.828  0.00  0.00    +0.000 A 
ATOM     16 CL   UNL     1       2.764   4.372  20.387  0.00  0.00    +0.000 Cl
ATOM     17  C   UNL     1       1.776   6.861  20.692  0.00  0.00    +0.000 A 
ATOM     18  C   UNL     1       1.463   8.146  20.240  0.00  0.00    +0.000 A 
ENDBRANCH  11  12
ENDBRANCH   1  11
BRANCH   9  19
ATOM     19  C   UNL     1      -0.101  11.624  20.723  0.00  0.00    +0.000 C 
BRANCH  19  20
ATOM     20  S   UNL     1      -0.879  10.822  22.163  0.00  0.00    +0.000 S 
ATOM     21  O   UNL     1       0.258  10.395  23.165  0.00  0.00    +0.000 OA
BRANCH  20  22
ATOM     22  C   UNL     1      -1.730  12.220  22.951  0.00  0.00    +0.000 A 
ATOM     23  C   UNL     1      -3.032  12.137  23.460  0.00  0.00    +0.000 A 
ATOM     24  C   UNL     1      -3.614  13.239  24.103  0.00  0.00    +0.000 A 
ATOM     25  C   UNL     1      -2.890  14.421  24.261  0.00  0.00    +0.000 A 
ATOM     26 CL   UNL     1      -3.604  15.763  25.064  0.00  0.00    +0.000 Cl
ATOM     27  C   UNL     1      -1.588  14.512  23.782  0.00  0.00    +0.000 A 
ATOM     28  C   UNL     1      -1.014  13.416  23.130  0.00  0.00    +0.000 A 
ENDBRANCH  20  22
ENDBRANCH  19  20
ENDBRANCH   9  19
TORSDOF 5
ENDMDL
MODEL 4
REMARK VINA RESULT:      -7.8      2.424      3.058
REMARK  Name = 
REMARK  5 active torsions:
REMARK  status: ('A' for Active; 'I' for Inactive)
REMARK    1  A    between atoms: C_2  and  C_3
REMARK    2  A    between atoms: C_2  and  C_10
REMARK    3  A    between atoms: C_18  and  C_19
REMARK    4  A    between atoms: C_19  and  S_20
REMARK    5  A    between atoms: S_20  and  C_22
REMARK                            x       y       z     vdW  Elec       q    Type
REMARK                         _______ _______ _______ _____ _____    ______ ____
ROOT
ATOM      1  C   UNL     1       5.269   4.428  18.982  0.00  0.00    +0.000 A 
ATOM      2  O   UNL     1       5.007   3.173  19.454  0.00  0.00    +0.000 OA
ATOM      3  C   UNL     1       3.833   3.224  20.128  0.00  0.00    +0.000 A 
ATOM      4  C   UNL     1       3.212   2.134  20.736  0.00  0.00    +0.000 A 
ATOM      5  C   UNL     1       1.989   2.385  21.357  0.00  0.00    +0.000 A 
ATOM      6  C   UNL     1       1.430   3.665  21.354  0.00  0.00    +0.000 A 
ATOM      7  C   UNL     1       2.086   4.743  20.740  0.00  0.00    +0.000 A 
ATOM      8  C   UNL     1       3.326   4.516  20.115  0.00  0.00    +0.000 A 
ATOM      9  C   UNL     1       4.282   5.314  19.401  0.00  0.00    +0.000 A 
ENDROOT
BRANCH   1  11
ATOM     10  O   UNL     1       7.546   4.955  18.672  0.00  0.00    +0.000 OA
ATOM     11  C   UNL     1       6.466   4.625  18.187  0.00  0.00    +0.000 C 
BRANCH  11  12
ATOM     12  C   UNL     1       6.372   4.461  16.705  0.00  0.00    +0.000 A 
ATOM     13  C   UNL     1       5.286   3.766  16.156  0.00  0.00    +0.000 A 
ATOM     14  C   UNL     1       5.194   3.591  14.771  0.00  0.00    +0.000 A 
ATOM     15  C   UNL     1       6.191   4.098  13.937  0.00  0.00    +0.000 A 
ATOM     16 CL   UNL     1       6.077   3.882  12.235  0.00  0.00    +0.000 Cl
ATOM     17  C   UNL     1       7.284   4.773  14.474  0.00  0.00    +0.000 A 
ATOM     18  C   UNL     1       7.378   4.950  15.857  0.00  0.00    +0.000 A 
ENDBRANCH  11  12
ENDBRANCH   1  11
BRANCH   9  19
ATOM     19  C   UNL     1       4.204   6.783  19.123  0.00  0.00    +0.000 C 
BRANCH  19  20
ATOM     20  S   UNL     1       2.991   7.129  17.808  0.00  0.00    +0.000 S 
ATOM     21  O   UNL     1       2.104   5.845  17.603  0.00  0.00    +0.000 OA
BRANCH  20  22
ATOM     22  C   UNL     1       1.912   8.349  18.612  0.00  0.00    +0.000 A 
ATOM     23  C   UNL     1       1.228   9.348  17.907  0.00  0.00    +0.000 A 
ATOM     24  C   UNL     1       0.369  10.228  18.581  0.00  0.00    +0.000 A 
ATOM     25  C   UNL     1       0.172  10.101  19.956  0.00  0.00    +0.000 A 
ATOM     26 CL   UNL     1      -0.894  11.174  20.773  0.00  0.00    +0.000 Cl
ATOM     27  C   UNL     1       0.827   9.100  20.665  0.00  0.00    +0.000 A 
ATOM     28  C   UNL     1       1.692   8.231  19.994  0.00  0.00    +0.000 A 
ENDBRANCH  20  22
ENDBRANCH  19  20
ENDBRANCH   9  19
TORSDOF 5
ENDMDL
MODEL 5
REMARK VINA RESULT:      -7.8      4.114      7.332
REMARK  Name = 
REMARK  5 active torsions:
REMARK  status: ('A' for Active; 'I' for Inactive)
REMARK    1  A    between atoms: C_2  and  C_3
REMARK    2  A    between atoms: C_2  and  C_10
REMARK    3  A    between atoms: C_18  and  C_19
REMARK    4  A    between atoms: C_19  and  S_20
REMARK    5  A    between atoms: S_20  and  C_22
REMARK                            x       y       z     vdW  Elec       q    Type
REMARK                         _______ _______ _______ _____ _____    ______ ____
ROOT
ATOM      1  C   UNL     1       0.235  10.142  18.350  0.00  0.00    +0.000 A 
ATOM      2  O   UNL     1      -0.651   9.829  17.359  0.00  0.00    +0.000 OA
ATOM      3  C   UNL     1      -1.836  10.409  17.668  0.00  0.00    +0.000 A 
ATOM      4  C   UNL     1      -2.987  10.343  16.885  0.00  0.00    +0.000 A 
ATOM      5  C   UNL     1      -4.101  11.034  17.361  0.00  0.00    +0.000 A 
ATOM      6  C   UNL     1      -4.044  11.753  18.558  0.00  0.00    +0.000 A 
ATOM      7  C   UNL     1      -2.871  11.791  19.327  0.00  0.00    +0.000 A 
ATOM      8  C   UNL     1      -1.737  11.094  18.872  0.00  0.00    +0.000 A 
ATOM      9  C   UNL     1      -0.396  10.888  19.341  0.00  0.00    +0.000 A 
ENDROOT
BRANCH   1  11
ATOM     10  O   UNL     1       2.493  10.316  17.696  0.00  0.00    +0.000 OA
ATOM     11  C   UNL     1       1.598   9.663  18.228  0.00  0.00    +0.000 C 
BRANCH  11  12
ATOM     12  C   UNL     1       1.921   8.293  18.731  0.00  0.00    +0.000 A 
ATOM     13  C   UNL     1       1.674   7.977  20.074  0.00  0.00    +0.000 A 
ATOM     14  C   UNL     1       1.986   6.705  20.563  0.00  0.00    +0.000 A 
ATOM     15  C   UNL     1       2.557   5.753  19.716  0.00  0.00    +0.000 A 
ATOM     16 CL   UNL     1       2.941   4.189  20.318  0.00  0.00    +0.000 Cl
ATOM     17  C   UNL     1       2.824   6.064  18.385  0.00  0.00    +0.000 A 
ATOM     18  C   UNL     1       2.512   7.334  17.893  0.00  0.00    +0.000 A 
ENDBRANCH  11  12
ENDBRANCH   1  11
BRANCH   9  19
ATOM     19  C   UNL     1       0.208  11.411  20.606  0.00  0.00    +0.000 C 
BRANCH  19  20
ATOM     20  S   UNL     1      -0.575  10.643  22.062  0.00  0.00    +0.000 S 
ATOM     21  O   UNL     1       0.561  10.196  23.056  0.00  0.00    +0.000 OA
BRANCH  20  22
ATOM     22  C   UNL     1      -1.381  12.070  22.845  0.00  0.00    +0.000 A 
ATOM     23  C   UNL     1      -0.785  13.334  22.931  0.00  0.00    +0.000 A 
ATOM     24  C   UNL     1      -1.482  14.409  23.504  0.00  0.00    +0.000 A 
ATOM     25  C   UNL     1      -2.783  14.230  23.972  0.00  0.00    +0.000 A 
ATOM     26 CL   UNL     1      -3.637  15.554  24.660  0.00  0.00    +0.000 Cl
ATOM     27  C   UNL     1      -3.397  12.986  23.874  0.00  0.00    +0.000 A 
ATOM     28  C   UNL     1      -2.696  11.913  23.313  0.00  0.00    +0.000 A 
ENDBRANCH  20  22
ENDBRANCH  19  20
ENDBRANCH   9  19
TORSDOF 5
ENDMDL
MODEL 6
REMARK VINA RESULT:      -7.8      2.661      6.586
REMARK  Name = 
REMARK  5 active torsions:
REMARK  status: ('A' for Active; 'I' for Inactive)
REMARK    1  A    between atoms: C_2  and  C_3
REMARK    2  A    between atoms: C_2  and  C_10
REMARK    3  A    between atoms: C_18  and  C_19
REMARK    4  A    between atoms: C_19  and  S_20
REMARK    5  A    between atoms: S_20  and  C_22
REMARK                            x       y       z     vdW  Elec       q    Type
REMARK                         _______ _______ _______ _____ _____    ______ ____
ROOT
ATOM      1  C   UNL     1       2.990   6.206  18.228  0.00  0.00    +0.000 A 
ATOM      2  O   UNL     1       2.006   5.355  17.812  0.00  0.00    +0.000 OA
ATOM      3  C   UNL     1       2.440   4.089  18.021  0.00  0.00    +0.000 A 
ATOM      4  C   UNL     1       1.707   2.937  17.746  0.00  0.00    +0.000 A 
ATOM      5  C   UNL     1       2.319   1.723  18.061  0.00  0.00    +0.000 A 
ATOM      6  C   UNL     1       3.597   1.687  18.625  0.00  0.00    +0.000 A 
ATOM      7  C   UNL     1       4.312   2.867  18.881  0.00  0.00    +0.000 A 
ATOM      8  C   UNL     1       3.719   4.103  18.563  0.00  0.00    +0.000 A 
ATOM      9  C   UNL     1       4.097   5.484  18.663  0.00  0.00    +0.000 A 
ENDROOT
BRANCH   1  11
ATOM     10  O   UNL     1       3.212   8.340  17.251  0.00  0.00    +0.000 OA
ATOM     11  C   UNL     1       2.745   7.632  18.141  0.00  0.00    +0.000 C 
BRANCH  11  12
ATOM     12  C   UNL     1       1.922   8.282  19.206  0.00  0.00    +0.000 A 
ATOM     13  C   UNL     1       1.279   9.497  18.934  0.00  0.00    +0.000 A 
ATOM     14  C   UNL     1       0.519  10.125  19.926  0.00  0.00    +0.000 A 
ATOM     15  C   UNL     1       0.411   9.548  21.192  0.00  0.00    +0.000 A 
ATOM     16 CL   UNL     1      -0.523  10.320  22.411  0.00  0.00    +0.000 Cl
ATOM     17  C   UNL     1       1.063   8.351  21.478  0.00  0.00    +0.000 A 
ATOM     18  C   UNL     1       1.822   7.720  20.488  0.00  0.00    +0.000 A 
ENDBRANCH  11  12
ENDBRANCH   1  11
BRANCH   9  19
ATOM     19  C   UNL     1       5.392   6.031  19.175  0.00  0.00    +0.000 C 
BRANCH  19  20
ATOM     20  S   UNL     1       6.253   6.977  17.878  0.00  0.00    +0.000 S 
ATOM     21  O   UNL     1       7.789   7.002  18.221  0.00  0.00    +0.000 OA
BRANCH  20  22
ATOM     22  C   UNL     1       6.087   5.876  16.443  0.00  0.00    +0.000 A 
ATOM     23  C   UNL     1       5.283   6.176  15.336  0.00  0.00    +0.000 A 
ATOM     24  C   UNL     1       5.238   5.306  14.237  0.00  0.00    +0.000 A 
ATOM     25  C   UNL     1       6.012   4.146  14.228  0.00  0.00    +0.000 A 
ATOM     26 CL   UNL     1       5.963   3.091  12.871  0.00  0.00    +0.000 Cl
ATOM     27  C   UNL     1       6.832   3.846  15.310  0.00  0.00    +0.000 A 
ATOM     28  C   UNL     1       6.867   4.708  16.411  0.00  0.00    +0.000 A 
ENDBRANCH  20  22
ENDBRANCH  19  20
ENDBRANCH   9  19
TORSDOF 5
ENDMDL
MODEL 7
REMARK VINA RESULT:      -7.7      2.222      2.720
REMARK  Name = 
REMARK  5 active torsions:
REMARK  status: ('A' for Active; 'I' for Inactive)
REMARK    1  A    between atoms: C_2  and  C_3
REMARK    2  A    between atoms: C_2  and  C_10
REMARK    3  A    between atoms: C_18  and  C_19
REMARK    4  A    between atoms: C_19  and  S_20
REMARK    5  A    between atoms: S_20  and  C_22
REMARK                            x       y       z     vdW  Elec       q    Type
REMARK                         _______ _______ _______ _____ _____    ______ ____
ROOT
ATOM      1  C   UNL     1       4.114   5.266  18.499  0.00  0.00    +0.000 A 
ATOM      2  O   UNL     1       4.491   4.259  19.342  0.00  0.00    +0.000 OA
ATOM      3  C   UNL     1       3.381   3.824  19.985  0.00  0.00    +0.000 A 
ATOM      4  C   UNL     1       3.350   2.783  20.911  0.00  0.00    +0.000 A 
ATOM      5  C   UNL     1       2.100   2.464  21.443  0.00  0.00    +0.000 A 
ATOM      6  C   UNL     1       0.953   3.158  21.051  0.00  0.00    +0.000 A 
ATOM      7  C   UNL     1       1.021   4.207  20.121  0.00  0.00    +0.000 A 
ATOM      8  C   UNL     1       2.272   4.554  19.578  0.00  0.00    +0.000 A 
ATOM      9  C   UNL     1       2.754   5.524  18.637  0.00  0.00    +0.000 A 
ENDROOT
BRANCH   1  11
ATOM     10  O   UNL     1       5.714   6.914  17.968  0.00  0.00    +0.000 OA
ATOM     11  C   UNL     1       5.130   5.876  17.663  0.00  0.00    +0.000 C 
BRANCH  11  12
ATOM     12  C   UNL     1       5.452   5.238  16.351  0.00  0.00    +0.000 A 
ATOM     13  C   UNL     1       5.083   3.906  16.124  0.00  0.00    +0.000 A 
ATOM     14  C   UNL     1       5.392   3.290  14.907  0.00  0.00    +0.000 A 
ATOM     15  C   UNL     1       6.081   4.000  13.922  0.00  0.00    +0.000 A 
ATOM     16 CL   UNL     1       6.461   3.243  12.426  0.00  0.00    +0.000 Cl
ATOM     17  C   UNL     1       6.470   5.319  14.146  0.00  0.00    +0.000 A 
ATOM     18  C   UNL     1       6.161   5.937  15.361  0.00  0.00    +0.000 A 
ENDBRANCH  11  12
ENDBRANCH   1  11
BRANCH   9  19
ATOM     19  C   UNL     1       1.950   6.561  17.918  0.00  0.00    +0.000 C 
BRANCH  19  20
ATOM     20  S   UNL     1       2.571   8.233  18.291  0.00  0.00    +0.000 S 
ATOM     21  O   UNL     1       2.163   9.187  17.107  0.00  0.00    +0.000 OA
BRANCH  20  22
ATOM     22  C   UNL     1       1.521   8.714  19.693  0.00  0.00    +0.000 A 
ATOM     23  C   UNL     1       1.535   8.047  20.924  0.00  0.00    +0.000 A 
ATOM     24  C   UNL     1       0.737   8.500  21.985  0.00  0.00    +0.000 A 
ATOM     25  C   UNL     1      -0.060   9.634  21.828  0.00  0.00    +0.000 A 
ATOM     26 CL   UNL     1      -1.025  10.192  23.136  0.00  0.00    +0.000 Cl
ATOM     27  C   UNL     1      -0.068  10.320  20.618  0.00  0.00    +0.000 A 
ATOM     28  C   UNL     1       0.720   9.860  19.558  0.00  0.00    +0.000 A 
ENDBRANCH  20  22
ENDBRANCH  19  20
ENDBRANCH   9  19
TORSDOF 5
ENDMDL
MODEL 8
REMARK VINA RESULT:      -7.7      2.278      2.934
REMARK  Name = 
REMARK  5 active torsions:
REMARK  status: ('A' for Active; 'I' for Inactive)
REMARK    1  A    between atoms: C_2  and  C_3
REMARK    2  A    between atoms: C_2  and  C_10
REMARK    3  A    between atoms: C_18  and  C_19
REMARK    4  A    between atoms: C_19  and  S_20
REMARK    5  A    between atoms: S_20  and  C_22
REMARK                            x       y       z     vdW  Elec       q    Type
REMARK                         _______ _______ _______ _____ _____    ______ ____
ROOT
ATOM      1  C   UNL     1       4.825   4.190  18.867  0.00  0.00    +0.000 A 
ATOM      2  O   UNL     1       4.802   3.372  19.960  0.00  0.00    +0.000 OA
ATOM      3  C   UNL     1       3.508   3.213  20.328  0.00  0.00    +0.000 A 
ATOM      4  C   UNL     1       3.069   2.423  21.389  0.00  0.00    +0.000 A 
ATOM      5  C   UNL     1       1.690   2.366  21.590  0.00  0.00    +0.000 A 
ATOM      6  C   UNL     1       0.812   3.064  20.758  0.00  0.00    +0.000 A 
ATOM      7  C   UNL     1       1.288   3.858  19.703  0.00  0.00    +0.000 A 
ATOM      8  C   UNL     1       2.676   3.940  19.487  0.00  0.00    +0.000 A 
ATOM      9  C   UNL     1       3.537   4.612  18.555  0.00  0.00    +0.000 A 
ENDROOT
BRANCH   1  11
ATOM     10  O   UNL     1       7.091   4.840  18.904  0.00  0.00    +0.000 OA
ATOM     11  C   UNL     1       6.108   4.484  18.258  0.00  0.00    +0.000 C 
BRANCH  11  12
ATOM     12  C   UNL     1       6.229   4.391  16.771  0.00  0.00    +0.000 A 
ATOM     13  C   UNL     1       5.540   3.382  16.086  0.00  0.00    +0.000 A 
ATOM     14  C   UNL     1       5.657   3.272  14.696  0.00  0.00    +0.000 A 
ATOM     15  C   UNL     1       6.472   4.162  13.993  0.00  0.00    +0.000 A 
ATOM     16 CL   UNL     1       6.616   4.027  12.285  0.00  0.00    +0.000 Cl
ATOM     17  C   UNL     1       7.177   5.156  14.668  0.00  0.00    +0.000 A 
ATOM     18  C   UNL     1       7.060   5.268  16.057  0.00  0.00    +0.000 A 
ENDBRANCH  11  12
ENDBRANCH   1  11
BRANCH   9  19
ATOM     19  C   UNL     1       3.126   5.532  17.449  0.00  0.00    +0.000 C 
BRANCH  19  20
ATOM     20  S   UNL     1       3.954   7.148  17.611  0.00  0.00    +0.000 S 
ATOM     21  O   UNL     1       4.157   7.746  16.169  0.00  0.00    +0.000 OA
BRANCH  20  22
ATOM     22  C   UNL     1       2.653   8.155  18.383  0.00  0.00    +0.000 A 
ATOM     23  C   UNL     1       2.018   9.217  17.728  0.00  0.00    +0.000 A 
ATOM     24  C   UNL     1       0.985   9.924  18.362  0.00  0.00    +0.000 A 
ATOM     25  C   UNL     1       0.567   9.558  19.641  0.00  0.00    +0.000 A 
ATOM     26 CL   UNL     1      -0.709  10.419  20.406  0.00  0.00    +0.000 Cl
ATOM     27  C   UNL     1       1.173   8.491  20.295  0.00  0.00    +0.000 A 
ATOM     28  C   UNL     1       2.211   7.795  19.666  0.00  0.00    +0.000 A 
ENDBRANCH  20  22
ENDBRANCH  19  20
ENDBRANCH   9  19
TORSDOF 5
ENDMDL
MODEL 9
REMARK VINA RESULT:      -7.6      1.607      6.001
REMARK  Name = 
REMARK  5 active torsions:
REMARK  status: ('A' for Active; 'I' for Inactive)
REMARK    1  A    between atoms: C_2  and  C_3
REMARK    2  A    between atoms: C_2  and  C_10
REMARK    3  A    between atoms: C_18  and  C_19
REMARK    4  A    between atoms: C_19  and  S_20
REMARK    5  A    between atoms: S_20  and  C_22
REMARK                            x       y       z     vdW  Elec       q    Type
REMARK                         _______ _______ _______ _____ _____    ______ ____
ROOT
ATOM      1  C   UNL     1       2.724   6.093  18.334  0.00  0.00    +0.000 A 
ATOM      2  O   UNL     1       1.861   5.661  19.300  0.00  0.00    +0.000 OA
ATOM      3  C   UNL     1       1.892   4.307  19.305  0.00  0.00    +0.000 A 
ATOM      4  C   UNL     1       1.165   3.494  20.172  0.00  0.00    +0.000 A 
ATOM      5  C   UNL     1       1.356   2.119  20.038  0.00  0.00    +0.000 A 
ATOM      6  C   UNL     1       2.238   1.604  19.084  0.00  0.00    +0.000 A 
ATOM      7  C   UNL     1       2.949   2.452  18.220  0.00  0.00    +0.000 A 
ATOM      8  C   UNL     1       2.765   3.843  18.330  0.00  0.00    +0.000 A 
ATOM      9  C   UNL     1       3.280   5.006  17.666  0.00  0.00    +0.000 A 
ENDROOT
BRANCH   1  11
ATOM     10  O   UNL     1       3.866   8.014  17.582  0.00  0.00    +0.000 OA
ATOM     11  C   UNL     1       2.898   7.522  18.158  0.00  0.00    +0.000 C 
BRANCH  11  12
ATOM     12  C   UNL     1       1.875   8.442  18.742  0.00  0.00    +0.000 A 
ATOM     13  C   UNL     1       1.145   9.287  17.894  0.00  0.00    +0.000 A 
ATOM     14  C   UNL     1       0.197  10.165  18.427  0.00  0.00    +0.000 A 
ATOM     15  C   UNL     1      -0.014  10.210  19.806  0.00  0.00    +0.000 A 
ATOM     16 CL   UNL     1      -1.180  11.290  20.461  0.00  0.00    +0.000 Cl
ATOM     17  C   UNL     1       0.721   9.389  20.658  0.00  0.00    +0.000 A 
ATOM     18  C   UNL     1       1.669   8.510  20.128  0.00  0.00    +0.000 A 
ENDBRANCH  11  12
ENDBRANCH   1  11
BRANCH   9  19
ATOM     19  C   UNL     1       4.252   5.040  16.528  0.00  0.00    +0.000 C 
BRANCH  19  20
ATOM     20  S   UNL     1       5.837   4.282  17.009  0.00  0.00    +0.000 S 
ATOM     21  O   UNL     1       6.588   3.834  15.700  0.00  0.00    +0.000 OA
BRANCH  20  22
ATOM     22  C   UNL     1       6.759   5.716  17.638  0.00  0.00    +0.000 A 
ATOM     23  C   UNL     1       7.585   5.660  18.767  0.00  0.00    +0.000 A 
ATOM     24  C   UNL     1       8.310   6.790  19.172  0.00  0.00    +0.000 A 
ATOM     25  C   UNL     1       8.230   7.974  18.438  0.00  0.00    +0.000 A 
ATOM     26 CL   UNL     1       9.132   9.351  18.931  0.00  0.00    +0.000 Cl
ATOM     27  C   UNL     1       7.431   8.038  17.302  0.00  0.00    +0.000 A 
ATOM     28  C   UNL     1       6.700   6.913  16.906  0.00  0.00    +0.000 A 
ENDBRANCH  20  22
ENDBRANCH  19  20
ENDBRANCH   9  19
TORSDOF 5
ENDMDL
