MODEL 1
REMARK VINA RESULT:      -7.4      0.000      0.000
REMARK  Name = 
REMARK  4 active torsions:
REMARK  status: ('A' for Active; 'I' for Inactive)
REMARK    1  A    between atoms: C_2  and  C_5
REMARK    2  A    between atoms: C_10  and  N_11
REMARK    3  A    between atoms: C_12  and  S_13
REMARK    4  A    between atoms: N_14  and  C_15
REMARK                            x       y       z     vdW  Elec       q    Type
REMARK                         _______ _______ _______ _____ _____    ______ ____
ROOT
ATOM      1  N   UNL     1       2.407   5.907  18.749  0.00  0.00    +0.000 NA
ATOM      2  C   UNL     1       3.094   6.858  18.190  0.00  0.00    +0.000 C 
ATOM      3  N   UNL     1       2.907   8.190  18.440  0.00  0.00    +0.000 N 
ATOM      4  H   UNL     1       3.531   8.821  17.956  0.00  0.00    +0.000 HD
ENDROOT
BRANCH   3   5
ATOM      5  C   UNL     1       1.721   8.794  18.890  0.00  0.00    +0.000 A 
ATOM      6  C   UNL     1       0.940   9.521  17.983  0.00  0.00    +0.000 A 
ATOM      7  C   UNL     1      -0.238  10.150  18.393  0.00  0.00    +0.000 A 
ATOM      8  C   UNL     1      -0.658  10.039  19.719  0.00  0.00    +0.000 A 
ATOM      9  C   UNL     1       0.108   9.313  20.625  0.00  0.00    +0.000 A 
ATOM     10 CL   UNL     1      -0.423   9.144  22.253  0.00  0.00    +0.000 Cl
ATOM     11  C   UNL     1       1.295   8.705  20.223  0.00  0.00    +0.000 A 
ENDBRANCH   3   5
BRANCH   1  17
ATOM     12  C   UNL     1       2.183   3.627  19.571  0.00  0.00    +0.000 A 
ATOM     13  C   UNL     1       2.318   2.239  19.349  0.00  0.00    +0.000 A 
ATOM     14  C   UNL     1       2.836   1.751  18.153  0.00  0.00    +0.000 A 
ATOM     15  C   UNL     1       3.186   2.641  17.147  0.00  0.00    +0.000 A 
ATOM     16  C   UNL     1       3.024   4.011  17.343  0.00  0.00    +0.000 A 
ATOM     17  C   UNL     1       2.581   4.532  18.567  0.00  0.00    +0.000 A 
BRANCH  12  19
ATOM     18  F   UNL     1       1.133   3.085  21.653  0.00  0.00    +0.000 F 
ATOM     19  C   UNL     1       1.579   4.112  20.865  0.00  0.00    +0.000 C 
ATOM     20  F   UNL     1       0.490   4.915  20.698  0.00  0.00    +0.000 F 
ATOM     21  F   UNL     1       2.453   4.800  21.655  0.00  0.00    +0.000 F 
ENDBRANCH  12  19
ENDBRANCH   1  17
BRANCH   2  22
ATOM     22  S   UNL     1       4.399   6.620  17.034  0.00  0.00    +0.000 S 
ATOM     23  H   UNL     1       3.595   6.273  16.018  0.00  0.00    +0.000 HD
ENDBRANCH   2  22
TORSDOF 4
ENDMDL
MODEL 2
REMARK VINA RESULT:      -7.3      5.317      7.298
REMARK  Name = 
REMARK  4 active torsions:
REMARK  status: ('A' for Active; 'I' for Inactive)
REMARK    1  A    between atoms: C_2  and  C_5
REMARK    2  A    between atoms: C_10  and  N_11
REMARK    3  A    between atoms: C_12  and  S_13
REMARK    4  A    between atoms: N_14  and  C_15
REMARK                            x       y       z     vdW  Elec       q    Type
REMARK                         _______ _______ _______ _____ _____    ______ ____
ROOT
ATOM      1  N   UNL     1       5.000   4.795  16.253  0.00  0.00    +0.000 NA
ATOM      2  C   UNL     1       6.268   4.821  16.540  0.00  0.00    +0.000 C 
ATOM      3  N   UNL     1       7.258   5.038  15.621  0.00  0.00    +0.000 N 
ATOM      4  H   UNL     1       8.201   5.059  15.987  0.00  0.00    +0.000 HD
ENDROOT
BRANCH   3   5
ATOM      5  C   UNL     1       7.186   4.779  14.242  0.00  0.00    +0.000 A 
ATOM      6  C   UNL     1       7.933   5.571  13.360  0.00  0.00    +0.000 A 
ATOM      7  C   UNL     1       7.877   5.357  11.981  0.00  0.00    +0.000 A 
ATOM      8  C   UNL     1       7.085   4.328  11.470  0.00  0.00    +0.000 A 
ATOM      9  C   UNL     1       6.347   3.532  12.340  0.00  0.00    +0.000 A 
ATOM     10 CL   UNL     1       5.396   2.239  11.718  0.00  0.00    +0.000 Cl
ATOM     11  C   UNL     1       6.383   3.759  13.714  0.00  0.00    +0.000 A 
ENDBRANCH   3   5
BRANCH   1  17
ATOM     12  C   UNL     1       3.338   5.740  17.760  0.00  0.00    +0.000 A 
ATOM     13  C   UNL     1       2.238   5.551  18.625  0.00  0.00    +0.000 A 
ATOM     14  C   UNL     1       1.742   4.277  18.886  0.00  0.00    +0.000 A 
ATOM     15  C   UNL     1       2.310   3.180  18.252  0.00  0.00    +0.000 A 
ATOM     16  C   UNL     1       3.373   3.360  17.370  0.00  0.00    +0.000 A 
ATOM     17  C   UNL     1       3.944   4.622  17.152  0.00  0.00    +0.000 A 
BRANCH  12  19
ATOM     18  F   UNL     1       2.999   8.097  18.011  0.00  0.00    +0.000 F 
ATOM     19  C   UNL     1       3.818   7.141  17.472  0.00  0.00    +0.000 C 
ATOM     20  F   UNL     1       3.872   7.443  16.144  0.00  0.00    +0.000 F 
ATOM     21  F   UNL     1       5.052   7.414  17.985  0.00  0.00    +0.000 F 
ENDBRANCH  12  19
ENDBRANCH   1  17
BRANCH   2  22
ATOM     22  S   UNL     1       6.948   4.607  18.149  0.00  0.00    +0.000 S 
ATOM     23  H   UNL     1       6.540   5.800  18.607  0.00  0.00    +0.000 HD
ENDBRANCH   2  22
TORSDOF 4
ENDMDL
MODEL 3
REMARK VINA RESULT:      -7.1      3.554      4.525
REMARK  Name = 
REMARK  4 active torsions:
REMARK  status: ('A' for Active; 'I' for Inactive)
REMARK    1  A    between atoms: C_2  and  C_5
REMARK    2  A    between atoms: C_10  and  N_11
REMARK    3  A    between atoms: C_12  and  S_13
REMARK    4  A    between atoms: N_14  and  C_15
REMARK                            x       y       z     vdW  Elec       q    Type
REMARK                         _______ _______ _______ _____ _____    ______ ____
ROOT
ATOM      1  N   UNL     1       4.151   5.705  17.244  0.00  0.00    +0.000 NA
ATOM      2  C   UNL     1       3.894   5.157  18.394  0.00  0.00    +0.000 C 
ATOM      3  N   UNL     1       2.899   5.571  19.238  0.00  0.00    +0.000 N 
ATOM      4  H   UNL     1       2.793   5.036  20.089  0.00  0.00    +0.000 HD
ENDROOT
BRANCH   3   5
ATOM      5  C   UNL     1       2.343   6.860  19.300  0.00  0.00    +0.000 A 
ATOM      6  C   UNL     1       2.322   7.649  18.143  0.00  0.00    +0.000 A 
ATOM      7  C   UNL     1       1.793   8.942  18.166  0.00  0.00    +0.000 A 
ATOM      8  C   UNL     1       1.259   9.452  19.350  0.00  0.00    +0.000 A 
ATOM      9  C   UNL     1       1.269   8.671  20.502  0.00  0.00    +0.000 A 
ATOM     10 CL   UNL     1       0.580   9.282  21.955  0.00  0.00    +0.000 Cl
ATOM     11  C   UNL     1       1.817   7.391  20.486  0.00  0.00    +0.000 A 
ENDBRANCH   3   5
BRANCH   1  17
ATOM     12  C   UNL     1       6.423   5.835  16.381  0.00  0.00    +0.000 A 
ATOM     13  C   UNL     1       7.405   5.376  15.476  0.00  0.00    +0.000 A 
ATOM     14  C   UNL     1       7.107   4.401  14.529  0.00  0.00    +0.000 A 
ATOM     15  C   UNL     1       5.837   3.842  14.501  0.00  0.00    +0.000 A 
ATOM     16  C   UNL     1       4.871   4.263  15.413  0.00  0.00    +0.000 A 
ATOM     17  C   UNL     1       5.121   5.300  16.323  0.00  0.00    +0.000 A 
BRANCH  12  19
ATOM     18  F   UNL     1       7.984   7.487  17.134  0.00  0.00    +0.000 F 
ATOM     19  C   UNL     1       6.799   6.863  17.419  0.00  0.00    +0.000 C 
ATOM     20  F   UNL     1       6.974   6.347  18.668  0.00  0.00    +0.000 F 
ATOM     21  F   UNL     1       5.895   7.878  17.540  0.00  0.00    +0.000 F 
ENDBRANCH  12  19
ENDBRANCH   1  17
BRANCH   2  22
ATOM     22  S   UNL     1       4.749   3.776  19.072  0.00  0.00    +0.000 S 
ATOM     23  H   UNL     1       5.921   4.417  19.202  0.00  0.00    +0.000 HD
ENDBRANCH   2  22
TORSDOF 4
ENDMDL
MODEL 4
REMARK VINA RESULT:      -7.1      5.218      7.275
REMARK  Name = 
REMARK  4 active torsions:
REMARK  status: ('A' for Active; 'I' for Inactive)
REMARK    1  A    between atoms: C_2  and  C_5
REMARK    2  A    between atoms: C_10  and  N_11
REMARK    3  A    between atoms: C_12  and  S_13
REMARK    4  A    between atoms: N_14  and  C_15
REMARK                            x       y       z     vdW  Elec       q    Type
REMARK                         _______ _______ _______ _____ _____    ______ ____
ROOT
ATOM      1  N   UNL     1       5.151   5.831  16.261  0.00  0.00    +0.000 NA
ATOM      2  C   UNL     1       6.358   5.490  16.602  0.00  0.00    +0.000 C 
ATOM      3  N   UNL     1       7.387   5.319  15.717  0.00  0.00    +0.000 N 
ATOM      4  H   UNL     1       8.282   5.080  16.122  0.00  0.00    +0.000 HD
ENDROOT
BRANCH   3   5
ATOM      5  C   UNL     1       7.269   4.983  14.358  0.00  0.00    +0.000 A 
ATOM      6  C   UNL     1       8.035   5.680  13.414  0.00  0.00    +0.000 A 
ATOM      7  C   UNL     1       7.935   5.388  12.052  0.00  0.00    +0.000 A 
ATOM      8  C   UNL     1       7.077   4.375  11.621  0.00  0.00    +0.000 A 
ATOM      9  C   UNL     1       6.318   3.674  12.552  0.00  0.00    +0.000 A 
ATOM     10 CL   UNL     1       5.284   2.401  12.029  0.00  0.00    +0.000 Cl
ATOM     11  C   UNL     1       6.399   3.980  13.908  0.00  0.00    +0.000 A 
ENDBRANCH   3   5
BRANCH   1  17
ATOM     12  C   UNL     1       3.277   4.991  17.568  0.00  0.00    +0.000 A 
ATOM     13  C   UNL     1       2.226   5.237  18.477  0.00  0.00    +0.000 A 
ATOM     14  C   UNL     1       1.965   6.523  18.941  0.00  0.00    +0.000 A 
ATOM     15  C   UNL     1       2.778   7.573  18.536  0.00  0.00    +0.000 A 
ATOM     16  C   UNL     1       3.840   7.335  17.666  0.00  0.00    +0.000 A 
ATOM     17  C   UNL     1       4.074   6.064  17.121  0.00  0.00    +0.000 A 
BRANCH  12  19
ATOM     18  F   UNL     1       2.449   2.771  17.226  0.00  0.00    +0.000 F 
ATOM     19  C   UNL     1       3.552   3.576  17.122  0.00  0.00    +0.000 C 
ATOM     20  F   UNL     1       4.510   2.943  17.856  0.00  0.00    +0.000 F 
ATOM     21  F   UNL     1       3.932   3.476  15.816  0.00  0.00    +0.000 F 
ENDBRANCH  12  19
ENDBRANCH   1  17
BRANCH   2  22
ATOM     22  S   UNL     1       6.904   5.211  18.252  0.00  0.00    +0.000 S 
ATOM     23  H   UNL     1       7.782   6.225  18.258  0.00  0.00    +0.000 HD
ENDBRANCH   2  22
TORSDOF 4
ENDMDL
MODEL 5
REMARK VINA RESULT:      -7.0      1.169      1.568
REMARK  Name = 
REMARK  4 active torsions:
REMARK  status: ('A' for Active; 'I' for Inactive)
REMARK    1  A    between atoms: C_2  and  C_5
REMARK    2  A    between atoms: C_10  and  N_11
REMARK    3  A    between atoms: C_12  and  S_13
REMARK    4  A    between atoms: N_14  and  C_15
REMARK                            x       y       z     vdW  Elec       q    Type
REMARK                         _______ _______ _______ _____ _____    ______ ____
ROOT
ATOM      1  N   UNL     1       2.323   5.993  18.724  0.00  0.00    +0.000 NA
ATOM      2  C   UNL     1       3.021   6.956  18.201  0.00  0.00    +0.000 C 
ATOM      3  N   UNL     1       2.816   8.283  18.463  0.00  0.00    +0.000 N 
ATOM      4  H   UNL     1       3.451   8.925  18.008  0.00  0.00    +0.000 HD
ENDROOT
BRANCH   3   5
ATOM      5  C   UNL     1       1.612   8.872  18.882  0.00  0.00    +0.000 A 
ATOM      6  C   UNL     1       1.297   8.883  20.247  0.00  0.00    +0.000 A 
ATOM      7  C   UNL     1       0.102   9.445  20.704  0.00  0.00    +0.000 A 
ATOM      8  C   UNL     1      -0.784  10.023  19.794  0.00  0.00    +0.000 A 
ATOM      9  C   UNL     1      -0.476  10.023  18.438  0.00  0.00    +0.000 A 
ATOM     10 CL   UNL     1      -1.549  10.766  17.316  0.00  0.00    +0.000 Cl
ATOM     11  C   UNL     1       0.704   9.443  17.979  0.00  0.00    +0.000 A 
ENDBRANCH   3   5
BRANCH   1  17
ATOM     12  C   UNL     1       2.146   3.704  19.534  0.00  0.00    +0.000 A 
ATOM     13  C   UNL     1       2.297   2.320  19.300  0.00  0.00    +0.000 A 
ATOM     14  C   UNL     1       2.801   1.847  18.092  0.00  0.00    +0.000 A 
ATOM     15  C   UNL     1       3.121   2.748  17.087  0.00  0.00    +0.000 A 
ATOM     16  C   UNL     1       2.943   4.115  17.295  0.00  0.00    +0.000 A 
ATOM     17  C   UNL     1       2.514   4.621  18.530  0.00  0.00    +0.000 A 
BRANCH  12  19
ATOM     18  F   UNL     1       1.168   3.132  21.643  0.00  0.00    +0.000 F 
ATOM     19  C   UNL     1       1.557   4.171  20.842  0.00  0.00    +0.000 C 
ATOM     20  F   UNL     1       0.437   4.934  20.700  0.00  0.00    +0.000 F 
ATOM     21  F   UNL     1       2.426   4.893  21.608  0.00  0.00    +0.000 F 
ENDBRANCH  12  19
ENDBRANCH   1  17
BRANCH   2  22
ATOM     22  S   UNL     1       4.366   6.743  17.086  0.00  0.00    +0.000 S 
ATOM     23  H   UNL     1       3.854   5.655  16.492  0.00  0.00    +0.000 HD
ENDBRANCH   2  22
TORSDOF 4
ENDMDL
MODEL 6
REMARK VINA RESULT:      -7.0      3.677      4.761
REMARK  Name = 
REMARK  4 active torsions:
REMARK  status: ('A' for Active; 'I' for Inactive)
REMARK    1  A    between atoms: C_2  and  C_5
REMARK    2  A    between atoms: C_10  and  N_11
REMARK    3  A    between atoms: C_12  and  S_13
REMARK    4  A    between atoms: N_14  and  C_15
REMARK                            x       y       z     vdW  Elec       q    Type
REMARK                         _______ _______ _______ _____ _____    ______ ____
ROOT
ATOM      1  N   UNL     1       4.097   5.504  17.389  0.00  0.00    +0.000 NA
ATOM      2  C   UNL     1       3.851   4.832  18.474  0.00  0.00    +0.000 C 
ATOM      3  N   UNL     1       2.876   5.161  19.377  0.00  0.00    +0.000 N 
ATOM      4  H   UNL     1       2.776   4.535  20.164  0.00  0.00    +0.000 HD
ENDROOT
BRANCH   3   5
ATOM      5  C   UNL     1       2.340   6.441  19.594  0.00  0.00    +0.000 A 
ATOM      6  C   UNL     1       1.712   6.718  20.815  0.00  0.00    +0.000 A 
ATOM      7  C   UNL     1       1.151   7.974  21.065  0.00  0.00    +0.000 A 
ATOM      8  C   UNL     1       1.234   8.975  20.096  0.00  0.00    +0.000 A 
ATOM      9  C   UNL     1       1.863   8.710  18.884  0.00  0.00    +0.000 A 
ATOM     10 CL   UNL     1       1.998   9.952  17.700  0.00  0.00    +0.000 Cl
ATOM     11  C   UNL     1       2.401   7.452  18.625  0.00  0.00    +0.000 A 
ENDBRANCH   3   5
BRANCH   1  17
ATOM     12  C   UNL     1       6.329   5.773  16.457  0.00  0.00    +0.000 A 
ATOM     13  C   UNL     1       7.293   5.408  15.491  0.00  0.00    +0.000 A 
ATOM     14  C   UNL     1       6.995   4.483  14.495  0.00  0.00    +0.000 A 
ATOM     15  C   UNL     1       5.746   3.878  14.477  0.00  0.00    +0.000 A 
ATOM     16  C   UNL     1       4.800   4.205  15.446  0.00  0.00    +0.000 A 
ATOM     17  C   UNL     1       5.046   5.193  16.411  0.00  0.00    +0.000 A 
BRANCH  12  19
ATOM     18  F   UNL     1       7.931   7.323  17.330  0.00  0.00    +0.000 F 
ATOM     19  C   UNL     1       6.707   6.749  17.544  0.00  0.00    +0.000 C 
ATOM     20  F   UNL     1       6.802   6.185  18.781  0.00  0.00    +0.000 F 
ATOM     21  F   UNL     1       5.846   7.801  17.660  0.00  0.00    +0.000 F 
ENDBRANCH  12  19
ENDBRANCH   1  17
BRANCH   2  22
ATOM     22  S   UNL     1       4.698   3.374  18.977  0.00  0.00    +0.000 S 
ATOM     23  H   UNL     1       4.454   2.700  17.843  0.00  0.00    +0.000 HD
ENDBRANCH   2  22
TORSDOF 4
ENDMDL
MODEL 7
REMARK VINA RESULT:      -7.0      4.104      5.705
REMARK  Name = 
REMARK  4 active torsions:
REMARK  status: ('A' for Active; 'I' for Inactive)
REMARK    1  A    between atoms: C_2  and  C_5
REMARK    2  A    between atoms: C_10  and  N_11
REMARK    3  A    between atoms: C_12  and  S_13
REMARK    4  A    between atoms: N_14  and  C_15
REMARK                            x       y       z     vdW  Elec       q    Type
REMARK                         _______ _______ _______ _____ _____    ______ ____
ROOT
ATOM      1  N   UNL     1       4.546   4.917  17.568  0.00  0.00    +0.000 NA
ATOM      2  C   UNL     1       3.926   5.964  18.025  0.00  0.00    +0.000 C 
ATOM      3  N   UNL     1       3.174   5.973  19.168  0.00  0.00    +0.000 N 
ATOM      4  H   UNL     1       2.770   6.864  19.422  0.00  0.00    +0.000 HD
ENDROOT
BRANCH   3   5
ATOM      5  C   UNL     1       2.530   4.867  19.749  0.00  0.00    +0.000 A 
ATOM      6  C   UNL     1       2.617   4.679  21.135  0.00  0.00    +0.000 A 
ATOM      7  C   UNL     1       2.005   3.585  21.750  0.00  0.00    +0.000 A 
ATOM      8  C   UNL     1       1.278   2.674  20.982  0.00  0.00    +0.000 A 
ATOM      9  C   UNL     1       1.181   2.858  19.606  0.00  0.00    +0.000 A 
ATOM     10 CL   UNL     1       0.256   1.757  18.659  0.00  0.00    +0.000 Cl
ATOM     11  C   UNL     1       1.810   3.936  18.988  0.00  0.00    +0.000 A 
ENDBRANCH   3   5
BRANCH   1  17
ATOM     12  C   UNL     1       6.763   4.934  16.564  0.00  0.00    +0.000 A 
ATOM     13  C   UNL     1       7.576   4.820  15.415  0.00  0.00    +0.000 A 
ATOM     14  C   UNL     1       7.014   4.632  14.155  0.00  0.00    +0.000 A 
ATOM     15  C   UNL     1       5.636   4.512  14.033  0.00  0.00    +0.000 A 
ATOM     16  C   UNL     1       4.828   4.588  15.166  0.00  0.00    +0.000 A 
ATOM     17  C   UNL     1       5.363   4.858  16.434  0.00  0.00    +0.000 A 
BRANCH  12  19
ATOM     18  F   UNL     1       8.506   4.282  18.072  0.00  0.00    +0.000 F 
ATOM     19  C   UNL     1       7.415   5.095  17.915  0.00  0.00    +0.000 C 
ATOM     20  F   UNL     1       6.600   4.782  18.961  0.00  0.00    +0.000 F 
ATOM     21  F   UNL     1       7.886   6.354  18.150  0.00  0.00    +0.000 F 
ENDBRANCH  12  19
ENDBRANCH   1  17
BRANCH   2  22
ATOM     22  S   UNL     1       3.954   7.561  17.287  0.00  0.00    +0.000 S 
ATOM     23  H   UNL     1       5.132   7.384  16.669  0.00  0.00    +0.000 HD
ENDBRANCH   2  22
TORSDOF 4
ENDMDL
MODEL 8
REMARK VINA RESULT:      -6.9      4.969      8.174
REMARK  Name = 
REMARK  4 active torsions:
REMARK  status: ('A' for Active; 'I' for Inactive)
REMARK    1  A    between atoms: C_2  and  C_5
REMARK    2  A    between atoms: C_10  and  N_11
REMARK    3  A    between atoms: C_12  and  S_13
REMARK    4  A    between atoms: N_14  and  C_15
REMARK                            x       y       z     vdW  Elec       q    Type
REMARK                         _______ _______ _______ _____ _____    ______ ____
ROOT
ATOM      1  N   UNL     1      -1.605  11.049  18.593  0.00  0.00    +0.000 NA
ATOM      2  C   UNL     1      -0.512  11.743  18.477  0.00  0.00    +0.000 C 
ATOM      3  N   UNL     1       0.742  11.197  18.434  0.00  0.00    +0.000 N 
ATOM      4  H   UNL     1       1.503  11.852  18.313  0.00  0.00    +0.000 HD
ENDROOT
BRANCH   3   5
ATOM      5  C   UNL     1       1.133   9.963  18.981  0.00  0.00    +0.000 A 
ATOM      6  C   UNL     1       0.805   9.674  20.312  0.00  0.00    +0.000 A 
ATOM      7  C   UNL     1       1.188   8.466  20.899  0.00  0.00    +0.000 A 
ATOM      8  C   UNL     1       1.888   7.521  20.148  0.00  0.00    +0.000 A 
ATOM      9  C   UNL     1       2.211   7.797  18.823  0.00  0.00    +0.000 A 
ATOM     10 CL   UNL     1       3.043   6.621  17.882  0.00  0.00    +0.000 Cl
ATOM     11  C   UNL     1       1.850   9.011  18.243  0.00  0.00    +0.000 A 
ENDBRANCH   3   5
BRANCH   1  17
ATOM     12  C   UNL     1      -3.754  11.340  17.487  0.00  0.00    +0.000 A 
ATOM     13  C   UNL     1      -5.087  11.802  17.529  0.00  0.00    +0.000 A 
ATOM     14  C   UNL     1      -5.585  12.455  18.653  0.00  0.00    +0.000 A 
ATOM     15  C   UNL     1      -4.770  12.617  19.765  0.00  0.00    +0.000 A 
ATOM     16  C   UNL     1      -3.463  12.133  19.746  0.00  0.00    +0.000 A 
ATOM     17  C   UNL     1      -2.912  11.545  18.598  0.00  0.00    +0.000 A 
BRANCH  12  19
ATOM     18  F   UNL     1      -2.287  11.283  15.595  0.00  0.00    +0.000 F 
ATOM     19  C   UNL     1      -3.267  10.601  16.265  0.00  0.00    +0.000 C 
ATOM     20  F   UNL     1      -4.235  10.384  15.330  0.00  0.00    +0.000 F 
ATOM     21  F   UNL     1      -2.714   9.385  16.543  0.00  0.00    +0.000 F 
ENDBRANCH  12  19
ENDBRANCH   1  17
BRANCH   2  22
ATOM     22  S   UNL     1      -0.433  13.494  18.328  0.00  0.00    +0.000 S 
ATOM     23  H   UNL     1      -0.701  13.512  17.013  0.00  0.00    +0.000 HD
ENDBRANCH   2  22
TORSDOF 4
ENDMDL
MODEL 9
REMARK VINA RESULT:      -6.9      3.835      6.624
REMARK  Name = 
REMARK  4 active torsions:
REMARK  status: ('A' for Active; 'I' for Inactive)
REMARK    1  A    between atoms: C_2  and  C_5
REMARK    2  A    between atoms: C_10  and  N_11
REMARK    3  A    between atoms: C_12  and  S_13
REMARK    4  A    between atoms: N_14  and  C_15
REMARK                            x       y       z     vdW  Elec       q    Type
REMARK                         _______ _______ _______ _____ _____    ______ ____
ROOT
ATOM      1  N   UNL     1       2.789   6.838  19.860  0.00  0.00    +0.000 NA
ATOM      2  C   UNL     1       2.646   5.546  19.883  0.00  0.00    +0.000 C 
ATOM      3  N   UNL     1       3.632   4.659  19.547  0.00  0.00    +0.000 N 
ATOM      4  H   UNL     1       3.394   3.681  19.636  0.00  0.00    +0.000 HD
ENDROOT
BRANCH   3   5
ATOM      5  C   UNL     1       4.717   4.906  18.688  0.00  0.00    +0.000 A 
ATOM      6  C   UNL     1       5.959   5.244  19.240  0.00  0.00    +0.000 A 
ATOM      7  C   UNL     1       7.059   5.513  18.421  0.00  0.00    +0.000 A 
ATOM      8  C   UNL     1       6.929   5.425  17.034  0.00  0.00    +0.000 A 
ATOM      9  C   UNL     1       5.700   5.082  16.479  0.00  0.00    +0.000 A 
ATOM     10 CL   UNL     1       5.544   4.937  14.771  0.00  0.00    +0.000 Cl
ATOM     11  C   UNL     1       4.597   4.836  17.293  0.00  0.00    +0.000 A 
ENDBRANCH   3   5
BRANCH   1  17
ATOM     12  C   UNL     1       1.456   8.806  19.335  0.00  0.00    +0.000 A 
ATOM     13  C   UNL     1       0.455   9.728  19.710  0.00  0.00    +0.000 A 
ATOM     14  C   UNL     1      -0.166   9.648  20.953  0.00  0.00    +0.000 A 
ATOM     15  C   UNL     1       0.176   8.620  21.821  0.00  0.00    +0.000 A 
ATOM     16  C   UNL     1       1.138   7.684  21.446  0.00  0.00    +0.000 A 
ATOM     17  C   UNL     1       1.836   7.790  20.234  0.00  0.00    +0.000 A 
BRANCH  12  19
ATOM     18  F   UNL     1       1.449   8.100  17.047  0.00  0.00    +0.000 F 
ATOM     19  C   UNL     1       2.074   8.905  17.962  0.00  0.00    +0.000 C 
ATOM     20  F   UNL     1       3.382   8.525  17.918  0.00  0.00    +0.000 F 
ATOM     21  F   UNL     1       2.013  10.156  17.421  0.00  0.00    +0.000 F 
ENDBRANCH  12  19
ENDBRANCH   1  17
BRANCH   2  22
ATOM     22  S   UNL     1       1.184   4.696  20.369  0.00  0.00    +0.000 S 
ATOM     23  H   UNL     1       1.829   3.630  20.866  0.00  0.00    +0.000 HD
ENDBRANCH   2  22
TORSDOF 4
ENDMDL
