MODEL 1
REMARK VINA RESULT:      -7.5      0.000      0.000
REMARK  Name = 
REMARK  5 active torsions:
REMARK  status: ('A' for Active; 'I' for Inactive)
REMARK    1  A    between atoms: C_2  and  C_3
REMARK    2  A    between atoms: N_8  and  C_9
REMARK    3  A    between atoms: N_8  and  C_16
REMARK    4  A    between atoms: C_9  and  C_10
REMARK    5  A    between atoms: C_16  and  C_17
REMARK                            x       y       z     vdW  Elec       q    Type
REMARK                         _______ _______ _______ _____ _____    ______ ____
ROOT
ATOM      1  O   UNL     1       6.067   6.878  17.435  0.00  0.00    +0.000 OA
ATOM      2  C   UNL     1       5.043   6.214  17.337  0.00  0.00    +0.000 C 
ATOM      3  N   UNL     1       5.088   4.983  16.706  0.00  0.00    +0.000 N 
ENDROOT
BRANCH   2   4
ATOM      4  C   UNL     1       3.830   6.787  17.989  0.00  0.00    +0.000 A 
ATOM      5  C   UNL     1       3.048   7.796  17.446  0.00  0.00    +0.000 A 
ATOM      6  C   UNL     1       2.093   8.095  18.386  0.00  0.00    +0.000 A 
ATOM      7  C   UNL     1       2.340   7.262  19.453  0.00  0.00    +0.000 A 
ATOM      8  O   UNL     1       3.373   6.495  19.187  0.00  0.00    +0.000 OA
ENDBRANCH   2   4
BRANCH   3   9
ATOM      9  C   UNL     1       3.876   4.195  16.451  0.00  0.00    +0.000 C 
BRANCH   9  10
ATOM     10  C   UNL     1       3.218   3.639  17.702  0.00  0.00    +0.000 A 
ATOM     11  C   UNL     1       1.830   3.704  17.944  0.00  0.00    +0.000 A 
ATOM     12  C   UNL     1       1.291   3.185  19.128  0.00  0.00    +0.000 A 
ATOM     13  C   UNL     1       2.123   2.584  20.074  0.00  0.00    +0.000 A 
ATOM     14  C   UNL     1       3.497   2.502  19.842  0.00  0.00    +0.000 A 
ATOM     15  C   UNL     1       4.041   3.028  18.666  0.00  0.00    +0.000 A 
ENDBRANCH   9  10
ENDBRANCH   3   9
BRANCH   3  16
ATOM     16  C   UNL     1       6.391   4.392  16.365  0.00  0.00    +0.000 C 
BRANCH  16  17
ATOM     17  C   UNL     1       6.744   4.401  14.901  0.00  0.00    +0.000 A 
ATOM     18  C   UNL     1       6.073   3.588  13.978  0.00  0.00    +0.000 A 
ATOM     19  C   UNL     1       6.360   3.721  12.613  0.00  0.00    +0.000 A 
ATOM     20  C   UNL     1       7.301   4.660  12.187  0.00  0.00    +0.000 A 
ATOM     21  C   UNL     1       7.955   5.447  13.135  0.00  0.00    +0.000 A 
ATOM     22  N   UNL     1       7.664   5.302  14.456  0.00  0.00    +0.000 NA
ENDBRANCH  16  17
ENDBRANCH   3  16
TORSDOF 5
ENDMDL
MODEL 2
REMARK VINA RESULT:      -7.5      1.952      6.083
REMARK  Name = 
REMARK  5 active torsions:
REMARK  status: ('A' for Active; 'I' for Inactive)
REMARK    1  A    between atoms: C_2  and  C_3
REMARK    2  A    between atoms: N_8  and  C_9
REMARK    3  A    between atoms: N_8  and  C_16
REMARK    4  A    between atoms: C_9  and  C_10
REMARK    5  A    between atoms: C_16  and  C_17
REMARK                            x       y       z     vdW  Elec       q    Type
REMARK                         _______ _______ _______ _____ _____    ______ ____
ROOT
ATOM      1  O   UNL     1       6.516   4.048  18.699  0.00  0.00    +0.000 OA
ATOM      2  C   UNL     1       6.285   4.816  17.774  0.00  0.00    +0.000 C 
ATOM      3  N   UNL     1       5.348   4.467  16.818  0.00  0.00    +0.000 N 
ENDROOT
BRANCH   2   4
ATOM      4  C   UNL     1       7.011   6.118  17.812  0.00  0.00    +0.000 A 
ATOM      5  C   UNL     1       7.965   6.459  18.759  0.00  0.00    +0.000 A 
ATOM      6  C   UNL     1       8.322   7.759  18.500  0.00  0.00    +0.000 A 
ATOM      7  C   UNL     1       7.569   8.148  17.415  0.00  0.00    +0.000 A 
ATOM      8  O   UNL     1       6.804   7.152  17.027  0.00  0.00    +0.000 OA
ENDBRANCH   2   4
BRANCH   3   9
ATOM      9  C   UNL     1       5.114   5.285  15.622  0.00  0.00    +0.000 C 
BRANCH   9  10
ATOM     10  C   UNL     1       5.790   4.763  14.366  0.00  0.00    +0.000 A 
ATOM     11  C   UNL     1       5.198   3.819  13.501  0.00  0.00    +0.000 A 
ATOM     12  C   UNL     1       5.885   3.369  12.366  0.00  0.00    +0.000 A 
ATOM     13  C   UNL     1       7.157   3.863  12.073  0.00  0.00    +0.000 A 
ATOM     14  C   UNL     1       7.748   4.807  12.913  0.00  0.00    +0.000 A 
ATOM     15  C   UNL     1       7.072   5.253  14.053  0.00  0.00    +0.000 A 
ENDBRANCH   9  10
ENDBRANCH   3   9
BRANCH   3  16
ATOM     16  C   UNL     1       4.486   3.295  17.043  0.00  0.00    +0.000 C 
BRANCH  16  17
ATOM     17  C   UNL     1       3.429   3.463  18.101  0.00  0.00    +0.000 A 
ATOM     18  C   UNL     1       2.536   4.544  18.085  0.00  0.00    +0.000 A 
ATOM     19  C   UNL     1       1.498   4.588  19.024  0.00  0.00    +0.000 A 
ATOM     20  C   UNL     1       1.358   3.560  19.958  0.00  0.00    +0.000 A 
ATOM     21  C   UNL     1       2.269   2.504  19.949  0.00  0.00    +0.000 A 
ATOM     22  N   UNL     1       3.272   2.479  19.031  0.00  0.00    +0.000 NA
ENDBRANCH  16  17
ENDBRANCH   3  16
TORSDOF 5
ENDMDL
MODEL 3
REMARK VINA RESULT:      -7.5      1.963      6.138
REMARK  Name = 
REMARK  5 active torsions:
REMARK  status: ('A' for Active; 'I' for Inactive)
REMARK    1  A    between atoms: C_2  and  C_3
REMARK    2  A    between atoms: N_8  and  C_9
REMARK    3  A    between atoms: N_8  and  C_16
REMARK    4  A    between atoms: C_9  and  C_10
REMARK    5  A    between atoms: C_16  and  C_17
REMARK                            x       y       z     vdW  Elec       q    Type
REMARK                         _______ _______ _______ _____ _____    ______ ____
ROOT
ATOM      1  O   UNL     1       6.523   4.073  18.744  0.00  0.00    +0.000 OA
ATOM      2  C   UNL     1       6.289   4.835  17.815  0.00  0.00    +0.000 C 
ATOM      3  N   UNL     1       5.348   4.481  16.865  0.00  0.00    +0.000 N 
ENDROOT
BRANCH   2   4
ATOM      4  C   UNL     1       7.017   6.137  17.842  0.00  0.00    +0.000 A 
ATOM      5  C   UNL     1       7.973   6.484  18.785  0.00  0.00    +0.000 A 
ATOM      6  C   UNL     1       8.331   7.781  18.516  0.00  0.00    +0.000 A 
ATOM      7  C   UNL     1       7.576   8.163  17.429  0.00  0.00    +0.000 A 
ATOM      8  O   UNL     1       6.810   7.165  17.049  0.00  0.00    +0.000 OA
ENDBRANCH   2   4
BRANCH   3   9
ATOM      9  C   UNL     1       5.109   5.293  15.666  0.00  0.00    +0.000 C 
BRANCH   9  10
ATOM     10  C   UNL     1       5.850   4.814  14.430  0.00  0.00    +0.000 A 
ATOM     11  C   UNL     1       7.141   5.259  14.077  0.00  0.00    +0.000 A 
ATOM     12  C   UNL     1       7.760   4.787  12.913  0.00  0.00    +0.000 A 
ATOM     13  C   UNL     1       7.110   3.859  12.098  0.00  0.00    +0.000 A 
ATOM     14  C   UNL     1       5.837   3.401  12.442  0.00  0.00    +0.000 A 
ATOM     15  C   UNL     1       5.210   3.876  13.598  0.00  0.00    +0.000 A 
ENDBRANCH   9  10
ENDBRANCH   3   9
BRANCH   3  16
ATOM     16  C   UNL     1       4.485   3.313  17.102  0.00  0.00    +0.000 C 
BRANCH  16  17
ATOM     17  C   UNL     1       3.431   3.488  18.162  0.00  0.00    +0.000 A 
ATOM     18  C   UNL     1       2.476   4.512  18.087  0.00  0.00    +0.000 A 
ATOM     19  C   UNL     1       1.446   4.559  19.037  0.00  0.00    +0.000 A 
ATOM     20  C   UNL     1       1.379   3.589  20.039  0.00  0.00    +0.000 A 
ATOM     21  C   UNL     1       2.351   2.590  20.087  0.00  0.00    +0.000 A 
ATOM     22  N   UNL     1       3.343   2.562  19.157  0.00  0.00    +0.000 NA
ENDBRANCH  16  17
ENDBRANCH   3  16
TORSDOF 5
ENDMDL
MODEL 4
REMARK VINA RESULT:      -7.4      2.431      3.347
REMARK  Name = 
REMARK  5 active torsions:
REMARK  status: ('A' for Active; 'I' for Inactive)
REMARK    1  A    between atoms: C_2  and  C_3
REMARK    2  A    between atoms: N_8  and  C_9
REMARK    3  A    between atoms: N_8  and  C_16
REMARK    4  A    between atoms: C_9  and  C_10
REMARK    5  A    between atoms: C_16  and  C_17
REMARK                            x       y       z     vdW  Elec       q    Type
REMARK                         _______ _______ _______ _____ _____    ______ ____
ROOT
ATOM      1  O   UNL     1       1.980   8.958  17.394  0.00  0.00    +0.000 OA
ATOM      2  C   UNL     1       2.232   8.244  18.355  0.00  0.00    +0.000 C 
ATOM      3  N   UNL     1       3.159   7.225  18.222  0.00  0.00    +0.000 N 
ENDROOT
BRANCH   2   4
ATOM      4  C   UNL     1       1.544   8.600  19.629  0.00  0.00    +0.000 A 
ATOM      5  C   UNL     1       0.537   9.548  19.741  0.00  0.00    +0.000 A 
ATOM      6  C   UNL     1       0.237   9.640  21.077  0.00  0.00    +0.000 A 
ATOM      7  C   UNL     1       1.073   8.750  21.714  0.00  0.00    +0.000 A 
ATOM      8  O   UNL     1       1.833   8.145  20.829  0.00  0.00    +0.000 OA
ENDBRANCH   2   4
BRANCH   3   9
ATOM      9  C   UNL     1       3.416   6.261  19.298  0.00  0.00    +0.000 C 
BRANCH   9  10
ATOM     10  C   UNL     1       2.473   5.071  19.309  0.00  0.00    +0.000 A 
ATOM     11  C   UNL     1       2.068   4.390  18.141  0.00  0.00    +0.000 A 
ATOM     12  C   UNL     1       1.183   3.308  18.223  0.00  0.00    +0.000 A 
ATOM     13  C   UNL     1       0.702   2.885  19.464  0.00  0.00    +0.000 A 
ATOM     14  C   UNL     1       1.104   3.542  20.627  0.00  0.00    +0.000 A 
ATOM     15  C   UNL     1       1.981   4.628  20.551  0.00  0.00    +0.000 A 
ENDBRANCH   9  10
ENDBRANCH   3   9
BRANCH   3  16
ATOM     16  C   UNL     1       3.987   7.156  17.008  0.00  0.00    +0.000 C 
BRANCH  16  17
ATOM     17  C   UNL     1       5.140   6.189  17.063  0.00  0.00    +0.000 A 
ATOM     18  C   UNL     1       5.116   4.975  16.361  0.00  0.00    +0.000 A 
ATOM     19  C   UNL     1       6.261   4.167  16.352  0.00  0.00    +0.000 A 
ATOM     20  C   UNL     1       7.408   4.577  17.033  0.00  0.00    +0.000 A 
ATOM     21  C   UNL     1       7.393   5.788  17.727  0.00  0.00    +0.000 A 
ATOM     22  N   UNL     1       6.272   6.557  17.725  0.00  0.00    +0.000 NA
ENDBRANCH  16  17
ENDBRANCH   3  16
TORSDOF 5
ENDMDL
MODEL 5
REMARK VINA RESULT:      -7.4      1.577      3.979
REMARK  Name = 
REMARK  5 active torsions:
REMARK  status: ('A' for Active; 'I' for Inactive)
REMARK    1  A    between atoms: C_2  and  C_3
REMARK    2  A    between atoms: N_8  and  C_9
REMARK    3  A    between atoms: N_8  and  C_16
REMARK    4  A    between atoms: C_9  and  C_10
REMARK    5  A    between atoms: C_16  and  C_17
REMARK                            x       y       z     vdW  Elec       q    Type
REMARK                         _______ _______ _______ _____ _____    ______ ____
ROOT
ATOM      1  O   UNL     1       5.618   4.184  19.471  0.00  0.00    +0.000 OA
ATOM      2  C   UNL     1       4.485   4.428  19.075  0.00  0.00    +0.000 C 
ATOM      3  N   UNL     1       4.291   5.442  18.154  0.00  0.00    +0.000 N 
ENDROOT
BRANCH   2   4
ATOM      4  C   UNL     1       3.408   3.536  19.592  0.00  0.00    +0.000 A 
ATOM      5  C   UNL     1       2.822   2.509  18.865  0.00  0.00    +0.000 A 
ATOM      6  C   UNL     1       1.825   1.994  19.656  0.00  0.00    +0.000 A 
ATOM      7  C   UNL     1       1.849   2.729  20.820  0.00  0.00    +0.000 A 
ATOM      8  O   UNL     1       2.801   3.633  20.754  0.00  0.00    +0.000 OA
ENDBRANCH   2   4
BRANCH   3   9
ATOM      9  C   UNL     1       2.950   5.863  17.732  0.00  0.00    +0.000 C 
BRANCH   9  10
ATOM     10  C   UNL     1       2.386   7.033  18.519  0.00  0.00    +0.000 A 
ATOM     11  C   UNL     1       2.138   6.987  19.908  0.00  0.00    +0.000 A 
ATOM     12  C   UNL     1       1.602   8.099  20.569  0.00  0.00    +0.000 A 
ATOM     13  C   UNL     1       1.320   9.269  19.861  0.00  0.00    +0.000 A 
ATOM     14  C   UNL     1       1.572   9.332  18.490  0.00  0.00    +0.000 A 
ATOM     15  C   UNL     1       2.099   8.222  17.823  0.00  0.00    +0.000 A 
ENDBRANCH   9  10
ENDBRANCH   3   9
BRANCH   3  16
ATOM     16  C   UNL     1       5.455   6.055  17.496  0.00  0.00    +0.000 C 
BRANCH  16  17
ATOM     17  C   UNL     1       5.914   5.384  16.229  0.00  0.00    +0.000 A 
ATOM     18  C   UNL     1       5.066   4.544  15.494  0.00  0.00    +0.000 A 
ATOM     19  C   UNL     1       5.502   4.039  14.262  0.00  0.00    +0.000 A 
ATOM     20  C   UNL     1       6.767   4.380  13.778  0.00  0.00    +0.000 A 
ATOM     21  C   UNL     1       7.586   5.213  14.541  0.00  0.00    +0.000 A 
ATOM     22  N   UNL     1       7.146   5.691  15.735  0.00  0.00    +0.000 NA
ENDBRANCH  16  17
ENDBRANCH   3  16
TORSDOF 5
ENDMDL
MODEL 6
REMARK VINA RESULT:      -7.4      1.527      5.206
REMARK  Name = 
REMARK  5 active torsions:
REMARK  status: ('A' for Active; 'I' for Inactive)
REMARK    1  A    between atoms: C_2  and  C_3
REMARK    2  A    between atoms: N_8  and  C_9
REMARK    3  A    between atoms: N_8  and  C_16
REMARK    4  A    between atoms: C_9  and  C_10
REMARK    5  A    between atoms: C_16  and  C_17
REMARK                            x       y       z     vdW  Elec       q    Type
REMARK                         _______ _______ _______ _____ _____    ______ ____
ROOT
ATOM      1  O   UNL     1       7.550   5.434  16.984  0.00  0.00    +0.000 OA
ATOM      2  C   UNL     1       6.593   4.998  16.357  0.00  0.00    +0.000 C 
ATOM      3  N   UNL     1       5.394   4.776  17.011  0.00  0.00    +0.000 N 
ENDROOT
BRANCH   2   4
ATOM      4  C   UNL     1       6.805   4.810  14.893  0.00  0.00    +0.000 A 
ATOM      5  C   UNL     1       6.181   3.837  14.126  0.00  0.00    +0.000 A 
ATOM      6  C   UNL     1       6.707   3.941  12.863  0.00  0.00    +0.000 A 
ATOM      7  C   UNL     1       7.626   4.966  12.920  0.00  0.00    +0.000 A 
ATOM      8  O   UNL     1       7.658   5.464  14.135  0.00  0.00    +0.000 OA
ENDBRANCH   2   4
BRANCH   3   9
ATOM      9  C   UNL     1       4.250   4.143  16.345  0.00  0.00    +0.000 C 
BRANCH   9  10
ATOM     10  C   UNL     1       3.288   3.441  17.288  0.00  0.00    +0.000 A 
ATOM     11  C   UNL     1       1.969   3.883  17.524  0.00  0.00    +0.000 A 
ATOM     12  C   UNL     1       1.141   3.195  18.419  0.00  0.00    +0.000 A 
ATOM     13  C   UNL     1       1.609   2.056  19.077  0.00  0.00    +0.000 A 
ATOM     14  C   UNL     1       2.907   1.601  18.843  0.00  0.00    +0.000 A 
ATOM     15  C   UNL     1       3.742   2.289  17.958  0.00  0.00    +0.000 A 
ENDBRANCH   9  10
ENDBRANCH   3   9
BRANCH   3  16
ATOM     16  C   UNL     1       5.217   5.273  18.385  0.00  0.00    +0.000 C 
BRANCH  16  17
ATOM     17  C   UNL     1       4.130   6.297  18.568  0.00  0.00    +0.000 A 
ATOM     18  C   UNL     1       3.874   7.281  17.602  0.00  0.00    +0.000 A 
ATOM     19  C   UNL     1       2.776   8.135  17.768  0.00  0.00    +0.000 A 
ATOM     20  C   UNL     1       1.948   7.996  18.883  0.00  0.00    +0.000 A 
ATOM     21  C   UNL     1       2.237   7.012  19.828  0.00  0.00    +0.000 A 
ATOM     22  N   UNL     1       3.308   6.193  19.651  0.00  0.00    +0.000 NA
ENDBRANCH  16  17
ENDBRANCH   3  16
TORSDOF 5
ENDMDL
MODEL 7
REMARK VINA RESULT:      -7.3      2.444      3.403
REMARK  Name = 
REMARK  5 active torsions:
REMARK  status: ('A' for Active; 'I' for Inactive)
REMARK    1  A    between atoms: C_2  and  C_3
REMARK    2  A    between atoms: N_8  and  C_9
REMARK    3  A    between atoms: N_8  and  C_16
REMARK    4  A    between atoms: C_9  and  C_10
REMARK    5  A    between atoms: C_16  and  C_17
REMARK                            x       y       z     vdW  Elec       q    Type
REMARK                         _______ _______ _______ _____ _____    ______ ____
ROOT
ATOM      1  O   UNL     1       1.953   8.935  17.354  0.00  0.00    +0.000 OA
ATOM      2  C   UNL     1       2.218   8.247  18.332  0.00  0.00    +0.000 C 
ATOM      3  N   UNL     1       3.150   7.230  18.216  0.00  0.00    +0.000 N 
ENDROOT
BRANCH   2   4
ATOM      4  C   UNL     1       1.538   8.630  19.602  0.00  0.00    +0.000 A 
ATOM      5  C   UNL     1       0.659   9.695  19.732  0.00  0.00    +0.000 A 
ATOM      6  C   UNL     1       0.327   9.765  21.062  0.00  0.00    +0.000 A 
ATOM      7  C   UNL     1       1.019   8.746  21.678  0.00  0.00    +0.000 A 
ATOM      8  O   UNL     1       1.725   8.088  20.785  0.00  0.00    +0.000 OA
ENDBRANCH   2   4
BRANCH   3   9
ATOM      9  C   UNL     1       3.422   6.295  19.314  0.00  0.00    +0.000 C 
BRANCH   9  10
ATOM     10  C   UNL     1       2.466   5.116  19.382  0.00  0.00    +0.000 A 
ATOM     11  C   UNL     1       1.964   4.593  20.592  0.00  0.00    +0.000 A 
ATOM     12  C   UNL     1       1.097   3.493  20.582  0.00  0.00    +0.000 A 
ATOM     13  C   UNL     1       0.711   2.913  19.372  0.00  0.00    +0.000 A 
ATOM     14  C   UNL     1       1.191   3.429  18.168  0.00  0.00    +0.000 A 
ATOM     15  C   UNL     1       2.064   4.521  18.172  0.00  0.00    +0.000 A 
ENDBRANCH   9  10
ENDBRANCH   3   9
BRANCH   3  16
ATOM     16  C   UNL     1       3.969   7.135  16.997  0.00  0.00    +0.000 C 
BRANCH  16  17
ATOM     17  C   UNL     1       5.133   6.184  17.071  0.00  0.00    +0.000 A 
ATOM     18  C   UNL     1       5.134   4.966  16.375  0.00  0.00    +0.000 A 
ATOM     19  C   UNL     1       6.290   4.174  16.384  0.00  0.00    +0.000 A 
ATOM     20  C   UNL     1       7.424   4.604  17.075  0.00  0.00    +0.000 A 
ATOM     21  C   UNL     1       7.384   5.817  17.763  0.00  0.00    +0.000 A 
ATOM     22  N   UNL     1       6.253   6.571  17.744  0.00  0.00    +0.000 NA
ENDBRANCH  16  17
ENDBRANCH   3  16
TORSDOF 5
ENDMDL
MODEL 8
REMARK VINA RESULT:      -7.3      1.676      4.068
REMARK  Name = 
REMARK  5 active torsions:
REMARK  status: ('A' for Active; 'I' for Inactive)
REMARK    1  A    between atoms: C_2  and  C_3
REMARK    2  A    between atoms: N_8  and  C_9
REMARK    3  A    between atoms: N_8  and  C_16
REMARK    4  A    between atoms: C_9  and  C_10
REMARK    5  A    between atoms: C_16  and  C_17
REMARK                            x       y       z     vdW  Elec       q    Type
REMARK                         _______ _______ _______ _____ _____    ______ ____
ROOT
ATOM      1  O   UNL     1       5.329   4.249  19.758  0.00  0.00    +0.000 OA
ATOM      2  C   UNL     1       4.238   4.524  19.275  0.00  0.00    +0.000 C 
ATOM      3  N   UNL     1       4.151   5.513  18.311  0.00  0.00    +0.000 N 
ENDROOT
BRANCH   2   4
ATOM      4  C   UNL     1       3.091   3.692  19.740  0.00  0.00    +0.000 A 
ATOM      5  C   UNL     1       2.485   3.812  20.982  0.00  0.00    +0.000 A 
ATOM      6  C   UNL     1       1.542   2.818  21.051  0.00  0.00    +0.000 A 
ATOM      7  C   UNL     1       1.619   2.139  19.856  0.00  0.00    +0.000 A 
ATOM      8  O   UNL     1       2.544   2.684  19.097  0.00  0.00    +0.000 OA
ENDBRANCH   2   4
BRANCH   3   9
ATOM      9  C   UNL     1       2.861   5.971  17.781  0.00  0.00    +0.000 C 
BRANCH   9  10
ATOM     10  C   UNL     1       2.322   7.225  18.448  0.00  0.00    +0.000 A 
ATOM     11  C   UNL     1       2.070   8.427  17.754  0.00  0.00    +0.000 A 
ATOM     12  C   UNL     1       1.586   9.550  18.436  0.00  0.00    +0.000 A 
ATOM     13  C   UNL     1       1.337   9.487  19.808  0.00  0.00    +0.000 A 
ATOM     14  C   UNL     1       1.570   8.300  20.504  0.00  0.00    +0.000 A 
ATOM     15  C   UNL     1       2.062   7.178  19.831  0.00  0.00    +0.000 A 
ENDBRANCH   9  10
ENDBRANCH   3   9
BRANCH   3  16
ATOM     16  C   UNL     1       5.383   6.058  17.720  0.00  0.00    +0.000 C 
BRANCH  16  17
ATOM     17  C   UNL     1       5.849   5.387  16.456  0.00  0.00    +0.000 A 
ATOM     18  C   UNL     1       5.036   4.479  15.762  0.00  0.00    +0.000 A 
ATOM     19  C   UNL     1       5.470   3.974  14.530  0.00  0.00    +0.000 A 
ATOM     20  C   UNL     1       6.697   4.382  14.004  0.00  0.00    +0.000 A 
ATOM     21  C   UNL     1       7.483   5.281  14.725  0.00  0.00    +0.000 A 
ATOM     22  N   UNL     1       7.045   5.759  15.920  0.00  0.00    +0.000 NA
ENDBRANCH  16  17
ENDBRANCH   3  16
TORSDOF 5
ENDMDL
MODEL 9
REMARK VINA RESULT:      -7.3      2.724      4.631
REMARK  Name = 
REMARK  5 active torsions:
REMARK  status: ('A' for Active; 'I' for Inactive)
REMARK    1  A    between atoms: C_2  and  C_3
REMARK    2  A    between atoms: N_8  and  C_9
REMARK    3  A    between atoms: N_8  and  C_16
REMARK    4  A    between atoms: C_9  and  C_10
REMARK    5  A    between atoms: C_16  and  C_17
REMARK                            x       y       z     vdW  Elec       q    Type
REMARK                         _______ _______ _______ _____ _____    ______ ____
ROOT
ATOM      1  O   UNL     1       5.226   2.869  19.763  0.00  0.00    +0.000 OA
ATOM      2  C   UNL     1       4.180   3.308  19.303  0.00  0.00    +0.000 C 
ATOM      3  N   UNL     1       4.205   4.023  18.118  0.00  0.00    +0.000 N 
ENDROOT
BRANCH   2   4
ATOM      4  C   UNL     1       2.940   2.959  20.054  0.00  0.00    +0.000 A 
ATOM      5  C   UNL     1       1.764   2.517  19.468  0.00  0.00    +0.000 A 
ATOM      6  C   UNL     1       0.847   2.393  20.481  0.00  0.00    +0.000 A 
ATOM      7  C   UNL     1       1.504   2.767  21.632  0.00  0.00    +0.000 A 
ATOM      8  O   UNL     1       2.745   3.093  21.347  0.00  0.00    +0.000 OA
ENDBRANCH   2   4
BRANCH   3   9
ATOM      9  C   UNL     1       3.008   4.677  17.579  0.00  0.00    +0.000 C 
BRANCH   9  10
ATOM     10  C   UNL     1       2.689   6.019  18.214  0.00  0.00    +0.000 A 
ATOM     11  C   UNL     1       2.270   6.164  19.554  0.00  0.00    +0.000 A 
ATOM     12  C   UNL     1       1.978   7.433  20.071  0.00  0.00    +0.000 A 
ATOM     13  C   UNL     1       2.112   8.567  19.269  0.00  0.00    +0.000 A 
ATOM     14  C   UNL     1       2.538   8.439  17.947  0.00  0.00    +0.000 A 
ATOM     15  C   UNL     1       2.822   7.175  17.421  0.00  0.00    +0.000 A 
ENDBRANCH   9  10
ENDBRANCH   3   9
BRANCH   3  16
ATOM     16  C   UNL     1       5.439   4.052  17.317  0.00  0.00    +0.000 C 
BRANCH  16  17
ATOM     17  C   UNL     1       6.400   5.163  17.646  0.00  0.00    +0.000 A 
ATOM     18  C   UNL     1       6.363   6.391  16.969  0.00  0.00    +0.000 A 
ATOM     19  C   UNL     1       7.201   7.431  17.394  0.00  0.00    +0.000 A 
ATOM     20  C   UNL     1       8.054   7.239  18.482  0.00  0.00    +0.000 A 
ATOM     21  C   UNL     1       8.069   6.001  19.126  0.00  0.00    +0.000 A 
ATOM     22  N   UNL     1       7.250   5.003  18.698  0.00  0.00    +0.000 NA
ENDBRANCH  16  17
ENDBRANCH   3  16
TORSDOF 5
ENDMDL
