MODEL 1
REMARK VINA RESULT:      -8.3      0.000      0.000
REMARK  Name = 
REMARK  12 active torsions:
REMARK  status: ('A' for Active; 'I' for Inactive)
REMARK    1  A    between atoms: N_1  and  C_2
REMARK    2  A    between atoms: C_2  and  C_3
REMARK    3  A    between atoms: C_3  and  C_4
REMARK    4  A    between atoms: C_4  and  C_5
REMARK    5  A    between atoms: C_5  and  N_6
REMARK    6  A    between atoms: C_7  and  S_8
REMARK    7  A    between atoms: N_9  and  C_10
REMARK    8  A    between atoms: C_10  and  C_11
REMARK    9  A    between atoms: C_11  and  C_12
REMARK   10  A    between atoms: C_12  and  N_13
REMARK   11  A    between atoms: N_13  and  C_14
REMARK   12  A    between atoms: C_14  and  C_15
REMARK                            x       y       z     vdW  Elec       q    Type
REMARK                         _______ _______ _______ _____ _____    ______ ____
ROOT
ATOM      1  N   UNL     1       6.897   5.310  17.933  0.00  0.00    +0.000 N 
ATOM      2  C   UNL     1       6.746   4.858  16.626  0.00  0.00    +0.000 A 
ATOM      3  C   UNL     1       5.873   3.820  16.285  0.00  0.00    +0.000 A 
ATOM      4  C   UNL     1       5.720   3.408  14.959  0.00  0.00    +0.000 A 
ATOM      5  C   UNL     1       6.423   4.059  13.969  0.00  0.00    +0.000 A 
ATOM      6 BR   UNL     1       6.204   3.526  12.177  0.00  0.00    +0.000 Br
ATOM      7  C   UNL     1       7.273   5.077  14.356  0.00  0.00    +0.000 A 
ATOM      8  N   UNL     1       7.468   5.445  15.646  0.00  0.00    +0.000 NA
ENDROOT
BRANCH   1   9
ATOM      9  C   UNL     1       7.841   6.420  18.179  0.00  0.00    +0.000 C 
BRANCH   9  10
ATOM     10  C   UNL     1       7.312   7.800  17.751  0.00  0.00    +0.000 C 
BRANCH  10  11
ATOM     11  C   UNL     1       8.390   8.886  17.631  0.00  0.00    +0.000 C 
BRANCH  11  14
ATOM     12  N   UNL     1       9.046  11.759  17.868  0.00  0.00    +0.000 NA
ATOM     13  C   UNL     1       9.085  10.935  18.856  0.00  0.00    +0.000 C 
ATOM     14  N   UNL     1       8.572   9.671  18.835  0.00  0.00    +0.000 N 
ATOM     15  H   UNL     1       8.783   9.144  19.673  0.00  0.00    +0.000 HD
BRANCH  13  16
ATOM     16  S   UNL     1       9.796  11.257  20.441  0.00  0.00    +0.000 S 
ATOM     17  H   UNL     1       9.090  10.386  21.165  0.00  0.00    +0.000 HD
ENDBRANCH  13  16
BRANCH  12  18
ATOM     18  C   UNL     1       9.685  13.066  17.971  0.00  0.00    +0.000 C 
BRANCH  18  19
ATOM     19  C   UNL     1      11.184  12.950  17.702  0.00  0.00    +0.000 C 
BRANCH  19  20
ATOM     20  C   UNL     1      11.643  13.910  16.590  0.00  0.00    +0.000 C 
BRANCH  20  21
ATOM     21  C   UNL     1      11.582  15.396  16.955  0.00  0.00    +0.000 C 
BRANCH  21  22
ATOM     22  N   UNL     1      10.633  16.091  16.102  0.00  0.00    +0.000 NA
ATOM     23  H   UNL     1       9.711  15.663  16.181  0.00  0.00    +0.000 HD
ATOM     24  H   UNL     1      10.909  16.003  15.125  0.00  0.00    +0.000 HD
ENDBRANCH  21  22
ENDBRANCH  20  21
ENDBRANCH  19  20
ENDBRANCH  18  19
ENDBRANCH  12  18
ENDBRANCH  11  14
ENDBRANCH  10  11
ENDBRANCH   9  10
ENDBRANCH   1   9
BRANCH   1  25
ATOM     25  C   UNL     1       5.889   5.003  18.959  0.00  0.00    +0.000 C 
BRANCH  25  26
ATOM     26  C   UNL     1       4.444   5.266  18.517  0.00  0.00    +0.000 A 
ATOM     27  C   UNL     1       4.041   6.574  18.172  0.00  0.00    +0.000 A 
ATOM     28  C   UNL     1       2.699   6.876  17.962  0.00  0.00    +0.000 A 
ATOM     29  C   UNL     1       1.735   5.883  18.081  0.00  0.00    +0.000 A 
ATOM     30  C   UNL     1       2.097   4.563  18.384  0.00  0.00    +0.000 A 
ATOM     31  C   UNL     1       1.101   3.587  18.547  0.00  0.00    +0.000 A 
ATOM     32  C   UNL     1       1.430   2.272  18.863  0.00  0.00    +0.000 A 
ATOM     33  C   UNL     1       2.765   1.905  18.967  0.00  0.00    +0.000 A 
ATOM     34  C   UNL     1       3.767   2.865  18.805  0.00  0.00    +0.000 A 
ATOM     35  C   UNL     1       3.464   4.224  18.557  0.00  0.00    +0.000 A 
ENDBRANCH  25  26
ENDBRANCH   1  25
TORSDOF 12
ENDMDL
MODEL 2
REMARK VINA RESULT:      -8.3      0.900      1.112
REMARK  Name = 
REMARK  12 active torsions:
REMARK  status: ('A' for Active; 'I' for Inactive)
REMARK    1  A    between atoms: N_1  and  C_2
REMARK    2  A    between atoms: C_2  and  C_3
REMARK    3  A    between atoms: C_3  and  C_4
REMARK    4  A    between atoms: C_4  and  C_5
REMARK    5  A    between atoms: C_5  and  N_6
REMARK    6  A    between atoms: C_7  and  S_8
REMARK    7  A    between atoms: N_9  and  C_10
REMARK    8  A    between atoms: C_10  and  C_11
REMARK    9  A    between atoms: C_11  and  C_12
REMARK   10  A    between atoms: C_12  and  N_13
REMARK   11  A    between atoms: N_13  and  C_14
REMARK   12  A    between atoms: C_14  and  C_15
REMARK                            x       y       z     vdW  Elec       q    Type
REMARK                         _______ _______ _______ _____ _____    ______ ____
ROOT
ATOM      1  N   UNL     1       6.911   5.372  17.898  0.00  0.00    +0.000 N 
ATOM      2  C   UNL     1       6.752   4.897  16.600  0.00  0.00    +0.000 A 
ATOM      3  C   UNL     1       5.897   3.837  16.286  0.00  0.00    +0.000 A 
ATOM      4  C   UNL     1       5.736   3.402  14.968  0.00  0.00    +0.000 A 
ATOM      5  C   UNL     1       6.413   4.052  13.960  0.00  0.00    +0.000 A 
ATOM      6 BR   UNL     1       6.183   3.487  12.179  0.00  0.00    +0.000 Br
ATOM      7  C   UNL     1       7.246   5.092  14.321  0.00  0.00    +0.000 A 
ATOM      8  N   UNL     1       7.450   5.484  15.602  0.00  0.00    +0.000 NA
ENDROOT
BRANCH   1   9
ATOM      9  C   UNL     1       7.834   6.504  18.116  0.00  0.00    +0.000 C 
BRANCH   9  10
ATOM     10  C   UNL     1       7.266   7.868  17.687  0.00  0.00    +0.000 C 
BRANCH  10  11
ATOM     11  C   UNL     1       8.321   8.969  17.508  0.00  0.00    +0.000 C 
BRANCH  11  14
ATOM     12  N   UNL     1      10.055  11.346  17.802  0.00  0.00    +0.000 NA
ATOM     13  C   UNL     1       9.414  10.806  18.779  0.00  0.00    +0.000 C 
ATOM     14  N   UNL     1       8.436   9.865  18.642  0.00  0.00    +0.000 N 
ATOM     15  H   UNL     1       8.118   9.492  19.527  0.00  0.00    +0.000 HD
BRANCH  13  16
ATOM     16  S   UNL     1       9.652  11.164  20.493  0.00  0.00    +0.000 S 
ATOM     17  H   UNL     1       9.686   9.915  20.961  0.00  0.00    +0.000 HD
ENDBRANCH  13  16
BRANCH  12  18
ATOM     18  C   UNL     1      11.131  12.295  18.060  0.00  0.00    +0.000 C 
BRANCH  18  19
ATOM     19  C   UNL     1      10.764  13.678  17.527  0.00  0.00    +0.000 C 
BRANCH  19  20
ATOM     20  C   UNL     1       9.864  14.451  18.508  0.00  0.00    +0.000 C 
BRANCH  20  21
ATOM     21  C   UNL     1       8.511  14.882  17.938  0.00  0.00    +0.000 C 
BRANCH  21  22
ATOM     22  N   UNL     1       7.780  13.732  17.433  0.00  0.00    +0.000 NA
ATOM     23  H   UNL     1       7.941  13.625  16.432  0.00  0.00    +0.000 HD
ATOM     24  H   UNL     1       6.778  13.874  17.550  0.00  0.00    +0.000 HD
ENDBRANCH  21  22
ENDBRANCH  20  21
ENDBRANCH  19  20
ENDBRANCH  18  19
ENDBRANCH  12  18
ENDBRANCH  11  14
ENDBRANCH  10  11
ENDBRANCH   9  10
ENDBRANCH   1   9
BRANCH   1  25
ATOM     25  C   UNL     1       5.922   5.060  18.942  0.00  0.00    +0.000 C 
BRANCH  25  26
ATOM     26  C   UNL     1       4.467   5.294  18.517  0.00  0.00    +0.000 A 
ATOM     27  C   UNL     1       4.018   6.601  18.231  0.00  0.00    +0.000 A 
ATOM     28  C   UNL     1       2.666   6.868  18.040  0.00  0.00    +0.000 A 
ATOM     29  C   UNL     1       1.736   5.837  18.118  0.00  0.00    +0.000 A 
ATOM     30  C   UNL     1       2.143   4.519  18.360  0.00  0.00    +0.000 A 
ATOM     31  C   UNL     1       1.182   3.503  18.482  0.00  0.00    +0.000 A 
ATOM     32  C   UNL     1       1.556   2.187  18.738  0.00  0.00    +0.000 A 
ATOM     33  C   UNL     1       2.903   1.861  18.821  0.00  0.00    +0.000 A 
ATOM     34  C   UNL     1       3.872   2.861  18.699  0.00  0.00    +0.000 A 
ATOM     35  C   UNL     1       3.522   4.219  18.513  0.00  0.00    +0.000 A 
ENDBRANCH  25  26
ENDBRANCH   1  25
TORSDOF 12
ENDMDL
MODEL 3
REMARK VINA RESULT:      -7.9      7.018     10.158
REMARK  Name = 
REMARK  12 active torsions:
REMARK  status: ('A' for Active; 'I' for Inactive)
REMARK    1  A    between atoms: N_1  and  C_2
REMARK    2  A    between atoms: C_2  and  C_3
REMARK    3  A    between atoms: C_3  and  C_4
REMARK    4  A    between atoms: C_4  and  C_5
REMARK    5  A    between atoms: C_5  and  N_6
REMARK    6  A    between atoms: C_7  and  S_8
REMARK    7  A    between atoms: N_9  and  C_10
REMARK    8  A    between atoms: C_10  and  C_11
REMARK    9  A    between atoms: C_11  and  C_12
REMARK   10  A    between atoms: C_12  and  N_13
REMARK   11  A    between atoms: N_13  and  C_14
REMARK   12  A    between atoms: C_14  and  C_15
REMARK                            x       y       z     vdW  Elec       q    Type
REMARK                         _______ _______ _______ _____ _____    ______ ____
ROOT
ATOM      1  N   UNL     1       0.036  11.071  18.975  0.00  0.00    +0.000 N 
ATOM      2  C   UNL     1       0.438  12.399  18.878  0.00  0.00    +0.000 A 
ATOM      3  C   UNL     1      -0.472  13.454  18.767  0.00  0.00    +0.000 A 
ATOM      4  C   UNL     1      -0.039  14.781  18.702  0.00  0.00    +0.000 A 
ATOM      5  C   UNL     1       1.310  15.051  18.778  0.00  0.00    +0.000 A 
ATOM      6 BR   UNL     1       1.900  16.837  18.716  0.00  0.00    +0.000 Br
ATOM      7  C   UNL     1       2.169  13.975  18.886  0.00  0.00    +0.000 A 
ATOM      8  N   UNL     1       1.760  12.682  18.893  0.00  0.00    +0.000 NA
ENDROOT
BRANCH   1   9
ATOM      9  C   UNL     1       1.083  10.035  19.097  0.00  0.00    +0.000 C 
BRANCH   9  10
ATOM     10  C   UNL     1       1.405   9.311  17.778  0.00  0.00    +0.000 C 
BRANCH  10  11
ATOM     11  C   UNL     1       2.578   8.325  17.863  0.00  0.00    +0.000 C 
BRANCH  11  14
ATOM     12  N   UNL     1       4.299   5.943  18.192  0.00  0.00    +0.000 NA
ATOM     13  C   UNL     1       3.013   5.894  18.163  0.00  0.00    +0.000 C 
ATOM     14  N   UNL     1       2.192   6.981  18.245  0.00  0.00    +0.000 N 
ATOM     15  H   UNL     1       1.215   6.751  18.108  0.00  0.00    +0.000 HD
BRANCH  13  16
ATOM     16  S   UNL     1       2.038   4.428  18.016  0.00  0.00    +0.000 S 
ATOM     17  H   UNL     1       1.512   4.407  19.243  0.00  0.00    +0.000 HD
ENDBRANCH  13  16
BRANCH  12  18
ATOM     18  C   UNL     1       5.087   4.727  18.028  0.00  0.00    +0.000 C 
BRANCH  18  19
ATOM     19  C   UNL     1       6.480   4.907  18.628  0.00  0.00    +0.000 C 
BRANCH  19  20
ATOM     20  C   UNL     1       7.589   4.615  17.602  0.00  0.00    +0.000 C 
BRANCH  20  21
ATOM     21  C   UNL     1       7.107   4.461  16.157  0.00  0.00    +0.000 C 
BRANCH  21  22
ATOM     22  N   UNL     1       7.424   5.650  15.384  0.00  0.00    +0.000 NA
ATOM     23  H   UNL     1       8.424   5.842  15.429  0.00  0.00    +0.000 HD
ATOM     24  H   UNL     1       6.956   6.462  15.783  0.00  0.00    +0.000 HD
ENDBRANCH  21  22
ENDBRANCH  20  21
ENDBRANCH  19  20
ENDBRANCH  18  19
ENDBRANCH  12  18
ENDBRANCH  11  14
ENDBRANCH  10  11
ENDBRANCH   9  10
ENDBRANCH   1   9
BRANCH   1  25
ATOM     25  C   UNL     1      -1.343  10.726  19.353  0.00  0.00    +0.000 C 
BRANCH  25  26
ATOM     26  C   UNL     1      -2.314  10.638  18.170  0.00  0.00    +0.000 A 
ATOM     27  C   UNL     1      -1.927   9.971  16.988  0.00  0.00    +0.000 A 
ATOM     28  C   UNL     1      -2.703  10.047  15.836  0.00  0.00    +0.000 A 
ATOM     29  C   UNL     1      -3.885  10.779  15.841  0.00  0.00    +0.000 A 
ATOM     30  C   UNL     1      -4.326  11.424  17.004  0.00  0.00    +0.000 A 
ATOM     31  C   UNL     1      -5.497  12.197  16.971  0.00  0.00    +0.000 A 
ATOM     32  C   UNL     1      -5.951  12.861  18.107  0.00  0.00    +0.000 A 
ATOM     33  C   UNL     1      -5.266  12.716  19.306  0.00  0.00    +0.000 A 
ATOM     34  C   UNL     1      -4.101  11.948  19.355  0.00  0.00    +0.000 A 
ATOM     35  C   UNL     1      -3.572  11.321  18.202  0.00  0.00    +0.000 A 
ENDBRANCH  25  26
ENDBRANCH   1  25
TORSDOF 12
ENDMDL
MODEL 4
REMARK VINA RESULT:      -7.6      6.978     10.404
REMARK  Name = 
REMARK  12 active torsions:
REMARK  status: ('A' for Active; 'I' for Inactive)
REMARK    1  A    between atoms: N_1  and  C_2
REMARK    2  A    between atoms: C_2  and  C_3
REMARK    3  A    between atoms: C_3  and  C_4
REMARK    4  A    between atoms: C_4  and  C_5
REMARK    5  A    between atoms: C_5  and  N_6
REMARK    6  A    between atoms: C_7  and  S_8
REMARK    7  A    between atoms: N_9  and  C_10
REMARK    8  A    between atoms: C_10  and  C_11
REMARK    9  A    between atoms: C_11  and  C_12
REMARK   10  A    between atoms: C_12  and  N_13
REMARK   11  A    between atoms: N_13  and  C_14
REMARK   12  A    between atoms: C_14  and  C_15
REMARK                            x       y       z     vdW  Elec       q    Type
REMARK                         _______ _______ _______ _____ _____    ______ ____
ROOT
ATOM      1  N   UNL     1       0.105  10.851  18.710  0.00  0.00    +0.000 N 
ATOM      2  C   UNL     1       0.640  12.135  18.733  0.00  0.00    +0.000 A 
ATOM      3  C   UNL     1      -0.156  13.279  18.837  0.00  0.00    +0.000 A 
ATOM      4  C   UNL     1       0.412  14.555  18.887  0.00  0.00    +0.000 A 
ATOM      5  C   UNL     1       1.784  14.680  18.864  0.00  0.00    +0.000 A 
ATOM      6 BR   UNL     1       2.558  16.393  18.956  0.00  0.00    +0.000 Br
ATOM      7  C   UNL     1       2.527  13.520  18.759  0.00  0.00    +0.000 A 
ATOM      8  N   UNL     1       1.981  12.283  18.653  0.00  0.00    +0.000 NA
ENDROOT
BRANCH   1   9
ATOM      9  C   UNL     1       1.039   9.711  18.607  0.00  0.00    +0.000 C 
BRANCH   9  10
ATOM     10  C   UNL     1       1.132   8.859  19.885  0.00  0.00    +0.000 C 
BRANCH  10  11
ATOM     11  C   UNL     1       2.249   7.805  19.868  0.00  0.00    +0.000 C 
BRANCH  11  14
ATOM     12  N   UNL     1       3.496   5.151  19.498  0.00  0.00    +0.000 NA
ATOM     13  C   UNL     1       2.366   5.331  20.087  0.00  0.00    +0.000 C 
ATOM     14  N   UNL     1       1.878   6.544  20.477  0.00  0.00    +0.000 N 
ATOM     15  H   UNL     1       0.933   6.493  20.837  0.00  0.00    +0.000 HD
BRANCH  13  16
ATOM     16  S   UNL     1       1.214   4.064  20.521  0.00  0.00    +0.000 S 
ATOM     17  H   UNL     1       0.647   3.883  19.326  0.00  0.00    +0.000 HD
ENDBRANCH  13  16
BRANCH  12  18
ATOM     18  C   UNL     1       3.896   3.818  19.061  0.00  0.00    +0.000 C 
BRANCH  18  19
ATOM     19  C   UNL     1       3.749   3.686  17.546  0.00  0.00    +0.000 C 
BRANCH  19  20
ATOM     20  C   UNL     1       4.622   4.705  16.794  0.00  0.00    +0.000 C 
BRANCH  20  21
ATOM     21  C   UNL     1       5.904   4.131  16.184  0.00  0.00    +0.000 C 
BRANCH  21  22
ATOM     22  N   UNL     1       7.009   4.247  17.120  0.00  0.00    +0.000 NA
ATOM     23  H   UNL     1       6.767   4.890  17.872  0.00  0.00    +0.000 HD
ATOM     24  H   UNL     1       7.824   4.644  16.653  0.00  0.00    +0.000 HD
ENDBRANCH  21  22
ENDBRANCH  20  21
ENDBRANCH  19  20
ENDBRANCH  18  19
ENDBRANCH  12  18
ENDBRANCH  11  14
ENDBRANCH  10  11
ENDBRANCH   9  10
ENDBRANCH   1   9
BRANCH   1  25
ATOM     25  C   UNL     1      -1.267  10.597  19.177  0.00  0.00    +0.000 C 
BRANCH  25  26
ATOM     26  C   UNL     1      -2.312  10.547  18.056  0.00  0.00    +0.000 A 
ATOM     27  C   UNL     1      -2.013   9.888  16.844  0.00  0.00    +0.000 A 
ATOM     28  C   UNL     1      -2.858   9.998  15.743  0.00  0.00    +0.000 A 
ATOM     29  C   UNL     1      -4.020  10.755  15.831  0.00  0.00    +0.000 A 
ATOM     30  C   UNL     1      -4.373  11.393  17.027  0.00  0.00    +0.000 A 
ATOM     31  C   UNL     1      -5.526  12.193  17.077  0.00  0.00    +0.000 A 
ATOM     32  C   UNL     1      -5.894  12.850  18.248  0.00  0.00    +0.000 A 
ATOM     33  C   UNL     1      -5.139  12.673  19.399  0.00  0.00    +0.000 A 
ATOM     34  C   UNL     1      -3.990  11.879  19.366  0.00  0.00    +0.000 A 
ATOM     35  C   UNL     1      -3.549  11.257  18.174  0.00  0.00    +0.000 A 
ENDBRANCH  25  26
ENDBRANCH   1  25
TORSDOF 12
ENDMDL
MODEL 5
REMARK VINA RESULT:      -7.6      6.620     10.743
REMARK  Name = 
REMARK  12 active torsions:
REMARK  status: ('A' for Active; 'I' for Inactive)
REMARK    1  A    between atoms: N_1  and  C_2
REMARK    2  A    between atoms: C_2  and  C_3
REMARK    3  A    between atoms: C_3  and  C_4
REMARK    4  A    between atoms: C_4  and  C_5
REMARK    5  A    between atoms: C_5  and  N_6
REMARK    6  A    between atoms: C_7  and  S_8
REMARK    7  A    between atoms: N_9  and  C_10
REMARK    8  A    between atoms: C_10  and  C_11
REMARK    9  A    between atoms: C_11  and  C_12
REMARK   10  A    between atoms: C_12  and  N_13
REMARK   11  A    between atoms: N_13  and  C_14
REMARK   12  A    between atoms: C_14  and  C_15
REMARK                            x       y       z     vdW  Elec       q    Type
REMARK                         _______ _______ _______ _____ _____    ______ ____
ROOT
ATOM      1  N   UNL     1       0.214   9.999  18.465  0.00  0.00    +0.000 N 
ATOM      2  C   UNL     1      -1.073  10.425  18.151  0.00  0.00    +0.000 A 
ATOM      3  C   UNL     1      -1.809  11.272  18.983  0.00  0.00    +0.000 A 
ATOM      4  C   UNL     1      -3.088  11.707  18.627  0.00  0.00    +0.000 A 
ATOM      5  C   UNL     1      -3.618  11.313  17.418  0.00  0.00    +0.000 A 
ATOM      6 BR   UNL     1      -5.331  11.913  16.920  0.00  0.00    +0.000 Br
ATOM      7  C   UNL     1      -2.853  10.474  16.632  0.00  0.00    +0.000 A 
ATOM      8  N   UNL     1      -1.634  10.004  16.996  0.00  0.00    +0.000 NA
ENDROOT
BRANCH   1   9
ATOM      9  C   UNL     1       0.905   9.110  17.508  0.00  0.00    +0.000 C 
BRANCH   9  10
ATOM     10  C   UNL     1       2.304   8.663  17.965  0.00  0.00    +0.000 C 
BRANCH  10  11
ATOM     11  C   UNL     1       2.396   7.188  18.382  0.00  0.00    +0.000 C 
BRANCH  11  14
ATOM     12  N   UNL     1       2.694   4.279  17.947  0.00  0.00    +0.000 NA
ATOM     13  C   UNL     1       3.660   5.121  17.821  0.00  0.00    +0.000 C 
ATOM     14  N   UNL     1       3.509   6.476  17.786  0.00  0.00    +0.000 N 
ATOM     15  H   UNL     1       4.392   6.972  17.779  0.00  0.00    +0.000 HD
BRANCH  13  16
ATOM     16  S   UNL     1       5.371   4.712  17.662  0.00  0.00    +0.000 S 
ATOM     17  H   UNL     1       5.865   5.945  17.530  0.00  0.00    +0.000 HD
ENDBRANCH  13  16
BRANCH  12  18
ATOM     18  C   UNL     1       2.968   2.850  18.041  0.00  0.00    +0.000 C 
BRANCH  18  19
ATOM     19  C   UNL     1       2.018   2.187  19.036  0.00  0.00    +0.000 C 
BRANCH  19  20
ATOM     20  C   UNL     1       1.323   3.219  19.941  0.00  0.00    +0.000 C 
BRANCH  20  21
ATOM     21  C   UNL     1       1.317   2.870  21.431  0.00  0.00    +0.000 C 
BRANCH  21  22
ATOM     22  N   UNL     1       2.663   2.572  21.890  0.00  0.00    +0.000 NA
ATOM     23  H   UNL     1       3.223   3.424  21.914  0.00  0.00    +0.000 HD
ATOM     24  H   UNL     1       3.125   1.942  21.236  0.00  0.00    +0.000 HD
ENDBRANCH  21  22
ENDBRANCH  20  21
ENDBRANCH  19  20
ENDBRANCH  18  19
ENDBRANCH  12  18
ENDBRANCH  11  14
ENDBRANCH  10  11
ENDBRANCH   9  10
ENDBRANCH   1   9
BRANCH   1  25
ATOM     25  C   UNL     1       1.017  10.707  19.474  0.00  0.00    +0.000 C 
BRANCH  25  26
ATOM     26  C   UNL     1       0.427  10.665  20.888  0.00  0.00    +0.000 A 
ATOM     27  C   UNL     1       0.221   9.425  21.529  0.00  0.00    +0.000 A 
ATOM     28  C   UNL     1      -0.493   9.345  22.720  0.00  0.00    +0.000 A 
ATOM     29  C   UNL     1      -1.006  10.498  23.303  0.00  0.00    +0.000 A 
ATOM     30  C   UNL     1      -0.791  11.754  22.720  0.00  0.00    +0.000 A 
ATOM     31  C   UNL     1      -1.360  12.899  23.300  0.00  0.00    +0.000 A 
ATOM     32  C   UNL     1      -1.175  14.157  22.735  0.00  0.00    +0.000 A 
ATOM     33  C   UNL     1      -0.373  14.293  21.610  0.00  0.00    +0.000 A 
ATOM     34  C   UNL     1       0.201  13.163  21.022  0.00  0.00    +0.000 A 
ATOM     35  C   UNL     1      -0.027  11.862  21.529  0.00  0.00    +0.000 A 
ENDBRANCH  25  26
ENDBRANCH   1  25
TORSDOF 12
ENDMDL
MODEL 6
REMARK VINA RESULT:      -7.6      1.006      1.084
REMARK  Name = 
REMARK  12 active torsions:
REMARK  status: ('A' for Active; 'I' for Inactive)
REMARK    1  A    between atoms: N_1  and  C_2
REMARK    2  A    between atoms: C_2  and  C_3
REMARK    3  A    between atoms: C_3  and  C_4
REMARK    4  A    between atoms: C_4  and  C_5
REMARK    5  A    between atoms: C_5  and  N_6
REMARK    6  A    between atoms: C_7  and  S_8
REMARK    7  A    between atoms: N_9  and  C_10
REMARK    8  A    between atoms: C_10  and  C_11
REMARK    9  A    between atoms: C_11  and  C_12
REMARK   10  A    between atoms: C_12  and  N_13
REMARK   11  A    between atoms: N_13  and  C_14
REMARK   12  A    between atoms: C_14  and  C_15
REMARK                            x       y       z     vdW  Elec       q    Type
REMARK                         _______ _______ _______ _____ _____    ______ ____
ROOT
ATOM      1  N   UNL     1       7.123   6.027  17.138  0.00  0.00    +0.000 N 
ATOM      2  C   UNL     1       6.833   5.272  16.006  0.00  0.00    +0.000 A 
ATOM      3  C   UNL     1       6.101   4.082  16.064  0.00  0.00    +0.000 A 
ATOM      4  C   UNL     1       5.800   3.360  14.907  0.00  0.00    +0.000 A 
ATOM      5  C   UNL     1       6.209   3.849  13.685  0.00  0.00    +0.000 A 
ATOM      6 BR   UNL     1       5.786   2.894  12.119  0.00  0.00    +0.000 Br
ATOM      7  C   UNL     1       6.931   5.026  13.681  0.00  0.00    +0.000 A 
ATOM      8  N   UNL     1       7.274   5.703  14.804  0.00  0.00    +0.000 NA
ENDROOT
BRANCH   1   9
ATOM      9  C   UNL     1       7.897   7.273  16.961  0.00  0.00    +0.000 C 
BRANCH   9  10
ATOM     10  C   UNL     1       7.657   8.322  18.062  0.00  0.00    +0.000 C 
BRANCH  10  11
ATOM     11  C   UNL     1       8.934   8.837  18.740  0.00  0.00    +0.000 C 
BRANCH  11  14
ATOM     12  N   UNL     1      10.473  11.279  18.101  0.00  0.00    +0.000 NA
ATOM     13  C   UNL     1       9.694  11.174  19.121  0.00  0.00    +0.000 C 
ATOM     14  N   UNL     1       8.802  10.160  19.317  0.00  0.00    +0.000 N 
ATOM     15  H   UNL     1       8.349  10.200  20.221  0.00  0.00    +0.000 HD
BRANCH  13  16
ATOM     16  S   UNL     1       9.605  12.308  20.473  0.00  0.00    +0.000 S 
ATOM     17  H   UNL     1       8.394  12.818  20.234  0.00  0.00    +0.000 HD
ENDBRANCH  13  16
BRANCH  12  18
ATOM     18  C   UNL     1      11.440  12.367  18.021  0.00  0.00    +0.000 C 
BRANCH  18  19
ATOM     19  C   UNL     1      10.860  13.541  17.235  0.00  0.00    +0.000 C 
BRANCH  19  20
ATOM     20  C   UNL     1      10.944  14.859  18.025  0.00  0.00    +0.000 C 
BRANCH  20  21
ATOM     21  C   UNL     1      10.349  16.077  17.314  0.00  0.00    +0.000 C 
BRANCH  21  22
ATOM     22  N   UNL     1      10.661  16.041  15.895  0.00  0.00    +0.000 NA
ATOM     23  H   UNL     1      10.747  15.076  15.578  0.00  0.00    +0.000 HD
ATOM     24  H   UNL     1      11.563  16.482  15.723  0.00  0.00    +0.000 HD
ENDBRANCH  21  22
ENDBRANCH  20  21
ENDBRANCH  19  20
ENDBRANCH  18  19
ENDBRANCH  12  18
ENDBRANCH  11  14
ENDBRANCH  10  11
ENDBRANCH   9  10
ENDBRANCH   1   9
BRANCH   1  25
ATOM     25  C   UNL     1       6.365   5.840  18.385  0.00  0.00    +0.000 C 
BRANCH  25  26
ATOM     26  C   UNL     1       4.846   5.964  18.219  0.00  0.00    +0.000 A 
ATOM     27  C   UNL     1       4.295   7.116  17.619  0.00  0.00    +0.000 A 
ATOM     28  C   UNL     1       2.922   7.345  17.636  0.00  0.00    +0.000 A 
ATOM     29  C   UNL     1       2.072   6.428  18.242  0.00  0.00    +0.000 A 
ATOM     30  C   UNL     1       2.574   5.252  18.815  0.00  0.00    +0.000 A 
ATOM     31  C   UNL     1       1.701   4.364  19.464  0.00  0.00    +0.000 A 
ATOM     32  C   UNL     1       2.174   3.196  20.055  0.00  0.00    +0.000 A 
ATOM     33  C   UNL     1       3.521   2.876  19.958  0.00  0.00    +0.000 A 
ATOM     34  C   UNL     1       4.401   3.748  19.314  0.00  0.00    +0.000 A 
ATOM     35  C   UNL     1       3.966   4.978  18.768  0.00  0.00    +0.000 A 
ENDBRANCH  25  26
ENDBRANCH   1  25
TORSDOF 12
ENDMDL
MODEL 7
REMARK VINA RESULT:      -7.6      1.440      1.584
REMARK  Name = 
REMARK  12 active torsions:
REMARK  status: ('A' for Active; 'I' for Inactive)
REMARK    1  A    between atoms: N_1  and  C_2
REMARK    2  A    between atoms: C_2  and  C_3
REMARK    3  A    between atoms: C_3  and  C_4
REMARK    4  A    between atoms: C_4  and  C_5
REMARK    5  A    between atoms: C_5  and  N_6
REMARK    6  A    between atoms: C_7  and  S_8
REMARK    7  A    between atoms: N_9  and  C_10
REMARK    8  A    between atoms: C_10  and  C_11
REMARK    9  A    between atoms: C_11  and  C_12
REMARK   10  A    between atoms: C_12  and  N_13
REMARK   11  A    between atoms: N_13  and  C_14
REMARK   12  A    between atoms: C_14  and  C_15
REMARK                            x       y       z     vdW  Elec       q    Type
REMARK                         _______ _______ _______ _____ _____    ______ ____
ROOT
ATOM      1  N   UNL     1       7.197   5.862  17.198  0.00  0.00    +0.000 N 
ATOM      2  C   UNL     1       6.871   5.161  16.042  0.00  0.00    +0.000 A 
ATOM      3  C   UNL     1       6.086   4.005  16.060  0.00  0.00    +0.000 A 
ATOM      4  C   UNL     1       5.750   3.338  14.880  0.00  0.00    +0.000 A 
ATOM      5  C   UNL     1       6.179   3.850  13.674  0.00  0.00    +0.000 A 
ATOM      6 BR   UNL     1       5.711   2.971  12.078  0.00  0.00    +0.000 Br
ATOM      7  C   UNL     1       6.954   4.993  13.709  0.00  0.00    +0.000 A 
ATOM      8  N   UNL     1       7.330   5.613  14.854  0.00  0.00    +0.000 NA
ENDROOT
BRANCH   1   9
ATOM      9  C   UNL     1       8.027   7.077  17.063  0.00  0.00    +0.000 C 
BRANCH   9  10
ATOM     10  C   UNL     1       8.155   7.897  18.359  0.00  0.00    +0.000 C 
BRANCH  10  11
ATOM     11  C   UNL     1       8.137   9.418  18.155  0.00  0.00    +0.000 C 
BRANCH  11  14
ATOM     12  N   UNL     1       8.906  12.270  18.014  0.00  0.00    +0.000 NA
ATOM     13  C   UNL     1       9.548  11.391  18.703  0.00  0.00    +0.000 C 
ATOM     14  N   UNL     1       9.095  10.134  18.975  0.00  0.00    +0.000 N 
ATOM     15  H   UNL     1       9.781   9.559  19.448  0.00  0.00    +0.000 HD
BRANCH  13  16
ATOM     16  S   UNL     1      11.136  11.620  19.444  0.00  0.00    +0.000 S 
ATOM     17  H   UNL     1      10.751  11.761  20.715  0.00  0.00    +0.000 HD
ENDBRANCH  13  16
BRANCH  12  18
ATOM     18  C   UNL     1       9.510  13.565  17.724  0.00  0.00    +0.000 C 
BRANCH  18  19
ATOM     19  C   UNL     1       8.839  14.664  18.545  0.00  0.00    +0.000 C 
BRANCH  19  20
ATOM     20  C   UNL     1       9.613  15.992  18.468  0.00  0.00    +0.000 C 
BRANCH  20  21
ATOM     21  C   UNL     1       8.952  17.166  19.192  0.00  0.00    +0.000 C 
BRANCH  21  22
ATOM     22  N   UNL     1       7.866  17.711  18.396  0.00  0.00    +0.000 NA
ATOM     23  H   UNL     1       7.510  18.565  18.824  0.00  0.00    +0.000 HD
ATOM     24  H   UNL     1       7.086  17.055  18.371  0.00  0.00    +0.000 HD
ENDBRANCH  21  22
ENDBRANCH  20  21
ENDBRANCH  19  20
ENDBRANCH  18  19
ENDBRANCH  12  18
ENDBRANCH  11  14
ENDBRANCH  10  11
ENDBRANCH   9  10
ENDBRANCH   1   9
BRANCH   1  25
ATOM     25  C   UNL     1       6.434   5.667  18.440  0.00  0.00    +0.000 C 
BRANCH  25  26
ATOM     26  C   UNL     1       4.926   5.904  18.293  0.00  0.00    +0.000 A 
ATOM     27  C   UNL     1       4.454   7.103  17.717  0.00  0.00    +0.000 A 
ATOM     28  C   UNL     1       3.102   7.430  17.753  0.00  0.00    +0.000 A 
ATOM     29  C   UNL     1       2.193   6.567  18.352  0.00  0.00    +0.000 A 
ATOM     30  C   UNL     1       2.614   5.348  18.901  0.00  0.00    +0.000 A 
ATOM     31  C   UNL     1       1.685   4.515  19.544  0.00  0.00    +0.000 A 
ATOM     32  C   UNL     1       2.077   3.306  20.111  0.00  0.00    +0.000 A 
ATOM     33  C   UNL     1       3.396   2.890  19.995  0.00  0.00    +0.000 A 
ATOM     34  C   UNL     1       4.332   3.707  19.356  0.00  0.00    +0.000 A 
ATOM     35  C   UNL     1       3.981   4.975  18.834  0.00  0.00    +0.000 A 
ENDBRANCH  25  26
ENDBRANCH   1  25
TORSDOF 12
ENDMDL
MODEL 8
REMARK VINA RESULT:      -7.5      2.048      2.755
REMARK  Name = 
REMARK  12 active torsions:
REMARK  status: ('A' for Active; 'I' for Inactive)
REMARK    1  A    between atoms: N_1  and  C_2
REMARK    2  A    between atoms: C_2  and  C_3
REMARK    3  A    between atoms: C_3  and  C_4
REMARK    4  A    between atoms: C_4  and  C_5
REMARK    5  A    between atoms: C_5  and  N_6
REMARK    6  A    between atoms: C_7  and  S_8
REMARK    7  A    between atoms: N_9  and  C_10
REMARK    8  A    between atoms: C_10  and  C_11
REMARK    9  A    between atoms: C_11  and  C_12
REMARK   10  A    between atoms: C_12  and  N_13
REMARK   11  A    between atoms: N_13  and  C_14
REMARK   12  A    between atoms: C_14  and  C_15
REMARK                            x       y       z     vdW  Elec       q    Type
REMARK                         _______ _______ _______ _____ _____    ______ ____
ROOT
ATOM      1  N   UNL     1       6.992   5.476  17.934  0.00  0.00    +0.000 N 
ATOM      2  C   UNL     1       6.829   4.985  16.643  0.00  0.00    +0.000 A 
ATOM      3  C   UNL     1       5.967   3.926  16.344  0.00  0.00    +0.000 A 
ATOM      4  C   UNL     1       5.801   3.474  15.033  0.00  0.00    +0.000 A 
ATOM      5  C   UNL     1       6.481   4.105  14.014  0.00  0.00    +0.000 A 
ATOM      6 BR   UNL     1       6.245   3.518  12.242  0.00  0.00    +0.000 Br
ATOM      7  C   UNL     1       7.322   5.145  14.360  0.00  0.00    +0.000 A 
ATOM      8  N   UNL     1       7.530   5.553  15.636  0.00  0.00    +0.000 NA
ENDROOT
BRANCH   1   9
ATOM      9  C   UNL     1       7.923   6.605  18.136  0.00  0.00    +0.000 C 
BRANCH   9  10
ATOM     10  C   UNL     1       7.561   7.867  17.334  0.00  0.00    +0.000 C 
BRANCH  10  11
ATOM     11  C   UNL     1       7.713   9.182  18.112  0.00  0.00    +0.000 C 
BRANCH  11  14
ATOM     12  N   UNL     1       9.312  10.771  20.025  0.00  0.00    +0.000 NA
ATOM     13  C   UNL     1       9.536  10.746  18.757  0.00  0.00    +0.000 C 
ATOM     14  N   UNL     1       8.975   9.857  17.887  0.00  0.00    +0.000 N 
ATOM     15  H   UNL     1       9.198  10.056  16.919  0.00  0.00    +0.000 HD
BRANCH  13  16
ATOM     16  S   UNL     1      10.608  11.839  17.876  0.00  0.00    +0.000 S 
ATOM     17  H   UNL     1      10.950  11.027  16.873  0.00  0.00    +0.000 HD
ENDBRANCH  13  16
BRANCH  12  18
ATOM     18  C   UNL     1       9.910  11.807  20.859  0.00  0.00    +0.000 C 
BRANCH  18  19
ATOM     19  C   UNL     1       8.894  12.907  21.156  0.00  0.00    +0.000 C 
BRANCH  19  20
ATOM     20  C   UNL     1       9.111  13.528  22.548  0.00  0.00    +0.000 C 
BRANCH  20  21
ATOM     21  C   UNL     1       8.099  13.095  23.612  0.00  0.00    +0.000 C 
BRANCH  21  22
ATOM     22  N   UNL     1       8.416  13.702  24.893  0.00  0.00    +0.000 NA
ATOM     23  H   UNL     1       9.025  14.508  24.759  0.00  0.00    +0.000 HD
ATOM     24  H   UNL     1       8.934  13.044  25.474  0.00  0.00    +0.000 HD
ENDBRANCH  21  22
ENDBRANCH  20  21
ENDBRANCH  19  20
ENDBRANCH  18  19
ENDBRANCH  12  18
ENDBRANCH  11  14
ENDBRANCH  10  11
ENDBRANCH   9  10
ENDBRANCH   1   9
BRANCH   1  25
ATOM     25  C   UNL     1       6.002   5.185  18.983  0.00  0.00    +0.000 C 
BRANCH  25  26
ATOM     26  C   UNL     1       4.548   5.421  18.555  0.00  0.00    +0.000 A 
ATOM     27  C   UNL     1       4.130   6.710  18.162  0.00  0.00    +0.000 A 
ATOM     28  C   UNL     1       2.782   6.995  17.964  0.00  0.00    +0.000 A 
ATOM     29  C   UNL     1       1.827   6.001  18.141  0.00  0.00    +0.000 A 
ATOM     30  C   UNL     1       2.203   4.698  18.492  0.00  0.00    +0.000 A 
ATOM     31  C   UNL     1       1.217   3.723  18.713  0.00  0.00    +0.000 A 
ATOM     32  C   UNL     1       1.561   2.424  19.077  0.00  0.00    +0.000 A 
ATOM     33  C   UNL     1       2.900   2.071  19.173  0.00  0.00    +0.000 A 
ATOM     34  C   UNL     1       3.892   3.029  18.954  0.00  0.00    +0.000 A 
ATOM     35  C   UNL     1       3.576   4.375  18.655  0.00  0.00    +0.000 A 
ENDBRANCH  25  26
ENDBRANCH   1  25
TORSDOF 12
ENDMDL
MODEL 9
REMARK VINA RESULT:      -7.5      1.781      2.160
REMARK  Name = 
REMARK  12 active torsions:
REMARK  status: ('A' for Active; 'I' for Inactive)
REMARK    1  A    between atoms: N_1  and  C_2
REMARK    2  A    between atoms: C_2  and  C_3
REMARK    3  A    between atoms: C_3  and  C_4
REMARK    4  A    between atoms: C_4  and  C_5
REMARK    5  A    between atoms: C_5  and  N_6
REMARK    6  A    between atoms: C_7  and  S_8
REMARK    7  A    between atoms: N_9  and  C_10
REMARK    8  A    between atoms: C_10  and  C_11
REMARK    9  A    between atoms: C_11  and  C_12
REMARK   10  A    between atoms: C_12  and  N_13
REMARK   11  A    between atoms: N_13  and  C_14
REMARK   12  A    between atoms: C_14  and  C_15
REMARK                            x       y       z     vdW  Elec       q    Type
REMARK                         _______ _______ _______ _____ _____    ______ ____
ROOT
ATOM      1  N   UNL     1       7.058   5.379  18.046  0.00  0.00    +0.000 N 
ATOM      2  C   UNL     1       6.787   4.905  16.767  0.00  0.00    +0.000 A 
ATOM      3  C   UNL     1       5.802   3.947  16.513  0.00  0.00    +0.000 A 
ATOM      4  C   UNL     1       5.532   3.511  15.214  0.00  0.00    +0.000 A 
ATOM      5  C   UNL     1       6.233   4.060  14.163  0.00  0.00    +0.000 A 
ATOM      6 BR   UNL     1       5.858   3.496  12.407  0.00  0.00    +0.000 Br
ATOM      7  C   UNL     1       7.197   5.002  14.464  0.00  0.00    +0.000 A 
ATOM      8  N   UNL     1       7.502   5.389  15.727  0.00  0.00    +0.000 NA
ENDROOT
BRANCH   1   9
ATOM      9  C   UNL     1       8.116   6.400  18.199  0.00  0.00    +0.000 C 
BRANCH   9  10
ATOM     10  C   UNL     1       7.673   7.824  17.821  0.00  0.00    +0.000 C 
BRANCH  10  11
ATOM     11  C   UNL     1       8.445   8.942  18.537  0.00  0.00    +0.000 C 
BRANCH  11  14
ATOM     12  N   UNL     1      10.239  11.260  18.916  0.00  0.00    +0.000 NA
ATOM     13  C   UNL     1       9.166  11.299  18.207  0.00  0.00    +0.000 C 
ATOM     14  N   UNL     1       8.447  10.204  17.824  0.00  0.00    +0.000 N 
ATOM     15  H   UNL     1       7.583  10.442  17.353  0.00  0.00    +0.000 HD
BRANCH  13  16
ATOM     16  S   UNL     1       8.398  12.759  17.576  0.00  0.00    +0.000 S 
ATOM     17  H   UNL     1       7.614  12.197  16.653  0.00  0.00    +0.000 HD
ENDBRANCH  13  16
BRANCH  12  18
ATOM     18  C   UNL     1      10.896  12.495  19.329  0.00  0.00    +0.000 C 
BRANCH  18  19
ATOM     19  C   UNL     1      10.520  12.845  20.768  0.00  0.00    +0.000 C 
BRANCH  19  20
ATOM     20  C   UNL     1      10.387  14.365  20.973  0.00  0.00    +0.000 C 
BRANCH  20  21
ATOM     21  C   UNL     1       9.623  14.781  22.232  0.00  0.00    +0.000 C 
BRANCH  21  22
ATOM     22  N   UNL     1       8.465  13.926  22.432  0.00  0.00    +0.000 NA
ATOM     23  H   UNL     1       8.721  12.949  22.291  0.00  0.00    +0.000 HD
ATOM     24  H   UNL     1       7.748  14.138  21.739  0.00  0.00    +0.000 HD
ENDBRANCH  21  22
ENDBRANCH  20  21
ENDBRANCH  19  20
ENDBRANCH  18  19
ENDBRANCH  12  18
ENDBRANCH  11  14
ENDBRANCH  10  11
ENDBRANCH   9  10
ENDBRANCH   1   9
BRANCH   1  25
ATOM     25  C   UNL     1       6.088   5.203  19.138  0.00  0.00    +0.000 C 
BRANCH  25  26
ATOM     26  C   UNL     1       4.639   5.515  18.745  0.00  0.00    +0.000 A 
ATOM     27  C   UNL     1       4.338   6.708  18.054  0.00  0.00    +0.000 A 
ATOM     28  C   UNL     1       3.020   7.111  17.863  0.00  0.00    +0.000 A 
ATOM     29  C   UNL     1       1.977   6.330  18.346  0.00  0.00    +0.000 A 
ATOM     30  C   UNL     1       2.231   5.119  19.004  0.00  0.00    +0.000 A 
ATOM     31  C   UNL     1       1.163   4.372  19.526  0.00  0.00    +0.000 A 
ATOM     32  C   UNL     1       1.386   3.173  20.197  0.00  0.00    +0.000 A 
ATOM     33  C   UNL     1       2.679   2.679  20.307  0.00  0.00    +0.000 A 
ATOM     34  C   UNL     1       3.751   3.411  19.790  0.00  0.00    +0.000 A 
ATOM     35  C   UNL     1       3.566   4.668  19.169  0.00  0.00    +0.000 A 
ENDBRANCH  25  26
ENDBRANCH   1  25
TORSDOF 12
ENDMDL
