MODEL 1
REMARK VINA RESULT:      -7.2      0.000      0.000
REMARK  Name = 
REMARK  7 active torsions:
REMARK  status: ('A' for Active; 'I' for Inactive)
REMARK    1  A    between atoms: C_1  and  O_2
REMARK    2  A    between atoms: O_2  and  C_3
REMARK    3  A    between atoms: C_3  and  C_4
REMARK    4  A    between atoms: C_4  and  O_5
REMARK    5  A    between atoms: C_7  and  N_8
REMARK    6  A    between atoms: C_10  and  C_11
REMARK    7  A    between atoms: C_18  and  O_19
REMARK                            x       y       z     vdW  Elec       q    Type
REMARK                         _______ _______ _______ _____ _____    ______ ____
ROOT
ATOM      1  C   UNL     1       3.181   3.446  18.961  0.00  0.00    +0.000 C 
ATOM      2  O   UNL     1       4.540   3.593  18.490  0.00  0.00    +0.000 OA
ATOM      3  C   UNL     1       4.793   4.974  18.198  0.00  0.00    +0.000 C 
ATOM      4  C   UNL     1       3.441   5.672  18.133  0.00  0.00    +0.000 C 
ATOM      5  C   UNL     1       2.661   4.889  19.172  0.00  0.00    +0.000 C 
ENDROOT
BRANCH   3   6
ATOM      6  N   UNL     1       5.587   5.093  16.986  0.00  0.00    +0.000 N 
ATOM      7  C   UNL     1       5.241   4.406  15.834  0.00  0.00    +0.000 A 
ATOM      8  C   UNL     1       5.966   4.458  14.714  0.00  0.00    +0.000 A 
ATOM      9  C   UNL     1       5.633   3.710  13.467  0.00  0.00    +0.000 C 
ATOM     10  C   UNL     1       7.189   5.297  14.716  0.00  0.00    +0.000 A 
ATOM     11  O   UNL     1       7.922   5.374  13.738  0.00  0.00    +0.000 OA
ATOM     12  N   UNL     1       7.443   5.974  15.875  0.00  0.00    +0.000 N 
ATOM     13  C   UNL     1       6.703   5.924  17.024  0.00  0.00    +0.000 A 
ATOM     14  O   UNL     1       7.034   6.580  18.004  0.00  0.00    +0.000 OA
ATOM     15  H   UNL     1       8.270   6.550  15.891  0.00  0.00    +0.000 HD
ENDBRANCH   3   6
BRANCH   1  17
ATOM     16  C   UNL     1       4.492   2.004  20.420  0.00  0.00    +0.000 C 
ATOM     17  O   UNL     1       3.263   2.655  20.149  0.00  0.00    +0.000 OA
ENDBRANCH   1  17
BRANCH   5  18
ATOM     18  O   UNL     1       2.974   5.430  20.460  0.00  0.00    +0.000 OA
ATOM     19  H   UNL     1       2.515   4.893  21.134  0.00  0.00    +0.000 HD
ENDBRANCH   5  18
BRANCH   1  20
ATOM     20  C   UNL     1       2.374   2.721  17.843  0.00  0.00    +0.000 C 
BRANCH  20  21
ATOM     21  O   UNL     1       1.561   1.656  18.344  0.00  0.00    +0.000 OA
ATOM     22  H   UNL     1       2.163   0.927  18.579  0.00  0.00    +0.000 HD
ENDBRANCH  20  21
ENDBRANCH   1  20
TORSDOF 5
ENDMDL
MODEL 2
REMARK VINA RESULT:      -7.2      1.395      1.420
REMARK  Name = 
REMARK  7 active torsions:
REMARK  status: ('A' for Active; 'I' for Inactive)
REMARK    1  A    between atoms: C_1  and  O_2
REMARK    2  A    between atoms: O_2  and  C_3
REMARK    3  A    between atoms: C_3  and  C_4
REMARK    4  A    between atoms: C_4  and  O_5
REMARK    5  A    between atoms: C_7  and  N_8
REMARK    6  A    between atoms: C_10  and  C_11
REMARK    7  A    between atoms: C_18  and  O_19
REMARK                            x       y       z     vdW  Elec       q    Type
REMARK                         _______ _______ _______ _____ _____    ______ ____
ROOT
ATOM      1  C   UNL     1       2.765   3.337  19.938  0.00  0.00    +0.000 C 
ATOM      2  O   UNL     1       4.160   3.474  19.583  0.00  0.00    +0.000 OA
ATOM      3  C   UNL     1       4.409   4.819  19.153  0.00  0.00    +0.000 C 
ATOM      4  C   UNL     1       3.055   5.458  18.876  0.00  0.00    +0.000 C 
ATOM      5  C   UNL     1       2.195   4.776  19.922  0.00  0.00    +0.000 C 
ENDROOT
BRANCH   3   6
ATOM      6  N   UNL     1       5.316   4.821  18.016  0.00  0.00    +0.000 N 
ATOM      7  C   UNL     1       4.850   4.603  16.730  0.00  0.00    +0.000 A 
ATOM      8  C   UNL     1       5.657   4.558  15.666  0.00  0.00    +0.000 A 
ATOM      9  C   UNL     1       5.188   4.300  14.273  0.00  0.00    +0.000 C 
ATOM     10  C   UNL     1       7.109   4.759  15.886  0.00  0.00    +0.000 A 
ATOM     11  O   UNL     1       7.916   4.704  14.965  0.00  0.00    +0.000 OA
ATOM     12  N   UNL     1       7.487   5.008  17.174  0.00  0.00    +0.000 N 
ATOM     13  C   UNL     1       6.665   5.054  18.267  0.00  0.00    +0.000 A 
ATOM     14  O   UNL     1       7.124   5.287  19.378  0.00  0.00    +0.000 OA
ATOM     15  H   UNL     1       8.471   5.148  17.339  0.00  0.00    +0.000 HD
ENDBRANCH   3   6
BRANCH   1  17
ATOM     16  C   UNL     1       1.484   2.429  21.797  0.00  0.00    +0.000 C 
ATOM     17  O   UNL     1       2.747   2.695  21.215  0.00  0.00    +0.000 OA
ENDBRANCH   1  17
BRANCH   5  18
ATOM     18  O   UNL     1       2.367   5.476  21.160  0.00  0.00    +0.000 OA
ATOM     19  H   UNL     1       2.506   6.422  20.956  0.00  0.00    +0.000 HD
ENDBRANCH   5  18
BRANCH   1  20
ATOM     20  C   UNL     1       2.089   2.459  18.843  0.00  0.00    +0.000 C 
BRANCH  20  21
ATOM     21  O   UNL     1       3.005   1.566  18.202  0.00  0.00    +0.000 OA
ATOM     22  H   UNL     1       3.527   1.142  18.907  0.00  0.00    +0.000 HD
ENDBRANCH  20  21
ENDBRANCH   1  20
TORSDOF 5
ENDMDL
MODEL 3
REMARK VINA RESULT:      -7.0      1.089      1.109
REMARK  Name = 
REMARK  7 active torsions:
REMARK  status: ('A' for Active; 'I' for Inactive)
REMARK    1  A    between atoms: C_1  and  O_2
REMARK    2  A    between atoms: O_2  and  C_3
REMARK    3  A    between atoms: C_3  and  C_4
REMARK    4  A    between atoms: C_4  and  O_5
REMARK    5  A    between atoms: C_7  and  N_8
REMARK    6  A    between atoms: C_10  and  C_11
REMARK    7  A    between atoms: C_18  and  O_19
REMARK                            x       y       z     vdW  Elec       q    Type
REMARK                         _______ _______ _______ _____ _____    ______ ____
ROOT
ATOM      1  C   UNL     1       3.330   3.771  18.508  0.00  0.00    +0.000 C 
ATOM      2  O   UNL     1       4.632   3.642  17.895  0.00  0.00    +0.000 OA
ATOM      3  C   UNL     1       5.158   4.948  17.620  0.00  0.00    +0.000 C 
ATOM      4  C   UNL     1       3.997   5.927  17.725  0.00  0.00    +0.000 C 
ATOM      5  C   UNL     1       3.170   5.279  18.818  0.00  0.00    +0.000 C 
ENDROOT
BRANCH   3   6
ATOM      6  N   UNL     1       5.833   4.956  16.332  0.00  0.00    +0.000 N 
ATOM      7  C   UNL     1       5.294   4.299  15.238  0.00  0.00    +0.000 A 
ATOM      8  C   UNL     1       5.903   4.251  14.050  0.00  0.00    +0.000 A 
ATOM      9  C   UNL     1       5.359   3.531  12.861  0.00  0.00    +0.000 C 
ATOM     10  C   UNL     1       7.209   4.938  13.910  0.00  0.00    +0.000 A 
ATOM     11  O   UNL     1       7.843   4.914  12.862  0.00  0.00    +0.000 OA
ATOM     12  N   UNL     1       7.657   5.595  15.020  0.00  0.00    +0.000 N 
ATOM     13  C   UNL     1       7.037   5.648  16.238  0.00  0.00    +0.000 A 
ATOM     14  O   UNL     1       7.540   6.273  17.163  0.00  0.00    +0.000 OA
ATOM     15  H   UNL     1       8.543   6.069  14.939  0.00  0.00    +0.000 HD
ENDBRANCH   3   6
BRANCH   1  17
ATOM     16  C   UNL     1       2.133   2.304  20.038  0.00  0.00    +0.000 C 
ATOM     17  O   UNL     1       3.351   2.918  19.654  0.00  0.00    +0.000 OA
ENDBRANCH   1  17
BRANCH   5  18
ATOM     18  O   UNL     1       3.723   5.668  20.081  0.00  0.00    +0.000 OA
ATOM     19  H   UNL     1       4.041   4.863  20.533  0.00  0.00    +0.000 HD
ENDBRANCH   5  18
BRANCH   1  20
ATOM     20  C   UNL     1       2.273   3.303  17.462  0.00  0.00    +0.000 C 
BRANCH  20  21
ATOM     21  O   UNL     1       1.130   4.162  17.405  0.00  0.00    +0.000 OA
ATOM     22  H   UNL     1       0.991   4.509  18.305  0.00  0.00    +0.000 HD
ENDBRANCH  20  21
ENDBRANCH   1  20
TORSDOF 5
ENDMDL
MODEL 4
REMARK VINA RESULT:      -6.9      2.580      6.128
REMARK  Name = 
REMARK  7 active torsions:
REMARK  status: ('A' for Active; 'I' for Inactive)
REMARK    1  A    between atoms: C_1  and  O_2
REMARK    2  A    between atoms: O_2  and  C_3
REMARK    3  A    between atoms: C_3  and  C_4
REMARK    4  A    between atoms: C_4  and  O_5
REMARK    5  A    between atoms: C_7  and  N_8
REMARK    6  A    between atoms: C_10  and  C_11
REMARK    7  A    between atoms: C_18  and  O_19
REMARK                            x       y       z     vdW  Elec       q    Type
REMARK                         _______ _______ _______ _____ _____    ______ ____
ROOT
ATOM      1  C   UNL     1       6.558   6.078  17.677  0.00  0.00    +0.000 C 
ATOM      2  O   UNL     1       6.046   5.613  18.945  0.00  0.00    +0.000 OA
ATOM      3  C   UNL     1       5.704   4.224  18.838  0.00  0.00    +0.000 C 
ATOM      4  C   UNL     1       5.653   3.891  17.353  0.00  0.00    +0.000 C 
ATOM      5  C   UNL     1       6.737   4.805  16.814  0.00  0.00    +0.000 C 
ENDROOT
BRANCH   3   6
ATOM      6  N   UNL     1       4.468   3.955  19.555  0.00  0.00    +0.000 N 
ATOM      7  C   UNL     1       3.505   4.938  19.713  0.00  0.00    +0.000 A 
ATOM      8  C   UNL     1       2.375   4.741  20.398  0.00  0.00    +0.000 A 
ATOM      9  C   UNL     1       1.331   5.786  20.605  0.00  0.00    +0.000 C 
ATOM     10  C   UNL     1       2.154   3.406  21.005  0.00  0.00    +0.000 A 
ATOM     11  O   UNL     1       1.157   3.157  21.672  0.00  0.00    +0.000 OA
ATOM     12  N   UNL     1       3.129   2.479  20.773  0.00  0.00    +0.000 N 
ATOM     13  C   UNL     1       4.287   2.676  20.072  0.00  0.00    +0.000 A 
ATOM     14  O   UNL     1       5.090   1.762  19.932  0.00  0.00    +0.000 OA
ATOM     15  H   UNL     1       2.992   1.566  21.178  0.00  0.00    +0.000 HD
ENDBRANCH   3   6
BRANCH   1  17
ATOM     16  C   UNL     1       7.824   8.157  17.654  0.00  0.00    +0.000 C 
ATOM     17  O   UNL     1       7.767   6.778  17.976  0.00  0.00    +0.000 OA
ENDBRANCH   1  17
BRANCH   5  18
ATOM     18  O   UNL     1       7.999   4.155  17.004  0.00  0.00    +0.000 OA
ATOM     19  H   UNL     1       8.634   4.819  17.334  0.00  0.00    +0.000 HD
ENDBRANCH   5  18
BRANCH   1  20
ATOM     20  C   UNL     1       5.484   7.023  17.058  0.00  0.00    +0.000 C 
BRANCH  20  21
ATOM     21  O   UNL     1       5.330   6.840  15.647  0.00  0.00    +0.000 OA
ATOM     22  H   UNL     1       4.412   6.549  15.498  0.00  0.00    +0.000 HD
ENDBRANCH  20  21
ENDBRANCH   1  20
TORSDOF 5
ENDMDL
MODEL 5
REMARK VINA RESULT:      -6.8      1.031      1.038
REMARK  Name = 
REMARK  7 active torsions:
REMARK  status: ('A' for Active; 'I' for Inactive)
REMARK    1  A    between atoms: C_1  and  O_2
REMARK    2  A    between atoms: O_2  and  C_3
REMARK    3  A    between atoms: C_3  and  C_4
REMARK    4  A    between atoms: C_4  and  O_5
REMARK    5  A    between atoms: C_7  and  N_8
REMARK    6  A    between atoms: C_10  and  C_11
REMARK    7  A    between atoms: C_18  and  O_19
REMARK                            x       y       z     vdW  Elec       q    Type
REMARK                         _______ _______ _______ _____ _____    ______ ____
ROOT
ATOM      1  C   UNL     1       3.605   2.858  19.730  0.00  0.00    +0.000 C 
ATOM      2  O   UNL     1       4.895   3.313  19.266  0.00  0.00    +0.000 OA
ATOM      3  C   UNL     1       4.790   4.677  18.837  0.00  0.00    +0.000 C 
ATOM      4  C   UNL     1       3.308   4.983  18.680  0.00  0.00    +0.000 C 
ATOM      5  C   UNL     1       2.717   4.125  19.782  0.00  0.00    +0.000 C 
ENDROOT
BRANCH   3   6
ATOM      6  N   UNL     1       5.576   4.886  17.630  0.00  0.00    +0.000 N 
ATOM      7  C   UNL     1       5.134   4.423  16.402  0.00  0.00    +0.000 A 
ATOM      8  C   UNL     1       5.845   4.560  15.279  0.00  0.00    +0.000 A 
ATOM      9  C   UNL     1       5.407   4.051  13.946  0.00  0.00    +0.000 C 
ATOM     10  C   UNL     1       7.158   5.244  15.366  0.00  0.00    +0.000 A 
ATOM     11  O   UNL     1       7.881   5.382  14.387  0.00  0.00    +0.000 OA
ATOM     12  N   UNL     1       7.506   5.705  16.603  0.00  0.00    +0.000 N 
ATOM     13  C   UNL     1       6.783   5.568  17.755  0.00  0.00    +0.000 A 
ATOM     14  O   UNL     1       7.203   6.027  18.810  0.00  0.00    +0.000 OA
ATOM     15  H   UNL     1       8.396   6.174  16.678  0.00  0.00    +0.000 HD
ENDBRANCH   3   6
BRANCH   1  17
ATOM     16  C   UNL     1       5.008   1.443  21.127  0.00  0.00    +0.000 C 
ATOM     17  O   UNL     1       3.841   2.235  20.994  0.00  0.00    +0.000 OA
ENDBRANCH   1  17
BRANCH   5  18
ATOM     18  O   UNL     1       2.823   4.851  21.012  0.00  0.00    +0.000 OA
ATOM     19  H   UNL     1       1.927   4.941  21.389  0.00  0.00    +0.000 HD
ENDBRANCH   5  18
BRANCH   1  20
ATOM     20  C   UNL     1       3.063   1.842  18.680  0.00  0.00    +0.000 C 
BRANCH  20  21
ATOM     21  O   UNL     1       4.086   1.332  17.820  0.00  0.00    +0.000 OA
ATOM     22  H   UNL     1       4.455   0.543  18.257  0.00  0.00    +0.000 HD
ENDBRANCH  20  21
ENDBRANCH   1  20
TORSDOF 5
ENDMDL
MODEL 6
REMARK VINA RESULT:      -6.7      1.990      2.935
REMARK  Name = 
REMARK  7 active torsions:
REMARK  status: ('A' for Active; 'I' for Inactive)
REMARK    1  A    between atoms: C_1  and  O_2
REMARK    2  A    between atoms: O_2  and  C_3
REMARK    3  A    between atoms: C_3  and  C_4
REMARK    4  A    between atoms: C_4  and  O_5
REMARK    5  A    between atoms: C_7  and  N_8
REMARK    6  A    between atoms: C_10  and  C_11
REMARK    7  A    between atoms: C_18  and  O_19
REMARK                            x       y       z     vdW  Elec       q    Type
REMARK                         _______ _______ _______ _____ _____    ______ ____
ROOT
ATOM      1  C   UNL     1       2.653   2.420  19.538  0.00  0.00    +0.000 C 
ATOM      2  O   UNL     1       3.160   3.774  19.528  0.00  0.00    +0.000 OA
ATOM      3  C   UNL     1       2.842   4.390  18.273  0.00  0.00    +0.000 C 
ATOM      4  C   UNL     1       2.443   3.275  17.317  0.00  0.00    +0.000 C 
ATOM      5  C   UNL     1       1.774   2.302  18.269  0.00  0.00    +0.000 C 
ENDROOT
BRANCH   3   6
ATOM      6  N   UNL     1       3.959   5.201  17.815  0.00  0.00    +0.000 N 
ATOM      7  C   UNL     1       5.141   4.615  17.392  0.00  0.00    +0.000 A 
ATOM      8  C   UNL     1       6.202   5.327  17.002  0.00  0.00    +0.000 A 
ATOM      9  C   UNL     1       7.496   4.726  16.565  0.00  0.00    +0.000 C 
ATOM     10  C   UNL     1       6.093   6.805  17.023  0.00  0.00    +0.000 A 
ATOM     11  O   UNL     1       7.032   7.527  16.708  0.00  0.00    +0.000 OA
ATOM     12  N   UNL     1       4.885   7.307  17.414  0.00  0.00    +0.000 N 
ATOM     13  C   UNL     1       3.796   6.583  17.814  0.00  0.00    +0.000 A 
ATOM     14  O   UNL     1       2.762   7.150  18.145  0.00  0.00    +0.000 OA
ATOM     15  H   UNL     1       4.795   8.311  17.432  0.00  0.00    +0.000 HD
ENDBRANCH   3   6
BRANCH   1  17
ATOM     16  C   UNL     1       1.986   3.362  21.680  0.00  0.00    +0.000 C 
ATOM     17  O   UNL     1       1.951   2.274  20.774  0.00  0.00    +0.000 OA
ENDBRANCH   1  17
BRANCH   5  18
ATOM     18  O   UNL     1       0.423   2.734  18.464  0.00  0.00    +0.000 OA
ATOM     19  H   UNL     1       0.182   3.321  17.721  0.00  0.00    +0.000 HD
ENDBRANCH   5  18
BRANCH   1  20
ATOM     20  C   UNL     1       3.879   1.462  19.456  0.00  0.00    +0.000 C 
BRANCH  20  21
ATOM     21  O   UNL     1       5.091   2.070  19.911  0.00  0.00    +0.000 OA
ATOM     22  H   UNL     1       5.080   2.030  20.885  0.00  0.00    +0.000 HD
ENDBRANCH  20  21
ENDBRANCH   1  20
TORSDOF 5
ENDMDL
MODEL 7
REMARK VINA RESULT:      -6.7      1.258      1.682
REMARK  Name = 
REMARK  7 active torsions:
REMARK  status: ('A' for Active; 'I' for Inactive)
REMARK    1  A    between atoms: C_1  and  O_2
REMARK    2  A    between atoms: O_2  and  C_3
REMARK    3  A    between atoms: C_3  and  C_4
REMARK    4  A    between atoms: C_4  and  O_5
REMARK    5  A    between atoms: C_7  and  N_8
REMARK    6  A    between atoms: C_10  and  C_11
REMARK    7  A    between atoms: C_18  and  O_19
REMARK                            x       y       z     vdW  Elec       q    Type
REMARK                         _______ _______ _______ _____ _____    ______ ____
ROOT
ATOM      1  C   UNL     1       3.329   3.132  19.372  0.00  0.00    +0.000 C 
ATOM      2  O   UNL     1       4.224   4.155  18.881  0.00  0.00    +0.000 OA
ATOM      3  C   UNL     1       3.725   4.663  17.636  0.00  0.00    +0.000 C 
ATOM      4  C   UNL     1       2.678   3.676  17.139  0.00  0.00    +0.000 C 
ATOM      5  C   UNL     1       2.087   3.196  18.450  0.00  0.00    +0.000 C 
ENDROOT
BRANCH   3   6
ATOM      6  N   UNL     1       4.824   4.888  16.710  0.00  0.00    +0.000 N 
ATOM      7  C   UNL     1       4.905   4.191  15.515  0.00  0.00    +0.000 A 
ATOM      8  C   UNL     1       5.918   4.341  14.658  0.00  0.00    +0.000 A 
ATOM      9  C   UNL     1       6.046   3.588  13.377  0.00  0.00    +0.000 C 
ATOM     10  C   UNL     1       6.991   5.303  15.010  0.00  0.00    +0.000 A 
ATOM     11  O   UNL     1       7.967   5.475  14.290  0.00  0.00    +0.000 OA
ATOM     12  N   UNL     1       6.820   5.979  16.184  0.00  0.00    +0.000 N 
ATOM     13  C   UNL     1       5.785   5.829  17.065  0.00  0.00    +0.000 A 
ATOM     14  O   UNL     1       5.743   6.497  18.091  0.00  0.00    +0.000 OA
ATOM     15  H   UNL     1       7.541   6.638  16.436  0.00  0.00    +0.000 HD
ENDBRANCH   3   6
BRANCH   1  17
ATOM     16  C   UNL     1       2.202   2.611  21.465  0.00  0.00    +0.000 C 
ATOM     17  O   UNL     1       3.081   3.454  20.742  0.00  0.00    +0.000 OA
ENDBRANCH   1  17
BRANCH   5  18
ATOM     18  O   UNL     1       1.108   4.153  18.871  0.00  0.00    +0.000 OA
ATOM     19  H   UNL     1       0.349   3.666  19.244  0.00  0.00    +0.000 HD
ENDBRANCH   5  18
BRANCH   1  20
ATOM     20  C   UNL     1       4.060   1.763  19.226  0.00  0.00    +0.000 C 
BRANCH  20  21
ATOM     21  O   UNL     1       5.256   1.686  20.007  0.00  0.00    +0.000 OA
ATOM     22  H   UNL     1       5.983   1.476  19.392  0.00  0.00    +0.000 HD
ENDBRANCH  20  21
ENDBRANCH   1  20
TORSDOF 5
ENDMDL
MODEL 8
REMARK VINA RESULT:      -6.6      2.130      5.810
REMARK  Name = 
REMARK  7 active torsions:
REMARK  status: ('A' for Active; 'I' for Inactive)
REMARK    1  A    between atoms: C_1  and  O_2
REMARK    2  A    between atoms: O_2  and  C_3
REMARK    3  A    between atoms: C_3  and  C_4
REMARK    4  A    between atoms: C_4  and  O_5
REMARK    5  A    between atoms: C_7  and  N_8
REMARK    6  A    between atoms: C_10  and  C_11
REMARK    7  A    between atoms: C_18  and  O_19
REMARK                            x       y       z     vdW  Elec       q    Type
REMARK                         _______ _______ _______ _____ _____    ______ ____
ROOT
ATOM      1  C   UNL     1       6.451   5.273  16.491  0.00  0.00    +0.000 C 
ATOM      2  O   UNL     1       5.439   4.277  16.761  0.00  0.00    +0.000 OA
ATOM      3  C   UNL     1       4.216   4.931  17.126  0.00  0.00    +0.000 C 
ATOM      4  C   UNL     1       4.563   6.376  17.454  0.00  0.00    +0.000 C 
ATOM      5  C   UNL     1       5.701   6.628  16.484  0.00  0.00    +0.000 C 
ENDROOT
BRANCH   3   6
ATOM      6  N   UNL     1       3.566   4.210  18.209  0.00  0.00    +0.000 N 
ATOM      7  C   UNL     1       4.294   3.405  19.070  0.00  0.00    +0.000 A 
ATOM      8  C   UNL     1       3.728   2.697  20.051  0.00  0.00    +0.000 A 
ATOM      9  C   UNL     1       4.482   1.802  20.977  0.00  0.00    +0.000 C 
ATOM     10  C   UNL     1       2.258   2.792  20.218  0.00  0.00    +0.000 A 
ATOM     11  O   UNL     1       1.662   2.151  21.076  0.00  0.00    +0.000 OA
ATOM     12  N   UNL     1       1.615   3.635  19.357  0.00  0.00    +0.000 N 
ATOM     13  C   UNL     1       2.190   4.362  18.351  0.00  0.00    +0.000 A 
ATOM     14  O   UNL     1       1.505   5.087  17.641  0.00  0.00    +0.000 OA
ATOM     15  H   UNL     1       0.615   3.711  19.460  0.00  0.00    +0.000 HD
ENDBRANCH   3   6
BRANCH   1  17
ATOM     16  C   UNL     1       6.367   3.932  14.462  0.00  0.00    +0.000 C 
ATOM     17  O   UNL     1       7.040   4.903  15.243  0.00  0.00    +0.000 OA
ENDBRANCH   1  17
BRANCH   5  18
ATOM     18  O   UNL     1       5.133   6.963  15.213  0.00  0.00    +0.000 OA
ATOM     19  H   UNL     1       4.499   6.261  14.970  0.00  0.00    +0.000 HD
ENDBRANCH   5  18
BRANCH   1  20
ATOM     20  C   UNL     1       7.485   5.216  17.655  0.00  0.00    +0.000 C 
BRANCH  20  21
ATOM     21  O   UNL     1       8.253   4.009  17.658  0.00  0.00    +0.000 OA
ATOM     22  H   UNL     1       8.860   4.060  18.418  0.00  0.00    +0.000 HD
ENDBRANCH  20  21
ENDBRANCH   1  20
TORSDOF 5
ENDMDL
MODEL 9
REMARK VINA RESULT:      -6.5      2.762      5.751
REMARK  Name = 
REMARK  7 active torsions:
REMARK  status: ('A' for Active; 'I' for Inactive)
REMARK    1  A    between atoms: C_1  and  O_2
REMARK    2  A    between atoms: O_2  and  C_3
REMARK    3  A    between atoms: C_3  and  C_4
REMARK    4  A    between atoms: C_4  and  O_5
REMARK    5  A    between atoms: C_7  and  N_8
REMARK    6  A    between atoms: C_10  and  C_11
REMARK    7  A    between atoms: C_18  and  O_19
REMARK                            x       y       z     vdW  Elec       q    Type
REMARK                         _______ _______ _______ _____ _____    ______ ____
ROOT
ATOM      1  C   UNL     1       5.357   4.843  17.009  0.00  0.00    +0.000 C 
ATOM      2  O   UNL     1       4.972   5.545  18.213  0.00  0.00    +0.000 OA
ATOM      3  C   UNL     1       3.677   5.091  18.631  0.00  0.00    +0.000 C 
ATOM      4  C   UNL     1       3.063   4.345  17.455  0.00  0.00    +0.000 C 
ATOM      5  C   UNL     1       4.299   3.728  16.827  0.00  0.00    +0.000 C 
ENDROOT
BRANCH   3   6
ATOM      6  N   UNL     1       2.883   6.212  19.110  0.00  0.00    +0.000 N 
ATOM      7  C   UNL     1       2.723   7.353  18.342  0.00  0.00    +0.000 A 
ATOM      8  C   UNL     1       2.035   8.418  18.763  0.00  0.00    +0.000 A 
ATOM      9  C   UNL     1       1.866   9.670  17.970  0.00  0.00    +0.000 C 
ATOM     10  C   UNL     1       1.417   8.358  20.109  0.00  0.00    +0.000 A 
ATOM     11  O   UNL     1       0.795   9.304  20.578  0.00  0.00    +0.000 OA
ATOM     12  N   UNL     1       1.586   7.186  20.789  0.00  0.00    +0.000 N 
ATOM     13  C   UNL     1       2.289   6.093  20.363  0.00  0.00    +0.000 A 
ATOM     14  O   UNL     1       2.370   5.095  21.067  0.00  0.00    +0.000 OA
ATOM     15  H   UNL     1       1.169   7.130  21.706  0.00  0.00    +0.000 HD
ENDBRANCH   3   6
BRANCH   1  17
ATOM     16  C   UNL     1       7.494   5.114  18.142  0.00  0.00    +0.000 C 
ATOM     17  O   UNL     1       6.689   4.379  17.237  0.00  0.00    +0.000 OA
ENDBRANCH   1  17
BRANCH   5  18
ATOM     18  O   UNL     1       4.603   2.525  17.541  0.00  0.00    +0.000 OA
ATOM     19  H   UNL     1       5.378   2.109  17.116  0.00  0.00    +0.000 HD
ENDBRANCH   5  18
BRANCH   1  20
ATOM     20  C   UNL     1       5.297   5.864  15.834  0.00  0.00    +0.000 C 
BRANCH  20  21
ATOM     21  O   UNL     1       6.317   5.645  14.855  0.00  0.00    +0.000 OA
ATOM     22  H   UNL     1       6.212   6.337  14.176  0.00  0.00    +0.000 HD
ENDBRANCH  20  21
ENDBRANCH   1  20
TORSDOF 5
ENDMDL
