MODEL 1
REMARK VINA RESULT:      -8.6      0.000      0.000
REMARK  Name = 
REMARK  5 active torsions:
REMARK  status: ('A' for Active; 'I' for Inactive)
REMARK    1  A    between atoms: C_1  and  O_2
REMARK    2  A    between atoms: O_2  and  C_3
REMARK    3  A    between atoms: C_6  and  N_7
REMARK    4  A    between atoms: C_13  and  C_14
REMARK    5  A    between atoms: C_23  and  C_24
REMARK                            x       y       z     vdW  Elec       q    Type
REMARK                         _______ _______ _______ _____ _____    ______ ____
ROOT
ATOM      1  N   UNL     1       2.042   7.714  20.982  0.00  0.00    +0.000 N 
ATOM      2  C   UNL     1       1.120   8.733  21.291  0.00  0.00    +0.000 A 
ATOM      3  N   UNL     1       1.129   9.063  22.597  0.00  0.00    +0.000 NA
ATOM      4  N   UNL     1       0.325  10.048  23.060  0.00  0.00    +0.000 NA
ATOM      5  C   UNL     1      -0.427  10.738  22.203  0.00  0.00    +0.000 A 
ATOM      6  C   UNL     1      -1.219  11.759  22.723  0.00  0.00    +0.000 A 
ATOM      7  C   UNL     1      -1.970  12.644  21.938  0.00  0.00    +0.000 A 
ATOM      8  C   UNL     1      -1.915  12.387  20.566  0.00  0.00    +0.000 A 
ATOM      9  C   UNL     1      -1.216  11.268  20.023  0.00  0.00    +0.000 A 
ATOM     10  C   UNL     1      -1.413  10.971  18.559  0.00  0.00    +0.000 C 
ATOM     11  C   UNL     1      -0.415  10.430  20.838  0.00  0.00    +0.000 A 
ATOM     12  N   UNL     1       0.351   9.382  20.387  0.00  0.00    +0.000 NA
ATOM     13  H   UNL     1       2.519   7.496  21.850  0.00  0.00    +0.000 HD
ENDROOT
BRANCH   7  14
ATOM     14  C   UNL     1      -2.804  13.721  22.582  0.00  0.00    +0.000 A 
ATOM     15  C   UNL     1      -2.216  14.786  23.323  0.00  0.00    +0.000 A 
ATOM     16 CL   UNL     1      -0.519  15.166  23.268  0.00  0.00    +0.000 Cl
ATOM     17  C   UNL     1      -2.975  15.658  24.124  0.00  0.00    +0.000 A 
ATOM     18  C   UNL     1      -4.357  15.570  24.148  0.00  0.00    +0.000 A 
ATOM     19  C   UNL     1      -4.980  14.620  23.351  0.00  0.00    +0.000 A 
ATOM     20  C   UNL     1      -4.225  13.700  22.597  0.00  0.00    +0.000 A 
ATOM     21 CL   UNL     1      -5.188  12.528  21.752  0.00  0.00    +0.000 Cl
ENDBRANCH   7  14
BRANCH   1  25
ATOM     22  C   UNL     1       1.864   4.319  18.447  0.00  0.00    +0.000 A 
ATOM     23  C   UNL     1       2.367   5.531  17.971  0.00  0.00    +0.000 A 
ATOM     24  C   UNL     1       2.453   6.659  18.797  0.00  0.00    +0.000 A 
ATOM     25  C   UNL     1       1.992   6.616  20.109  0.00  0.00    +0.000 A 
ATOM     26  C   UNL     1       1.509   5.380  20.589  0.00  0.00    +0.000 A 
ATOM     27  C   UNL     1       1.440   4.240  19.770  0.00  0.00    +0.000 A 
BRANCH  22  29
ATOM     28  C   UNL     1       2.567   2.153  17.752  0.00  0.00    +0.000 C 
ATOM     29  O   UNL     1       1.797   3.325  17.514  0.00  0.00    +0.000 OA
ENDBRANCH  22  29
ENDBRANCH   1  25
TORSDOF 3
ENDMDL
MODEL 2
REMARK VINA RESULT:      -8.5      0.615      1.825
REMARK  Name = 
REMARK  5 active torsions:
REMARK  status: ('A' for Active; 'I' for Inactive)
REMARK    1  A    between atoms: C_1  and  O_2
REMARK    2  A    between atoms: O_2  and  C_3
REMARK    3  A    between atoms: C_6  and  N_7
REMARK    4  A    between atoms: C_13  and  C_14
REMARK    5  A    between atoms: C_23  and  C_24
REMARK                            x       y       z     vdW  Elec       q    Type
REMARK                         _______ _______ _______ _____ _____    ______ ____
ROOT
ATOM      1  N   UNL     1       1.937   8.042  21.294  0.00  0.00    +0.000 N 
ATOM      2  C   UNL     1       0.953   8.999  21.608  0.00  0.00    +0.000 A 
ATOM      3  N   UNL     1       0.824   9.196  22.934  0.00  0.00    +0.000 NA
ATOM      4  N   UNL     1      -0.058  10.107  23.408  0.00  0.00    +0.000 NA
ATOM      5  C   UNL     1      -0.748  10.859  22.551  0.00  0.00    +0.000 A 
ATOM      6  C   UNL     1      -1.624  11.801  23.087  0.00  0.00    +0.000 A 
ATOM      7  C   UNL     1      -2.328  12.739  22.320  0.00  0.00    +0.000 A 
ATOM      8  C   UNL     1      -2.132  12.622  20.942  0.00  0.00    +0.000 A 
ATOM      9  C   UNL     1      -1.343  11.584  20.366  0.00  0.00    +0.000 A 
ATOM     10  C   UNL     1      -1.387  11.430  18.868  0.00  0.00    +0.000 C 
ATOM     11  C   UNL     1      -0.594  10.690  21.171  0.00  0.00    +0.000 A 
ATOM     12  N   UNL     1       0.251   9.714  20.699  0.00  0.00    +0.000 NA
ATOM     13  H   UNL     1       2.337   7.751  22.179  0.00  0.00    +0.000 HD
ENDROOT
BRANCH   7  14
ATOM     14  C   UNL     1      -3.261  13.722  22.980  0.00  0.00    +0.000 A 
ATOM     15  C   UNL     1      -4.646  13.780  22.655  0.00  0.00    +0.000 A 
ATOM     16 CL   UNL     1      -5.472  12.533  21.765  0.00  0.00    +0.000 Cl
ATOM     17  C   UNL     1      -5.478  14.833  23.075  0.00  0.00    +0.000 A 
ATOM     18  C   UNL     1      -4.992  15.821  23.916  0.00  0.00    +0.000 A 
ATOM     19  C   UNL     1      -3.678  15.741  24.352  0.00  0.00    +0.000 A 
ATOM     20  C   UNL     1      -2.820  14.727  23.884  0.00  0.00    +0.000 A 
ATOM     21 CL   UNL     1      -1.190  14.862  24.465  0.00  0.00    +0.000 Cl
ENDBRANCH   7  14
BRANCH   1  25
ATOM     22  C   UNL     1       2.149   4.914  18.439  0.00  0.00    +0.000 A 
ATOM     23  C   UNL     1       2.500   6.218  18.086  0.00  0.00    +0.000 A 
ATOM     24  C   UNL     1       2.457   7.262  19.019  0.00  0.00    +0.000 A 
ATOM     25  C   UNL     1       2.013   7.036  20.317  0.00  0.00    +0.000 A 
ATOM     26  C   UNL     1       1.685   5.711  20.673  0.00  0.00    +0.000 A 
ATOM     27  C   UNL     1       1.747   4.656  19.746  0.00  0.00    +0.000 A 
BRANCH  22  29
ATOM     28  C   UNL     1       2.563   2.678  17.732  0.00  0.00    +0.000 C 
ATOM     29  O   UNL     1       2.195   4.014  17.413  0.00  0.00    +0.000 OA
ENDBRANCH  22  29
ENDBRANCH   1  25
TORSDOF 3
ENDMDL
MODEL 3
REMARK VINA RESULT:      -8.4      0.491      1.024
REMARK  Name = 
REMARK  5 active torsions:
REMARK  status: ('A' for Active; 'I' for Inactive)
REMARK    1  A    between atoms: C_1  and  O_2
REMARK    2  A    between atoms: O_2  and  C_3
REMARK    3  A    between atoms: C_6  and  N_7
REMARK    4  A    between atoms: C_13  and  C_14
REMARK    5  A    between atoms: C_23  and  C_24
REMARK                            x       y       z     vdW  Elec       q    Type
REMARK                         _______ _______ _______ _____ _____    ______ ____
ROOT
ATOM      1  N   UNL     1       1.953   8.010  21.270  0.00  0.00    +0.000 N 
ATOM      2  C   UNL     1       0.980   8.995  21.526  0.00  0.00    +0.000 A 
ATOM      3  N   UNL     1       0.831   9.250  22.840  0.00  0.00    +0.000 NA
ATOM      4  N   UNL     1      -0.042  10.196  23.259  0.00  0.00    +0.000 NA
ATOM      5  C   UNL     1      -0.704  10.922  22.359  0.00  0.00    +0.000 A 
ATOM      6  C   UNL     1      -1.573  11.900  22.839  0.00  0.00    +0.000 A 
ATOM      7  C   UNL     1      -2.246  12.817  22.022  0.00  0.00    +0.000 A 
ATOM      8  C   UNL     1      -2.027  12.639  20.653  0.00  0.00    +0.000 A 
ATOM      9  C   UNL     1      -1.247  11.564  20.135  0.00  0.00    +0.000 A 
ATOM     10  C   UNL     1      -1.267  11.349  18.644  0.00  0.00    +0.000 C 
ATOM     11  C   UNL     1      -0.528  10.693  20.990  0.00  0.00    +0.000 A 
ATOM     12  N   UNL     1       0.308   9.684  20.575  0.00  0.00    +0.000 NA
ATOM     13  H   UNL     1       2.331   7.749  22.174  0.00  0.00    +0.000 HD
ENDROOT
BRANCH   7  14
ATOM     14  C   UNL     1      -3.172  13.843  22.622  0.00  0.00    +0.000 A 
ATOM     15  C   UNL     1      -2.688  14.912  23.429  0.00  0.00    +0.000 A 
ATOM     16 CL   UNL     1      -1.009  15.362  23.515  0.00  0.00    +0.000 Cl
ATOM     17  C   UNL     1      -3.543  15.732  24.188  0.00  0.00    +0.000 A 
ATOM     18  C   UNL     1      -4.917  15.588  24.102  0.00  0.00    +0.000 A 
ATOM     19  C   UNL     1      -5.437  14.635  23.239  0.00  0.00    +0.000 A 
ATOM     20  C   UNL     1      -4.588  13.765  22.526  0.00  0.00    +0.000 A 
ATOM     21 CL   UNL     1      -5.433  12.576  21.584  0.00  0.00    +0.000 Cl
ENDBRANCH   7  14
BRANCH   1  25
ATOM     22  C   UNL     1       2.192   4.936  18.359  0.00  0.00    +0.000 A 
ATOM     23  C   UNL     1       1.796   4.643  19.665  0.00  0.00    +0.000 A 
ATOM     24  C   UNL     1       1.691   5.647  20.637  0.00  0.00    +0.000 A 
ATOM     25  C   UNL     1       2.028   6.963  20.338  0.00  0.00    +0.000 A 
ATOM     26  C   UNL     1       2.402   7.254  19.009  0.00  0.00    +0.000 A 
ATOM     27  C   UNL     1       2.488   6.254  18.025  0.00  0.00    +0.000 A 
BRANCH  22  29
ATOM     28  C   UNL     1       1.963   2.581  18.088  0.00  0.00    +0.000 C 
ATOM     29  O   UNL     1       2.294   3.850  17.538  0.00  0.00    +0.000 OA
ENDBRANCH  22  29
ENDBRANCH   1  25
TORSDOF 3
ENDMDL
MODEL 4
REMARK VINA RESULT:      -8.4      0.880      1.591
REMARK  Name = 
REMARK  5 active torsions:
REMARK  status: ('A' for Active; 'I' for Inactive)
REMARK    1  A    between atoms: C_1  and  O_2
REMARK    2  A    between atoms: O_2  and  C_3
REMARK    3  A    between atoms: C_6  and  N_7
REMARK    4  A    between atoms: C_13  and  C_14
REMARK    5  A    between atoms: C_23  and  C_24
REMARK                            x       y       z     vdW  Elec       q    Type
REMARK                         _______ _______ _______ _____ _____    ______ ____
ROOT
ATOM      1  N   UNL     1       2.098   7.672  20.908  0.00  0.00    +0.000 N 
ATOM      2  C   UNL     1       1.218   8.728  21.213  0.00  0.00    +0.000 A 
ATOM      3  N   UNL     1       1.341   9.157  22.483  0.00  0.00    +0.000 NA
ATOM      4  N   UNL     1       0.591  10.190  22.933  0.00  0.00    +0.000 NA
ATOM      5  C   UNL     1      -0.223  10.825  22.090  0.00  0.00    +0.000 A 
ATOM      6  C   UNL     1      -0.956  11.898  22.593  0.00  0.00    +0.000 A 
ATOM      7  C   UNL     1      -1.761  12.732  21.807  0.00  0.00    +0.000 A 
ATOM      8  C   UNL     1      -1.826  12.369  20.459  0.00  0.00    +0.000 A 
ATOM      9  C   UNL     1      -1.188  11.199  19.950  0.00  0.00    +0.000 A 
ATOM     10  C   UNL     1      -1.513  10.794  18.535  0.00  0.00    +0.000 C 
ATOM     11  C   UNL     1      -0.331  10.412  20.758  0.00  0.00    +0.000 A 
ATOM     12  N   UNL     1       0.382   9.319  20.328  0.00  0.00    +0.000 NA
ATOM     13  H   UNL     1       2.645   7.512  21.747  0.00  0.00    +0.000 HD
ENDROOT
BRANCH   7  14
ATOM     14  C   UNL     1      -2.525  13.870  22.432  0.00  0.00    +0.000 A 
ATOM     15  C   UNL     1      -3.586  13.646  23.356  0.00  0.00    +0.000 A 
ATOM     16 CL   UNL     1      -3.877  12.112  24.125  0.00  0.00    +0.000 Cl
ATOM     17  C   UNL     1      -4.461  14.669  23.764  0.00  0.00    +0.000 A 
ATOM     18  C   UNL     1      -4.260  15.975  23.350  0.00  0.00    +0.000 A 
ATOM     19  C   UNL     1      -3.169  16.260  22.542  0.00  0.00    +0.000 A 
ATOM     20  C   UNL     1      -2.327  15.231  22.074  0.00  0.00    +0.000 A 
ATOM     21 CL   UNL     1      -1.085  15.779  20.992  0.00  0.00    +0.000 Cl
ENDBRANCH   7  14
BRANCH   1  25
ATOM     22  C   UNL     1       1.658   4.097  18.670  0.00  0.00    +0.000 A 
ATOM     23  C   UNL     1       2.218   5.232  18.085  0.00  0.00    +0.000 A 
ATOM     24  C   UNL     1       2.392   6.417  18.811  0.00  0.00    +0.000 A 
ATOM     25  C   UNL     1       1.962   6.510  20.131  0.00  0.00    +0.000 A 
ATOM     26  C   UNL     1       1.419   5.350  20.723  0.00  0.00    +0.000 A 
ATOM     27  C   UNL     1       1.263   4.152  20.003  0.00  0.00    +0.000 A 
BRANCH  22  29
ATOM     28  C   UNL     1       2.608   2.142  17.699  0.00  0.00    +0.000 C 
ATOM     29  O   UNL     1       1.509   3.035  17.826  0.00  0.00    +0.000 OA
ENDBRANCH  22  29
ENDBRANCH   1  25
TORSDOF 3
ENDMDL
MODEL 5
REMARK VINA RESULT:      -8.3      0.445      2.013
REMARK  Name = 
REMARK  5 active torsions:
REMARK  status: ('A' for Active; 'I' for Inactive)
REMARK    1  A    between atoms: C_1  and  O_2
REMARK    2  A    between atoms: O_2  and  C_3
REMARK    3  A    between atoms: C_6  and  N_7
REMARK    4  A    between atoms: C_13  and  C_14
REMARK    5  A    between atoms: C_23  and  C_24
REMARK                            x       y       z     vdW  Elec       q    Type
REMARK                         _______ _______ _______ _____ _____    ______ ____
ROOT
ATOM      1  N   UNL     1       2.040   7.617  20.967  0.00  0.00    +0.000 N 
ATOM      2  C   UNL     1       1.148   8.678  21.217  0.00  0.00    +0.000 A 
ATOM      3  N   UNL     1       1.144   9.060  22.509  0.00  0.00    +0.000 NA
ATOM      4  N   UNL     1       0.365  10.089  22.916  0.00  0.00    +0.000 NA
ATOM      5  C   UNL     1      -0.346  10.769  22.017  0.00  0.00    +0.000 A 
ATOM      6  C   UNL     1      -1.112  11.836  22.481  0.00  0.00    +0.000 A 
ATOM      7  C   UNL     1      -1.817  12.713  21.646  0.00  0.00    +0.000 A 
ATOM      8  C   UNL     1      -1.745  12.400  20.287  0.00  0.00    +0.000 A 
ATOM      9  C   UNL     1      -1.075  11.238  19.803  0.00  0.00    +0.000 A 
ATOM     10  C   UNL     1      -1.254  10.889  18.348  0.00  0.00    +0.000 C 
ATOM     11  C   UNL     1      -0.319  10.406  20.666  0.00  0.00    +0.000 A 
ATOM     12  N   UNL     1       0.420   9.316  20.273  0.00  0.00    +0.000 NA
ATOM     13  H   UNL     1       2.493   7.418  21.852  0.00  0.00    +0.000 HD
ENDROOT
BRANCH   7  14
ATOM     14  C   UNL     1      -2.626  13.843  22.230  0.00  0.00    +0.000 A 
ATOM     15  C   UNL     1      -4.047  13.875  22.140  0.00  0.00    +0.000 A 
ATOM     16 CL   UNL     1      -5.009  12.496  21.689  0.00  0.00    +0.000 Cl
ATOM     17  C   UNL     1      -4.798  15.020  22.462  0.00  0.00    +0.000 A 
ATOM     18  C   UNL     1      -4.180  16.146  22.979  0.00  0.00    +0.000 A 
ATOM     19  C   UNL     1      -2.810  16.118  23.193  0.00  0.00    +0.000 A 
ATOM     20  C   UNL     1      -2.041  15.000  22.811  0.00  0.00    +0.000 A 
ATOM     21 CL   UNL     1      -0.335  15.203  23.065  0.00  0.00    +0.000 Cl
ENDBRANCH   7  14
BRANCH   1  25
ATOM     22  C   UNL     1       1.851   4.281  18.357  0.00  0.00    +0.000 A 
ATOM     23  C   UNL     1       1.413   4.171  19.677  0.00  0.00    +0.000 A 
ATOM     24  C   UNL     1       1.448   5.266  20.551  0.00  0.00    +0.000 A 
ATOM     25  C   UNL     1       1.969   6.487  20.137  0.00  0.00    +0.000 A 
ATOM     26  C   UNL     1       2.385   6.597  18.794  0.00  0.00    +0.000 A 
ATOM     27  C   UNL     1       2.332   5.507  17.908  0.00  0.00    +0.000 A 
BRANCH  22  29
ATOM     28  C   UNL     1       2.674   2.069  18.039  0.00  0.00    +0.000 C 
ATOM     29  O   UNL     1       1.801   3.119  17.641  0.00  0.00    +0.000 OA
ENDBRANCH  22  29
ENDBRANCH   1  25
TORSDOF 3
ENDMDL
MODEL 6
REMARK VINA RESULT:      -7.9      4.511     10.022
REMARK  Name = 
REMARK  5 active torsions:
REMARK  status: ('A' for Active; 'I' for Inactive)
REMARK    1  A    between atoms: C_1  and  O_2
REMARK    2  A    between atoms: O_2  and  C_3
REMARK    3  A    between atoms: C_6  and  N_7
REMARK    4  A    between atoms: C_13  and  C_14
REMARK    5  A    between atoms: C_23  and  C_24
REMARK                            x       y       z     vdW  Elec       q    Type
REMARK                         _______ _______ _______ _____ _____    ______ ____
ROOT
ATOM      1  N   UNL     1       0.113  11.963  19.903  0.00  0.00    +0.000 N 
ATOM      2  C   UNL     1       0.790  10.833  19.404  0.00  0.00    +0.000 A 
ATOM      3  N   UNL     1       1.404  11.072  18.229  0.00  0.00    +0.000 NA
ATOM      4  N   UNL     1       2.128  10.101  17.625  0.00  0.00    +0.000 NA
ATOM      5  C   UNL     1       2.287   8.926  18.234  0.00  0.00    +0.000 A 
ATOM      6  C   UNL     1       3.061   7.967  17.584  0.00  0.00    +0.000 A 
ATOM      7  C   UNL     1       3.413   6.734  18.148  0.00  0.00    +0.000 A 
ATOM      8  C   UNL     1       2.872   6.502  19.415  0.00  0.00    +0.000 A 
ATOM      9  C   UNL     1       1.972   7.414  20.042  0.00  0.00    +0.000 A 
ATOM     10  C   UNL     1       1.284   6.954  21.301  0.00  0.00    +0.000 C 
ATOM     11  C   UNL     1       1.685   8.680  19.473  0.00  0.00    +0.000 A 
ATOM     12  N   UNL     1       0.895   9.647  20.046  0.00  0.00    +0.000 NA
ATOM     13  H   UNL     1       0.289  12.709  19.240  0.00  0.00    +0.000 HD
ENDROOT
BRANCH   7  14
ATOM     14  C   UNL     1       4.253   5.750  17.375  0.00  0.00    +0.000 A 
ATOM     15  C   UNL     1       5.548   6.087  16.886  0.00  0.00    +0.000 A 
ATOM     16 CL   UNL     1       6.435   7.488  17.414  0.00  0.00    +0.000 Cl
ATOM     17  C   UNL     1       6.242   5.278  15.968  0.00  0.00    +0.000 A 
ATOM     18  C   UNL     1       5.724   4.056  15.573  0.00  0.00    +0.000 A 
ATOM     19  C   UNL     1       4.519   3.635  16.114  0.00  0.00    +0.000 A 
ATOM     20  C   UNL     1       3.784   4.467  16.981  0.00  0.00    +0.000 A 
ATOM     21 CL   UNL     1       2.255   3.802  17.465  0.00  0.00    +0.000 Cl
ENDBRANCH   7  14
BRANCH   1  25
ATOM     22  C   UNL     1      -3.628  12.495  21.827  0.00  0.00    +0.000 A 
ATOM     23  C   UNL     1      -2.488  12.188  22.571  0.00  0.00    +0.000 A 
ATOM     24  C   UNL     1      -1.238  12.028  21.958  0.00  0.00    +0.000 A 
ATOM     25  C   UNL     1      -1.108  12.122  20.577  0.00  0.00    +0.000 A 
ATOM     26  C   UNL     1      -2.260  12.458  19.835  0.00  0.00    +0.000 A 
ATOM     27  C   UNL     1      -3.512  12.640  20.448  0.00  0.00    +0.000 A 
BRANCH  22  29
ATOM     28  C   UNL     1      -4.702  13.185  23.837  0.00  0.00    +0.000 C 
ATOM     29  O   UNL     1      -4.780  12.573  22.556  0.00  0.00    +0.000 OA
ENDBRANCH  22  29
ENDBRANCH   1  25
TORSDOF 3
ENDMDL
MODEL 7
REMARK VINA RESULT:      -7.9      1.287      1.336
REMARK  Name = 
REMARK  5 active torsions:
REMARK  status: ('A' for Active; 'I' for Inactive)
REMARK    1  A    between atoms: C_1  and  O_2
REMARK    2  A    between atoms: O_2  and  C_3
REMARK    3  A    between atoms: C_6  and  N_7
REMARK    4  A    between atoms: C_13  and  C_14
REMARK    5  A    between atoms: C_23  and  C_24
REMARK                            x       y       z     vdW  Elec       q    Type
REMARK                         _______ _______ _______ _____ _____    ______ ____
ROOT
ATOM      1  N   UNL     1       2.094   7.726  20.672  0.00  0.00    +0.000 N 
ATOM      2  C   UNL     1       1.216   8.820  20.793  0.00  0.00    +0.000 A 
ATOM      3  N   UNL     1       1.329   9.449  21.979  0.00  0.00    +0.000 NA
ATOM      4  N   UNL     1       0.579  10.543  22.248  0.00  0.00    +0.000 NA
ATOM      5  C   UNL     1      -0.224  11.036  21.306  0.00  0.00    +0.000 A 
ATOM      6  C   UNL     1      -0.957  12.178  21.622  0.00  0.00    +0.000 A 
ATOM      7  C   UNL     1      -1.751  12.876  20.702  0.00  0.00    +0.000 A 
ATOM      8  C   UNL     1      -1.804  12.300  19.431  0.00  0.00    +0.000 A 
ATOM      9  C   UNL     1      -1.167  11.062  19.123  0.00  0.00    +0.000 A 
ATOM     10  C   UNL     1      -1.480  10.434  17.790  0.00  0.00    +0.000 C 
ATOM     11  C   UNL     1      -0.321  10.413  20.056  0.00  0.00    +0.000 A 
ATOM     12  N   UNL     1       0.392   9.263  19.816  0.00  0.00    +0.000 NA
ATOM     13  H   UNL     1       2.633   7.703  21.531  0.00  0.00    +0.000 HD
ENDROOT
BRANCH   7  14
ATOM     14  C   UNL     1      -2.516  14.103  21.128  0.00  0.00    +0.000 A 
ATOM     15  C   UNL     1      -2.019  15.418  20.897  0.00  0.00    +0.000 A 
ATOM     16 CL   UNL     1      -0.702  15.765  19.814  0.00  0.00    +0.000 Cl
ATOM     17  C   UNL     1      -2.592  16.557  21.490  0.00  0.00    +0.000 A 
ATOM     18  C   UNL     1      -3.740  16.449  22.258  0.00  0.00    +0.000 A 
ATOM     19  C   UNL     1      -4.325  15.202  22.414  0.00  0.00    +0.000 A 
ATOM     20  C   UNL     1      -3.721  14.047  21.880  0.00  0.00    +0.000 A 
ATOM     21 CL   UNL     1      -4.551  12.574  22.275  0.00  0.00    +0.000 Cl
ENDBRANCH   7  14
BRANCH   1  25
ATOM     22  C   UNL     1       1.656   3.839  19.037  0.00  0.00    +0.000 A 
ATOM     23  C   UNL     1       2.253   4.856  18.291  0.00  0.00    +0.000 A 
ATOM     24  C   UNL     1       2.426   6.142  18.819  0.00  0.00    +0.000 A 
ATOM     25  C   UNL     1       1.960   6.455  20.091  0.00  0.00    +0.000 A 
ATOM     26  C   UNL     1       1.382   5.415  20.848  0.00  0.00    +0.000 A 
ATOM     27  C   UNL     1       1.225   4.117  20.330  0.00  0.00    +0.000 A 
BRANCH  22  29
ATOM     28  C   UNL     1       2.633   2.179  17.637  0.00  0.00    +0.000 C 
ATOM     29  O   UNL     1       1.513   2.654  18.373  0.00  0.00    +0.000 OA
ENDBRANCH  22  29
ENDBRANCH   1  25
TORSDOF 3
ENDMDL
MODEL 8
REMARK VINA RESULT:      -7.8      4.431     10.069
REMARK  Name = 
REMARK  5 active torsions:
REMARK  status: ('A' for Active; 'I' for Inactive)
REMARK    1  A    between atoms: C_1  and  O_2
REMARK    2  A    between atoms: O_2  and  C_3
REMARK    3  A    between atoms: C_6  and  N_7
REMARK    4  A    between atoms: C_13  and  C_14
REMARK    5  A    between atoms: C_23  and  C_24
REMARK                            x       y       z     vdW  Elec       q    Type
REMARK                         _______ _______ _______ _____ _____    ______ ____
ROOT
ATOM      1  N   UNL     1      -0.041  12.076  20.092  0.00  0.00    +0.000 N 
ATOM      2  C   UNL     1       0.609  10.937  19.577  0.00  0.00    +0.000 A 
ATOM      3  N   UNL     1       1.171  11.159  18.373  0.00  0.00    +0.000 NA
ATOM      4  N   UNL     1       1.864  10.177  17.750  0.00  0.00    +0.000 NA
ATOM      5  C   UNL     1       2.046   9.010  18.367  0.00  0.00    +0.000 A 
ATOM      6  C   UNL     1       2.787   8.040  17.695  0.00  0.00    +0.000 A 
ATOM      7  C   UNL     1       3.161   6.813  18.259  0.00  0.00    +0.000 A 
ATOM      8  C   UNL     1       2.676   6.600  19.551  0.00  0.00    +0.000 A 
ATOM      9  C   UNL     1       1.807   7.522  20.206  0.00  0.00    +0.000 A 
ATOM     10  C   UNL     1       1.175   7.081  21.500  0.00  0.00    +0.000 C 
ATOM     11  C   UNL     1       1.500   8.782  19.634  0.00  0.00    +0.000 A 
ATOM     12  N   UNL     1       0.739   9.759  20.229  0.00  0.00    +0.000 NA
ATOM     13  H   UNL     1       0.107  12.814  19.412  0.00  0.00    +0.000 HD
ENDROOT
BRANCH   7  14
ATOM     14  C   UNL     1       3.962   5.816  17.461  0.00  0.00    +0.000 A 
ATOM     15  C   UNL     1       3.481   4.501  17.201  0.00  0.00    +0.000 A 
ATOM     16 CL   UNL     1       1.826   4.021  17.446  0.00  0.00    +0.000 Cl
ATOM     17  C   UNL     1       4.301   3.488  16.672  0.00  0.00    +0.000 A 
ATOM     18  C   UNL     1       5.602   3.764  16.287  0.00  0.00    +0.000 A 
ATOM     19  C   UNL     1       6.076   5.061  16.415  0.00  0.00    +0.000 A 
ATOM     20  C   UNL     1       5.285   6.066  17.006  0.00  0.00    +0.000 A 
ATOM     21 CL   UNL     1       6.095   7.593  17.170  0.00  0.00    +0.000 Cl
ENDBRANCH   7  14
BRANCH   1  25
ATOM     22  C   UNL     1      -3.692  12.641  22.172  0.00  0.00    +0.000 A 
ATOM     23  C   UNL     1      -2.511  12.392  22.872  0.00  0.00    +0.000 A 
ATOM     24  C   UNL     1      -1.290  12.222  22.206  0.00  0.00    +0.000 A 
ATOM     25  C   UNL     1      -1.230  12.249  20.817  0.00  0.00    +0.000 A 
ATOM     26  C   UNL     1      -2.424  12.527  20.118  0.00  0.00    +0.000 A 
ATOM     27  C   UNL     1      -3.647  12.719  20.784  0.00  0.00    +0.000 A 
BRANCH  22  29
ATOM     28  C   UNL     1      -4.651  12.506  24.347  0.00  0.00    +0.000 C 
ATOM     29  O   UNL     1      -4.808  12.737  22.953  0.00  0.00    +0.000 OA
ENDBRANCH  22  29
ENDBRANCH   1  25
TORSDOF 3
ENDMDL
MODEL 9
REMARK VINA RESULT:      -7.8      4.518      9.988
REMARK  Name = 
REMARK  5 active torsions:
REMARK  status: ('A' for Active; 'I' for Inactive)
REMARK    1  A    between atoms: C_1  and  O_2
REMARK    2  A    between atoms: O_2  and  C_3
REMARK    3  A    between atoms: C_6  and  N_7
REMARK    4  A    between atoms: C_13  and  C_14
REMARK    5  A    between atoms: C_23  and  C_24
REMARK                            x       y       z     vdW  Elec       q    Type
REMARK                         _______ _______ _______ _____ _____    ______ ____
ROOT
ATOM      1  N   UNL     1       0.179  11.944  19.961  0.00  0.00    +0.000 N 
ATOM      2  C   UNL     1       0.844  10.812  19.450  0.00  0.00    +0.000 A 
ATOM      3  N   UNL     1       1.474  11.062  18.285  0.00  0.00    +0.000 NA
ATOM      4  N   UNL     1       2.189  10.090  17.672  0.00  0.00    +0.000 NA
ATOM      5  C   UNL     1       2.325   8.903  18.263  0.00  0.00    +0.000 A 
ATOM      6  C   UNL     1       3.091   7.944  17.605  0.00  0.00    +0.000 A 
ATOM      7  C   UNL     1       3.420   6.696  18.152  0.00  0.00    +0.000 A 
ATOM      8  C   UNL     1       2.862   6.452  19.409  0.00  0.00    +0.000 A 
ATOM      9  C   UNL     1       1.969   7.366  20.042  0.00  0.00    +0.000 A 
ATOM     10  C   UNL     1       1.263   6.895  21.287  0.00  0.00    +0.000 C 
ATOM     11  C   UNL     1       1.707   8.645  19.492  0.00  0.00    +0.000 A 
ATOM     12  N   UNL     1       0.925   9.614  20.073  0.00  0.00    +0.000 NA
ATOM     13  H   UNL     1       0.373  12.699  19.312  0.00  0.00    +0.000 HD
ENDROOT
BRANCH   7  14
ATOM     14  C   UNL     1       4.252   5.713  17.370  0.00  0.00    +0.000 A 
ATOM     15  C   UNL     1       5.541   6.051  16.867  0.00  0.00    +0.000 A 
ATOM     16 CL   UNL     1       6.432   7.455  17.384  0.00  0.00    +0.000 Cl
ATOM     17  C   UNL     1       6.227   5.243  15.942  0.00  0.00    +0.000 A 
ATOM     18  C   UNL     1       5.707   4.020  15.554  0.00  0.00    +0.000 A 
ATOM     19  C   UNL     1       4.508   3.597  16.108  0.00  0.00    +0.000 A 
ATOM     20  C   UNL     1       3.782   4.429  16.983  0.00  0.00    +0.000 A 
ATOM     21 CL   UNL     1       2.259   3.762  17.483  0.00  0.00    +0.000 Cl
ENDBRANCH   7  14
BRANCH   1  25
ATOM     22  C   UNL     1      -3.469  12.394  22.074  0.00  0.00    +0.000 A 
ATOM     23  C   UNL     1      -3.426  12.578  20.692  0.00  0.00    +0.000 A 
ATOM     24  C   UNL     1      -2.236  12.415  19.972  0.00  0.00    +0.000 A 
ATOM     25  C   UNL     1      -1.046  12.110  20.625  0.00  0.00    +0.000 A 
ATOM     26  C   UNL     1      -1.104  11.900  22.019  0.00  0.00    +0.000 A 
ATOM     27  C   UNL     1      -2.301  12.043  22.743  0.00  0.00    +0.000 A 
BRANCH  22  29
ATOM     28  C   UNL     1      -5.682  13.235  21.825  0.00  0.00    +0.000 C 
ATOM     29  O   UNL     1      -4.686  12.635  22.644  0.00  0.00    +0.000 OA
ENDBRANCH  22  29
ENDBRANCH   1  25
TORSDOF 3
ENDMDL
