MODEL 1
REMARK VINA RESULT:      -8.0      0.000      0.000
REMARK  Name = 
REMARK  3 active torsions:
REMARK  status: ('A' for Active; 'I' for Inactive)
REMARK    1  A    between atoms: C_2  and  C_3
REMARK    2  A    between atoms: C_3  and  N_4
REMARK    3  A    between atoms: C_7  and  C_8
REMARK                            x       y       z     vdW  Elec       q    Type
REMARK                         _______ _______ _______ _____ _____    ______ ____
ROOT
ATOM      1  N   UNL     1       6.236   3.921  14.636  0.00  0.00    +0.000 N 
ATOM      2  C   UNL     1       6.015   4.808  15.706  0.00  0.00    +0.000 A 
ATOM      3  C   UNL     1       4.910   4.613  16.538  0.00  0.00    +0.000 A 
ATOM      4  C   UNL     1       4.716   5.473  17.626  0.00  0.00    +0.000 A 
ATOM      5  C   UNL     1       5.653   6.468  17.877  0.00  0.00    +0.000 A 
ATOM      6  C   UNL     1       6.726   6.556  17.020  0.00  0.00    +0.000 A 
ATOM      7 CL   UNL     1       7.930   7.752  17.236  0.00  0.00    +0.000 Cl
ATOM      8  N   UNL     1       6.929   5.754  15.963  0.00  0.00    +0.000 NA
ATOM      9  H   UNL     1       6.783   3.150  15.022  0.00  0.00    +0.000 HD
ENDROOT
BRANCH   4  10
ATOM     10  C   UNL     1       3.561   5.315  18.491  0.00  0.00    +0.000 A 
ATOM     11  C   UNL     1       3.129   6.302  19.364  0.00  0.00    +0.000 A 
ATOM     12  N   UNL     1       2.033   5.827  20.032  0.00  0.00    +0.000 N 
ATOM     13  C   UNL     1       1.751   4.555  19.619  0.00  0.00    +0.000 A 
ATOM     14  N   UNL     1       0.741   3.807  20.104  0.00  0.00    +0.000 NA
ATOM     15  C   UNL     1       0.685   2.580  19.540  0.00  0.00    +0.000 A 
ATOM     16  C   UNL     1       1.542   2.092  18.562  0.00  0.00    +0.000 A 
ATOM     17  C   UNL     1       2.567   2.911  18.099  0.00  0.00    +0.000 A 
ATOM     18  C   UNL     1       2.680   4.199  18.648  0.00  0.00    +0.000 A 
ATOM     19  H   UNL     1       1.499   6.315  20.736  0.00  0.00    +0.000 HD
ENDBRANCH   4  10
BRANCH   1  20
ATOM     20  C   UNL     1       6.977   4.561  13.544  0.00  0.00    +0.000 C 
BRANCH  20  22
ATOM     21  C   UNL     1       5.524   3.183  12.040  0.00  0.00    +0.000 C 
ATOM     22  C   UNL     1       6.684   3.802  12.279  0.00  0.00    +0.000 C 
ENDBRANCH  20  22
ENDBRANCH   1  20
TORSDOF 3
ENDMDL
MODEL 2
REMARK VINA RESULT:      -7.9      1.933      6.395
REMARK  Name = 
REMARK  3 active torsions:
REMARK  status: ('A' for Active; 'I' for Inactive)
REMARK    1  A    between atoms: C_2  and  C_3
REMARK    2  A    between atoms: C_3  and  N_4
REMARK    3  A    between atoms: C_7  and  C_8
REMARK                            x       y       z     vdW  Elec       q    Type
REMARK                         _______ _______ _______ _____ _____    ______ ____
ROOT
ATOM      1  N   UNL     1       1.507   3.115  18.196  0.00  0.00    +0.000 N 
ATOM      2  C   UNL     1       2.285   4.284  18.282  0.00  0.00    +0.000 A 
ATOM      3  C   UNL     1       3.443   4.392  17.509  0.00  0.00    +0.000 A 
ATOM      4  C   UNL     1       4.194   5.573  17.568  0.00  0.00    +0.000 A 
ATOM      5  C   UNL     1       3.742   6.622  18.358  0.00  0.00    +0.000 A 
ATOM      6  C   UNL     1       2.572   6.430  19.055  0.00  0.00    +0.000 A 
ATOM      7 CL   UNL     1       1.936   7.658  20.063  0.00  0.00    +0.000 Cl
ATOM      8  N   UNL     1       1.840   5.306  19.027  0.00  0.00    +0.000 NA
ATOM      9  H   UNL     1       0.859   3.269  17.421  0.00  0.00    +0.000 HD
ENDROOT
BRANCH   4  10
ATOM     10  C   UNL     1       5.418   5.704  16.799  0.00  0.00    +0.000 A 
ATOM     11  C   UNL     1       6.480   6.502  17.198  0.00  0.00    +0.000 A 
ATOM     12  N   UNL     1       7.461   6.409  16.247  0.00  0.00    +0.000 N 
ATOM     13  C   UNL     1       7.055   5.579  15.240  0.00  0.00    +0.000 A 
ATOM     14  N   UNL     1       7.791   5.299  14.146  0.00  0.00    +0.000 NA
ATOM     15  C   UNL     1       7.158   4.462  13.294  0.00  0.00    +0.000 A 
ATOM     16  C   UNL     1       5.894   3.917  13.475  0.00  0.00    +0.000 A 
ATOM     17  C   UNL     1       5.181   4.242  14.625  0.00  0.00    +0.000 A 
ATOM     18  C   UNL     1       5.785   5.110  15.550  0.00  0.00    +0.000 A 
ATOM     19  H   UNL     1       8.354   6.879  16.257  0.00  0.00    +0.000 HD
ENDBRANCH   4  10
BRANCH   1  20
ATOM     20  C   UNL     1       0.756   2.869  19.432  0.00  0.00    +0.000 C 
BRANCH  20  22
ATOM     21  C   UNL     1       1.783   2.853  21.715  0.00  0.00    +0.000 C 
ATOM     22  C   UNL     1       1.725   2.373  20.470  0.00  0.00    +0.000 C 
ENDBRANCH  20  22
ENDBRANCH   1  20
TORSDOF 3
ENDMDL
MODEL 3
REMARK VINA RESULT:      -7.8      2.141      4.112
REMARK  Name = 
REMARK  3 active torsions:
REMARK  status: ('A' for Active; 'I' for Inactive)
REMARK    1  A    between atoms: C_2  and  C_3
REMARK    2  A    between atoms: C_3  and  N_4
REMARK    3  A    between atoms: C_7  and  C_8
REMARK                            x       y       z     vdW  Elec       q    Type
REMARK                         _______ _______ _______ _____ _____    ______ ____
ROOT
ATOM      1  N   UNL     1       6.585   7.531  17.829  0.00  0.00    +0.000 N 
ATOM      2  C   UNL     1       6.187   6.319  17.234  0.00  0.00    +0.000 A 
ATOM      3  C   UNL     1       5.267   5.503  17.895  0.00  0.00    +0.000 A 
ATOM      4  C   UNL     1       4.843   4.318  17.281  0.00  0.00    +0.000 A 
ATOM      5  C   UNL     1       5.313   4.009  16.012  0.00  0.00    +0.000 A 
ATOM      6  C   UNL     1       6.189   4.895  15.429  0.00  0.00    +0.000 A 
ATOM      7 CL   UNL     1       6.833   4.601  13.871  0.00  0.00    +0.000 Cl
ATOM      8  N   UNL     1       6.622   6.030  15.999  0.00  0.00    +0.000 NA
ATOM      9  H   UNL     1       5.899   8.226  17.530  0.00  0.00    +0.000 HD
ENDROOT
BRANCH   4  10
ATOM     10  C   UNL     1       3.910   3.434  17.958  0.00  0.00    +0.000 A 
ATOM     11  C   UNL     1       3.660   2.136  17.537  0.00  0.00    +0.000 A 
ATOM     12  N   UNL     1       2.729   1.590  18.380  0.00  0.00    +0.000 N 
ATOM     13  C   UNL     1       2.366   2.506  19.328  0.00  0.00    +0.000 A 
ATOM     14  N   UNL     1       1.452   2.278  20.291  0.00  0.00    +0.000 NA
ATOM     15  C   UNL     1       1.264   3.349  21.094  0.00  0.00    +0.000 A 
ATOM     16  C   UNL     1       1.914   4.571  20.989  0.00  0.00    +0.000 A 
ATOM     17  C   UNL     1       2.849   4.748  19.974  0.00  0.00    +0.000 A 
ATOM     18  C   UNL     1       3.089   3.671  19.104  0.00  0.00    +0.000 A 
ATOM     19  H   UNL     1       2.343   0.659  18.328  0.00  0.00    +0.000 HD
ENDBRANCH   4  10
BRANCH   1  20
ATOM     20  C   UNL     1       7.926   7.935  17.394  0.00  0.00    +0.000 C 
BRANCH  20  22
ATOM     21  C   UNL     1       8.955   9.715  18.823  0.00  0.00    +0.000 C 
ATOM     22  C   UNL     1       8.142   9.360  17.825  0.00  0.00    +0.000 C 
ENDBRANCH  20  22
ENDBRANCH   1  20
TORSDOF 3
ENDMDL
MODEL 4
REMARK VINA RESULT:      -7.7      1.152      1.181
REMARK  Name = 
REMARK  3 active torsions:
REMARK  status: ('A' for Active; 'I' for Inactive)
REMARK    1  A    between atoms: C_2  and  C_3
REMARK    2  A    between atoms: C_3  and  N_4
REMARK    3  A    between atoms: C_7  and  C_8
REMARK                            x       y       z     vdW  Elec       q    Type
REMARK                         _______ _______ _______ _____ _____    ______ ____
ROOT
ATOM      1  N   UNL     1       6.369   3.746  14.494  0.00  0.00    +0.000 N 
ATOM      2  C   UNL     1       6.079   4.593  15.580  0.00  0.00    +0.000 A 
ATOM      3  C   UNL     1       4.952   4.336  16.364  0.00  0.00    +0.000 A 
ATOM      4  C   UNL     1       4.689   5.157  17.468  0.00  0.00    +0.000 A 
ATOM      5  C   UNL     1       5.580   6.175  17.781  0.00  0.00    +0.000 A 
ATOM      6  C   UNL     1       6.679   6.325  16.967  0.00  0.00    +0.000 A 
ATOM      7 CL   UNL     1       7.831   7.556  17.262  0.00  0.00    +0.000 Cl
ATOM      8  N   UNL     1       6.949   5.562  15.897  0.00  0.00    +0.000 NA
ATOM      9  H   UNL     1       6.929   2.983  14.878  0.00  0.00    +0.000 HD
ENDROOT
BRANCH   4  10
ATOM     10  C   UNL     1       3.509   4.933  18.285  0.00  0.00    +0.000 A 
ATOM     11  C   UNL     1       2.347   5.679  18.153  0.00  0.00    +0.000 A 
ATOM     12  N   UNL     1       1.444   5.221  19.076  0.00  0.00    +0.000 N 
ATOM     13  C   UNL     1       1.997   4.206  19.804  0.00  0.00    +0.000 A 
ATOM     14  N   UNL     1       1.366   3.560  20.805  0.00  0.00    +0.000 NA
ATOM     15  C   UNL     1       2.135   2.606  21.375  0.00  0.00    +0.000 A 
ATOM     16  C   UNL     1       3.435   2.281  21.010  0.00  0.00    +0.000 A 
ATOM     17  C   UNL     1       4.035   2.982  19.969  0.00  0.00    +0.000 A 
ATOM     18  C   UNL     1       3.287   3.989  19.336  0.00  0.00    +0.000 A 
ATOM     19  H   UNL     1       0.508   5.568  19.224  0.00  0.00    +0.000 HD
ENDBRANCH   4  10
BRANCH   1  20
ATOM     20  C   UNL     1       7.126   4.443  13.449  0.00  0.00    +0.000 C 
BRANCH  20  22
ATOM     21  C   UNL     1       5.766   2.938  11.980  0.00  0.00    +0.000 C 
ATOM     22  C   UNL     1       6.683   3.900  12.117  0.00  0.00    +0.000 C 
ENDBRANCH  20  22
ENDBRANCH   1  20
TORSDOF 3
ENDMDL
MODEL 5
REMARK VINA RESULT:      -7.7      2.769      4.197
REMARK  Name = 
REMARK  3 active torsions:
REMARK  status: ('A' for Active; 'I' for Inactive)
REMARK    1  A    between atoms: C_2  and  C_3
REMARK    2  A    between atoms: C_3  and  N_4
REMARK    3  A    between atoms: C_7  and  C_8
REMARK                            x       y       z     vdW  Elec       q    Type
REMARK                         _______ _______ _______ _____ _____    ______ ____
ROOT
ATOM      1  N   UNL     1       5.583   5.469  15.598  0.00  0.00    +0.000 N 
ATOM      2  C   UNL     1       4.736   5.048  16.640  0.00  0.00    +0.000 A 
ATOM      3  C   UNL     1       4.072   6.005  17.409  0.00  0.00    +0.000 A 
ATOM      4  C   UNL     1       3.198   5.582  18.419  0.00  0.00    +0.000 A 
ATOM      5  C   UNL     1       2.981   4.222  18.598  0.00  0.00    +0.000 A 
ATOM      6  C   UNL     1       3.656   3.359  17.766  0.00  0.00    +0.000 A 
ATOM      7 CL   UNL     1       3.465   1.665  17.910  0.00  0.00    +0.000 Cl
ATOM      8  N   UNL     1       4.507   3.737  16.799  0.00  0.00    +0.000 NA
ATOM      9  H   UNL     1       4.984   5.573  14.777  0.00  0.00    +0.000 HD
ENDROOT
BRANCH   4  10
ATOM     10  C   UNL     1       2.516   6.553  19.255  0.00  0.00    +0.000 A 
ATOM     11  C   UNL     1       2.110   6.280  20.553  0.00  0.00    +0.000 A 
ATOM     12  N   UNL     1       1.492   7.397  21.048  0.00  0.00    +0.000 N 
ATOM     13  C   UNL     1       1.482   8.381  20.099  0.00  0.00    +0.000 A 
ATOM     14  N   UNL     1       0.928   9.597  20.274  0.00  0.00    +0.000 NA
ATOM     15  C   UNL     1       1.039  10.382  19.180  0.00  0.00    +0.000 A 
ATOM     16  C   UNL     1       1.649  10.031  17.983  0.00  0.00    +0.000 A 
ATOM     17  C   UNL     1       2.205   8.761  17.860  0.00  0.00    +0.000 A 
ATOM     18  C   UNL     1       2.120   7.896  18.964  0.00  0.00    +0.000 A 
ATOM     19  H   UNL     1       1.088   7.504  21.966  0.00  0.00    +0.000 HD
ENDBRANCH   4  10
BRANCH   1  20
ATOM     20  C   UNL     1       6.638   4.487  15.324  0.00  0.00    +0.000 C 
BRANCH  20  22
ATOM     21  C   UNL     1       6.131   3.626  13.028  0.00  0.00    +0.000 C 
ATOM     22  C   UNL     1       6.836   4.425  13.834  0.00  0.00    +0.000 C 
ENDBRANCH  20  22
ENDBRANCH   1  20
TORSDOF 3
ENDMDL
MODEL 6
REMARK VINA RESULT:      -7.5      3.518      5.222
REMARK  Name = 
REMARK  3 active torsions:
REMARK  status: ('A' for Active; 'I' for Inactive)
REMARK    1  A    between atoms: C_2  and  C_3
REMARK    2  A    between atoms: C_3  and  N_4
REMARK    3  A    between atoms: C_7  and  C_8
REMARK                            x       y       z     vdW  Elec       q    Type
REMARK                         _______ _______ _______ _____ _____    ______ ____
ROOT
ATOM      1  N   UNL     1       5.843   5.806  16.685  0.00  0.00    +0.000 N 
ATOM      2  C   UNL     1       4.547   5.813  17.232  0.00  0.00    +0.000 A 
ATOM      3  C   UNL     1       3.959   7.031  17.579  0.00  0.00    +0.000 A 
ATOM      4  C   UNL     1       2.653   7.038  18.086  0.00  0.00    +0.000 A 
ATOM      5  C   UNL     1       1.961   5.838  18.186  0.00  0.00    +0.000 A 
ATOM      6  C   UNL     1       2.616   4.695  17.786  0.00  0.00    +0.000 A 
ATOM      7 CL   UNL     1       1.854   3.166  17.879  0.00  0.00    +0.000 Cl
ATOM      8  N   UNL     1       3.869   4.659  17.309  0.00  0.00    +0.000 NA
ATOM      9  H   UNL     1       5.721   5.923  15.678  0.00  0.00    +0.000 HD
ENDROOT
BRANCH   4  10
ATOM     10  C   UNL     1       2.026   8.285  18.483  0.00  0.00    +0.000 A 
ATOM     11  C   UNL     1       1.856   9.355  17.616  0.00  0.00    +0.000 A 
ATOM     12  N   UNL     1       1.249  10.369  18.309  0.00  0.00    +0.000 N 
ATOM     13  C   UNL     1       1.032   9.983  19.602  0.00  0.00    +0.000 A 
ATOM     14  N   UNL     1       0.468  10.768  20.542  0.00  0.00    +0.000 NA
ATOM     15  C   UNL     1       0.379  10.157  21.744  0.00  0.00    +0.000 A 
ATOM     16  C   UNL     1       0.799   8.866  22.036  0.00  0.00    +0.000 A 
ATOM     17  C   UNL     1       1.373   8.102  21.025  0.00  0.00    +0.000 A 
ATOM     18  C   UNL     1       1.497   8.683  19.751  0.00  0.00    +0.000 A 
ATOM     19  H   UNL     1       0.998  11.277  17.948  0.00  0.00    +0.000 HD
ENDBRANCH   4  10
BRANCH   1  20
ATOM     20  C   UNL     1       6.541   4.545  16.958  0.00  0.00    +0.000 C 
BRANCH  20  22
ATOM     21  C   UNL     1       7.643   5.692  18.893  0.00  0.00    +0.000 C 
ATOM     22  C   UNL     1       7.708   4.849  17.858  0.00  0.00    +0.000 C 
ENDBRANCH  20  22
ENDBRANCH   1  20
TORSDOF 3
ENDMDL
MODEL 7
REMARK VINA RESULT:      -7.4      4.173      6.741
REMARK  Name = 
REMARK  3 active torsions:
REMARK  status: ('A' for Active; 'I' for Inactive)
REMARK    1  A    between atoms: C_2  and  C_3
REMARK    2  A    between atoms: C_3  and  N_4
REMARK    3  A    between atoms: C_7  and  C_8
REMARK                            x       y       z     vdW  Elec       q    Type
REMARK                         _______ _______ _______ _____ _____    ______ ____
ROOT
ATOM      1  N   UNL     1       0.494  10.694  17.821  0.00  0.00    +0.000 N 
ATOM      2  C   UNL     1       0.957   9.628  18.615  0.00  0.00    +0.000 A 
ATOM      3  C   UNL     1       1.701   8.607  18.020  0.00  0.00    +0.000 A 
ATOM      4  C   UNL     1       2.194   7.568  18.820  0.00  0.00    +0.000 A 
ATOM      5  C   UNL     1       1.970   7.606  20.190  0.00  0.00    +0.000 A 
ATOM      6  C   UNL     1       1.255   8.672  20.685  0.00  0.00    +0.000 A 
ATOM      7 CL   UNL     1       0.916   8.806  22.357  0.00  0.00    +0.000 Cl
ATOM      8  N   UNL     1       0.760   9.673  19.940  0.00  0.00    +0.000 NA
ATOM      9  H   UNL     1       1.249  11.381  17.812  0.00  0.00    +0.000 HD
ENDROOT
BRANCH   4  10
ATOM     10  C   UNL     1       2.946   6.477  18.226  0.00  0.00    +0.000 A 
ATOM     11  C   UNL     1       4.149   6.663  17.561  0.00  0.00    +0.000 A 
ATOM     12  N   UNL     1       4.580   5.441  17.117  0.00  0.00    +0.000 N 
ATOM     13  C   UNL     1       3.681   4.474  17.470  0.00  0.00    +0.000 A 
ATOM     14  N   UNL     1       3.811   3.170  17.159  0.00  0.00    +0.000 NA
ATOM     15  C   UNL     1       2.779   2.422  17.612  0.00  0.00    +0.000 A 
ATOM     16  C   UNL     1       1.685   2.890  18.326  0.00  0.00    +0.000 A 
ATOM     17  C   UNL     1       1.605   4.248  18.618  0.00  0.00    +0.000 A 
ATOM     18  C   UNL     1       2.646   5.080  18.173  0.00  0.00    +0.000 A 
ATOM     19  H   UNL     1       5.424   5.255  16.596  0.00  0.00    +0.000 HD
ENDBRANCH   4  10
BRANCH   1  20
ATOM     20  C   UNL     1      -0.722  11.297  18.377  0.00  0.00    +0.000 C 
BRANCH  20  22
ATOM     21  C   UNL     1      -3.080  11.231  17.535  0.00  0.00    +0.000 C 
ATOM     22  C   UNL     1      -1.906  10.625  17.736  0.00  0.00    +0.000 C 
ENDBRANCH  20  22
ENDBRANCH   1  20
TORSDOF 3
ENDMDL
MODEL 8
REMARK VINA RESULT:      -7.4      3.283      5.601
REMARK  Name = 
REMARK  3 active torsions:
REMARK  status: ('A' for Active; 'I' for Inactive)
REMARK    1  A    between atoms: C_2  and  C_3
REMARK    2  A    between atoms: C_3  and  N_4
REMARK    3  A    between atoms: C_7  and  C_8
REMARK                            x       y       z     vdW  Elec       q    Type
REMARK                         _______ _______ _______ _____ _____    ______ ____
ROOT
ATOM      1  N   UNL     1       3.062   3.881  19.748  0.00  0.00    +0.000 N 
ATOM      2  C   UNL     1       3.230   5.042  18.970  0.00  0.00    +0.000 A 
ATOM      3  C   UNL     1       2.470   6.176  19.263  0.00  0.00    +0.000 A 
ATOM      4  C   UNL     1       2.669   7.342  18.512  0.00  0.00    +0.000 A 
ATOM      5  C   UNL     1       3.647   7.353  17.527  0.00  0.00    +0.000 A 
ATOM      6  C   UNL     1       4.367   6.195  17.338  0.00  0.00    +0.000 A 
ATOM      7 CL   UNL     1       5.588   6.102  16.143  0.00  0.00    +0.000 Cl
ATOM      8  N   UNL     1       4.189   5.061  18.033  0.00  0.00    +0.000 NA
ATOM      9  H   UNL     1       3.698   3.984  20.541  0.00  0.00    +0.000 HD
ENDROOT
BRANCH   4  10
ATOM     10  C   UNL     1       1.873   8.528  18.773  0.00  0.00    +0.000 A 
ATOM     11  C   UNL     1       1.615   9.492  17.810  0.00  0.00    +0.000 A 
ATOM     12  N   UNL     1       0.854  10.474  18.386  0.00  0.00    +0.000 N 
ATOM     13  C   UNL     1       0.622  10.172  19.699  0.00  0.00    +0.000 A 
ATOM     14  N   UNL     1      -0.080  10.953  20.543  0.00  0.00    +0.000 NA
ATOM     15  C   UNL     1      -0.152  10.437  21.791  0.00  0.00    +0.000 A 
ATOM     16  C   UNL     1       0.410   9.238  22.211  0.00  0.00    +0.000 A 
ATOM     17  C   UNL     1       1.123   8.474  21.294  0.00  0.00    +0.000 A 
ATOM     18  C   UNL     1       1.237   8.958  19.980  0.00  0.00    +0.000 A 
ATOM     19  H   UNL     1       0.510  11.309  17.937  0.00  0.00    +0.000 HD
ENDBRANCH   4  10
BRANCH   1  20
ATOM     20  C   UNL     1       3.397   2.668  18.994  0.00  0.00    +0.000 C 
BRANCH  20  22
ATOM     21  C   UNL     1       0.908   2.452  18.820  0.00  0.00    +0.000 C 
ATOM     22  C   UNL     1       2.130   2.144  18.375  0.00  0.00    +0.000 C 
ENDBRANCH  20  22
ENDBRANCH   1  20
TORSDOF 3
ENDMDL
MODEL 9
REMARK VINA RESULT:      -7.3      3.505      4.903
REMARK  Name = 
REMARK  3 active torsions:
REMARK  status: ('A' for Active; 'I' for Inactive)
REMARK    1  A    between atoms: C_2  and  C_3
REMARK    2  A    between atoms: C_3  and  N_4
REMARK    3  A    between atoms: C_7  and  C_8
REMARK                            x       y       z     vdW  Elec       q    Type
REMARK                         _______ _______ _______ _____ _____    ______ ____
ROOT
ATOM      1  N   UNL     1       5.845   6.124  16.667  0.00  0.00    +0.000 N 
ATOM      2  C   UNL     1       4.563   6.060  17.245  0.00  0.00    +0.000 A 
ATOM      3  C   UNL     1       3.915   7.245  17.602  0.00  0.00    +0.000 A 
ATOM      4  C   UNL     1       2.623   7.180  18.138  0.00  0.00    +0.000 A 
ATOM      5  C   UNL     1       2.003   5.943  18.259  0.00  0.00    +0.000 A 
ATOM      6  C   UNL     1       2.712   4.838  17.847  0.00  0.00    +0.000 A 
ATOM      7 CL   UNL     1       2.040   3.268  17.963  0.00  0.00    +0.000 Cl
ATOM      8  N   UNL     1       3.954   4.870  17.341  0.00  0.00    +0.000 NA
ATOM      9  H   UNL     1       5.693   6.230  15.663  0.00  0.00    +0.000 HD
ENDROOT
BRANCH   4  10
ATOM     10  C   UNL     1       1.936   8.392  18.546  0.00  0.00    +0.000 A 
ATOM     11  C   UNL     1       1.677   9.442  17.678  0.00  0.00    +0.000 A 
ATOM     12  N   UNL     1       1.033  10.425  18.382  0.00  0.00    +0.000 N 
ATOM     13  C   UNL     1       0.878  10.038  19.684  0.00  0.00    +0.000 A 
ATOM     14  N   UNL     1       0.298  10.797  20.635  0.00  0.00    +0.000 NA
ATOM     15  C   UNL     1       0.281  10.192  21.844  0.00  0.00    +0.000 A 
ATOM     16  C   UNL     1       0.786   8.930  22.131  0.00  0.00    +0.000 A 
ATOM     17  C   UNL     1       1.373   8.193  21.108  0.00  0.00    +0.000 A 
ATOM     18  C   UNL     1       1.423   8.768  19.827  0.00  0.00    +0.000 A 
ATOM     19  H   UNL     1       0.718  11.313  18.023  0.00  0.00    +0.000 HD
ENDBRANCH   4  10
BRANCH   1  20
ATOM     20  C   UNL     1       6.619   4.906  16.928  0.00  0.00    +0.000 C 
BRANCH  20  22
ATOM     21  C   UNL     1       6.233   4.099  14.590  0.00  0.00    +0.000 C 
ATOM     22  C   UNL     1       7.065   4.349  15.604  0.00  0.00    +0.000 C 
ENDBRANCH  20  22
ENDBRANCH   1  20
TORSDOF 3
ENDMDL
