MODEL 1
REMARK VINA RESULT:      -8.8      0.000      0.000
REMARK  Name = 
REMARK  7 active torsions:
REMARK  status: ('A' for Active; 'I' for Inactive)
REMARK    1  A    between atoms: C_1  and  N_2
REMARK    2  A    between atoms: C_6  and  C_7
REMARK    3  A    between atoms: N_18  and  C_19
REMARK    4  A    between atoms: C_19  and  C_20
REMARK    5  A    between atoms: C_20  and  N_21
REMARK    6  A    between atoms: N_21  and  C_22
REMARK    7  A    between atoms: C_22  and  C_23
REMARK                            x       y       z     vdW  Elec       q    Type
REMARK                         _______ _______ _______ _____ _____    ______ ____
ROOT
ATOM      1  C   UNL     1       6.270   3.709  15.959  0.00  0.00    +0.000 C 
ATOM      2  N   UNL     1       5.409   4.699  16.562  0.00  0.00    +0.000 N 
ATOM      3  C   UNL     1       4.192   4.383  17.095  0.00  0.00    +0.000 C 
ATOM      4  O   UNL     1       3.599   3.325  17.110  0.00  0.00    +0.000 OA
ATOM      5  C   UNL     1       3.752   5.679  17.670  0.00  0.00    +0.000 C 
ATOM      6  C   UNL     1       2.546   5.834  18.233  0.00  0.00    +0.000 C 
ATOM      7  N   UNL     1       4.733   6.625  17.495  0.00  0.00    +0.000 NA
ATOM      8  C   UNL     1       5.674   6.008  16.835  0.00  0.00    +0.000 C 
ATOM      9  N   UNL     1       6.822   6.609  16.429  0.00  0.00    +0.000 N 
ATOM     10  H   UNL     1       7.387   6.184  15.710  0.00  0.00    +0.000 HD
ENDROOT
BRANCH   6  11
ATOM     11  C   UNL     1       2.068   7.111  18.749  0.00  0.00    +0.000 A 
ATOM     12  C   UNL     1       1.853   8.188  17.858  0.00  0.00    +0.000 A 
ATOM     13  C   UNL     1       1.406   9.426  18.330  0.00  0.00    +0.000 A 
ATOM     14  C   UNL     1       1.197   9.558  19.682  0.00  0.00    +0.000 A 
ATOM     15  C   UNL     1       1.409   8.511  20.555  0.00  0.00    +0.000 A 
ATOM     16  C   UNL     1       1.840   7.276  20.120  0.00  0.00    +0.000 A 
ATOM     17  O   UNL     1       1.157   8.860  21.845  0.00  0.00    +0.000 OA
ATOM     18  C   UNL     1       0.833  10.252  21.695  0.00  0.00    +0.000 C 
ATOM     19  O   UNL     1       0.786  10.686  20.320  0.00  0.00    +0.000 OA
ENDBRANCH   6  11
BRANCH   9  20
ATOM     20  C   UNL     1       7.381   7.782  17.088  0.00  0.00    +0.000 C 
BRANCH  20  21
ATOM     21  C   UNL     1       8.073   7.433  18.429  0.00  0.00    +0.000 C 
BRANCH  21  22
ATOM     22  N   UNL     1       8.845   8.578  18.941  0.00  0.00    +0.000 NA
ATOM     23  H   UNL     1       9.841   8.399  18.828  0.00  0.00    +0.000 HD
BRANCH  22  24
ATOM     24  C   UNL     1       8.508   9.812  18.236  0.00  0.00    +0.000 C 
BRANCH  24  25
ATOM     25  C   UNL     1       9.291  10.979  18.795  0.00  0.00    +0.000 A 
ATOM     26  C   UNL     1       9.843  10.916  20.096  0.00  0.00    +0.000 A 
ATOM     27  C   UNL     1      10.536  12.001  20.646  0.00  0.00    +0.000 A 
ATOM     28  C   UNL     1      10.643  13.153  19.889  0.00  0.00    +0.000 A 
ATOM     29  C   UNL     1      10.116  13.214  18.611  0.00  0.00    +0.000 A 
ATOM     30  C   UNL     1       9.451  12.149  18.038  0.00  0.00    +0.000 A 
ATOM     31  O   UNL     1      10.316  14.420  17.989  0.00  0.00    +0.000 OA
ATOM     32  C   UNL     1      10.735  15.286  19.070  0.00  0.00    +0.000 C 
ATOM     33  C   UNL     1      11.310  14.435  20.203  0.00  0.00    +0.000 C 
ENDBRANCH  24  25
ENDBRANCH  22  24
ENDBRANCH  21  22
ENDBRANCH  20  21
ENDBRANCH   9  20
TORSDOF 6
ENDMDL
MODEL 2
REMARK VINA RESULT:      -8.4      5.530      9.642
REMARK  Name = 
REMARK  7 active torsions:
REMARK  status: ('A' for Active; 'I' for Inactive)
REMARK    1  A    between atoms: C_1  and  N_2
REMARK    2  A    between atoms: C_6  and  C_7
REMARK    3  A    between atoms: N_18  and  C_19
REMARK    4  A    between atoms: C_19  and  C_20
REMARK    5  A    between atoms: C_20  and  N_21
REMARK    6  A    between atoms: N_21  and  C_22
REMARK    7  A    between atoms: C_22  and  C_23
REMARK                            x       y       z     vdW  Elec       q    Type
REMARK                         _______ _______ _______ _____ _____    ______ ____
ROOT
ATOM      1  C   UNL     1       1.074   4.161  20.688  0.00  0.00    +0.000 C 
ATOM      2  N   UNL     1       2.122   4.308  19.705  0.00  0.00    +0.000 N 
ATOM      3  C   UNL     1       2.630   3.247  19.012  0.00  0.00    +0.000 C 
ATOM      4  O   UNL     1       2.388   2.063  19.113  0.00  0.00    +0.000 OA
ATOM      5  C   UNL     1       3.577   3.903  18.076  0.00  0.00    +0.000 C 
ATOM      6  C   UNL     1       4.362   3.199  17.250  0.00  0.00    +0.000 C 
ATOM      7  N   UNL     1       3.521   5.266  18.235  0.00  0.00    +0.000 NA
ATOM      8  C   UNL     1       2.667   5.453  19.203  0.00  0.00    +0.000 C 
ATOM      9  N   UNL     1       2.348   6.678  19.695  0.00  0.00    +0.000 N 
ATOM     10  H   UNL     1       1.901   6.759  20.596  0.00  0.00    +0.000 HD
ENDROOT
BRANCH   6  11
ATOM     11  C   UNL     1       5.343   3.817  16.366  0.00  0.00    +0.000 A 
ATOM     12  C   UNL     1       6.253   4.766  16.888  0.00  0.00    +0.000 A 
ATOM     13  C   UNL     1       7.195   5.382  16.057  0.00  0.00    +0.000 A 
ATOM     14  C   UNL     1       7.195   5.042  14.726  0.00  0.00    +0.000 A 
ATOM     15  C   UNL     1       6.307   4.119  14.212  0.00  0.00    +0.000 A 
ATOM     16  C   UNL     1       5.373   3.488  15.006  0.00  0.00    +0.000 A 
ATOM     17  O   UNL     1       6.469   3.942  12.874  0.00  0.00    +0.000 OA
ATOM     18  C   UNL     1       7.502   4.898  12.593  0.00  0.00    +0.000 C 
ATOM     19  O   UNL     1       8.019   5.550  13.772  0.00  0.00    +0.000 OA
ENDBRANCH   6  11
BRANCH   9  20
ATOM     20  C   UNL     1       2.477   7.904  18.920  0.00  0.00    +0.000 C 
BRANCH  20  21
ATOM     21  C   UNL     1       1.361   8.928  19.244  0.00  0.00    +0.000 C 
BRANCH  21  22
ATOM     22  N   UNL     1       0.952   9.666  18.037  0.00  0.00    +0.000 NA
ATOM     23  H   UNL     1       0.285   9.112  17.505  0.00  0.00    +0.000 HD
BRANCH  22  24
ATOM     24  C   UNL     1       0.336  10.947  18.374  0.00  0.00    +0.000 C 
BRANCH  24  25
ATOM     25  C   UNL     1      -1.166  10.877  18.210  0.00  0.00    +0.000 A 
ATOM     26  C   UNL     1      -1.744  10.018  17.245  0.00  0.00    +0.000 A 
ATOM     27  C   UNL     1      -3.129   9.970  17.052  0.00  0.00    +0.000 A 
ATOM     28  C   UNL     1      -3.921  10.809  17.813  0.00  0.00    +0.000 A 
ATOM     29  C   UNL     1      -3.360  11.643  18.766  0.00  0.00    +0.000 A 
ATOM     30  C   UNL     1      -2.000  11.689  18.993  0.00  0.00    +0.000 A 
ATOM     31  O   UNL     1      -4.279  12.402  19.443  0.00  0.00    +0.000 OA
ATOM     32  C   UNL     1      -5.480  12.260  18.648  0.00  0.00    +0.000 C 
ATOM     33  C   UNL     1      -5.391  10.972  17.828  0.00  0.00    +0.000 C 
ENDBRANCH  24  25
ENDBRANCH  22  24
ENDBRANCH  21  22
ENDBRANCH  20  21
ENDBRANCH   9  20
TORSDOF 6
ENDMDL
MODEL 3
REMARK VINA RESULT:      -8.4      5.309      7.498
REMARK  Name = 
REMARK  7 active torsions:
REMARK  status: ('A' for Active; 'I' for Inactive)
REMARK    1  A    between atoms: C_1  and  N_2
REMARK    2  A    between atoms: C_6  and  C_7
REMARK    3  A    between atoms: N_18  and  C_19
REMARK    4  A    between atoms: C_19  and  C_20
REMARK    5  A    between atoms: C_20  and  N_21
REMARK    6  A    between atoms: N_21  and  C_22
REMARK    7  A    between atoms: C_22  and  C_23
REMARK                            x       y       z     vdW  Elec       q    Type
REMARK                         _______ _______ _______ _____ _____    ______ ____
ROOT
ATOM      1  C   UNL     1       3.505   7.332  17.559  0.00  0.00    +0.000 C 
ATOM      2  N   UNL     1       2.628   8.051  18.453  0.00  0.00    +0.000 N 
ATOM      3  C   UNL     1       2.133   9.289  18.156  0.00  0.00    +0.000 C 
ATOM      4  O   UNL     1       2.359  10.010  17.207  0.00  0.00    +0.000 OA
ATOM      5  C   UNL     1       1.227   9.551  19.301  0.00  0.00    +0.000 C 
ATOM      6  C   UNL     1       0.585  10.718  19.446  0.00  0.00    +0.000 C 
ATOM      7  N   UNL     1       1.204   8.463  20.139  0.00  0.00    +0.000 NA
ATOM      8  C   UNL     1       2.045   7.619  19.608  0.00  0.00    +0.000 C 
ATOM      9  N   UNL     1       2.340   6.411  20.154  0.00  0.00    +0.000 N 
ATOM     10  H   UNL     1       3.171   5.916  19.867  0.00  0.00    +0.000 HD
ENDROOT
BRANCH   6  11
ATOM     11  C   UNL     1      -0.262  11.023  20.593  0.00  0.00    +0.000 A 
ATOM     12  C   UNL     1       0.031  10.445  21.850  0.00  0.00    +0.000 A 
ATOM     13  C   UNL     1      -0.773  10.713  22.963  0.00  0.00    +0.000 A 
ATOM     14  C   UNL     1      -1.855  11.541  22.786  0.00  0.00    +0.000 A 
ATOM     15  C   UNL     1      -2.147  12.104  21.561  0.00  0.00    +0.000 A 
ATOM     16  C   UNL     1      -1.368  11.868  20.448  0.00  0.00    +0.000 A 
ATOM     17  O   UNL     1      -3.265  12.876  21.604  0.00  0.00    +0.000 OA
ATOM     18  C   UNL     1      -3.681  12.682  22.965  0.00  0.00    +0.000 C 
ATOM     19  O   UNL     1      -2.755  11.895  23.742  0.00  0.00    +0.000 OA
ENDBRANCH   6  11
BRANCH   9  20
ATOM     20  C   UNL     1       1.433   5.697  21.043  0.00  0.00    +0.000 C 
BRANCH  20  21
ATOM     21  C   UNL     1       1.459   4.167  20.809  0.00  0.00    +0.000 C 
BRANCH  21  22
ATOM     22  N   UNL     1       1.304   3.846  19.380  0.00  0.00    +0.000 NA
ATOM     23  H   UNL     1       1.468   4.681  18.820  0.00  0.00    +0.000 HD
BRANCH  22  24
ATOM     24  C   UNL     1       2.241   2.808  18.958  0.00  0.00    +0.000 C 
BRANCH  24  25
ATOM     25  C   UNL     1       3.465   3.421  18.316  0.00  0.00    +0.000 A 
ATOM     26  C   UNL     1       3.542   3.567  16.910  0.00  0.00    +0.000 A 
ATOM     27  C   UNL     1       4.683   4.095  16.295  0.00  0.00    +0.000 A 
ATOM     28  C   UNL     1       5.751   4.446  17.100  0.00  0.00    +0.000 A 
ATOM     29  C   UNL     1       5.676   4.315  18.477  0.00  0.00    +0.000 A 
ATOM     30  C   UNL     1       4.552   3.822  19.107  0.00  0.00    +0.000 A 
ATOM     31  O   UNL     1       6.812   4.716  19.131  0.00  0.00    +0.000 OA
ATOM     32  C   UNL     1       7.789   4.822  18.068  0.00  0.00    +0.000 C 
ATOM     33  C   UNL     1       7.064   5.021  16.737  0.00  0.00    +0.000 C 
ENDBRANCH  24  25
ENDBRANCH  22  24
ENDBRANCH  21  22
ENDBRANCH  20  21
ENDBRANCH   9  20
TORSDOF 6
ENDMDL
MODEL 4
REMARK VINA RESULT:      -8.2      1.222      1.435
REMARK  Name = 
REMARK  7 active torsions:
REMARK  status: ('A' for Active; 'I' for Inactive)
REMARK    1  A    between atoms: C_1  and  N_2
REMARK    2  A    between atoms: C_6  and  C_7
REMARK    3  A    between atoms: N_18  and  C_19
REMARK    4  A    between atoms: C_19  and  C_20
REMARK    5  A    between atoms: C_20  and  N_21
REMARK    6  A    between atoms: N_21  and  C_22
REMARK    7  A    between atoms: C_22  and  C_23
REMARK                            x       y       z     vdW  Elec       q    Type
REMARK                         _______ _______ _______ _____ _____    ______ ____
ROOT
ATOM      1  C   UNL     1       7.424   4.401  16.109  0.00  0.00    +0.000 C 
ATOM      2  N   UNL     1       6.398   5.245  16.676  0.00  0.00    +0.000 N 
ATOM      3  C   UNL     1       5.114   4.817  16.854  0.00  0.00    +0.000 C 
ATOM      4  O   UNL     1       4.592   3.769  16.540  0.00  0.00    +0.000 OA
ATOM      5  C   UNL     1       4.489   5.972  17.545  0.00  0.00    +0.000 C 
ATOM      6  C   UNL     1       3.182   6.000  17.841  0.00  0.00    +0.000 C 
ATOM      7  N   UNL     1       5.429   6.946  17.773  0.00  0.00    +0.000 NA
ATOM      8  C   UNL     1       6.524   6.481  17.238  0.00  0.00    +0.000 C 
ATOM      9  N   UNL     1       7.698   7.164  17.219  0.00  0.00    +0.000 N 
ATOM     10  H   UNL     1       8.429   6.893  16.579  0.00  0.00    +0.000 HD
ENDROOT
BRANCH   6  11
ATOM     11  C   UNL     1       2.533   7.147  18.464  0.00  0.00    +0.000 A 
ATOM     12  C   UNL     1       2.234   8.289  17.684  0.00  0.00    +0.000 A 
ATOM     13  C   UNL     1       1.622   9.406  18.261  0.00  0.00    +0.000 A 
ATOM     14  C   UNL     1       1.336   9.357  19.604  0.00  0.00    +0.000 A 
ATOM     15  C   UNL     1       1.628   8.247  20.369  0.00  0.00    +0.000 A 
ATOM     16  C   UNL     1       2.222   7.127  19.828  0.00  0.00    +0.000 A 
ATOM     17  O   UNL     1       1.276   8.414  21.672  0.00  0.00    +0.000 OA
ATOM     18  C   UNL     1       0.797   9.769  21.655  0.00  0.00    +0.000 C 
ATOM     19  O   UNL     1       0.764  10.351  20.336  0.00  0.00    +0.000 OA
ENDBRANCH   6  11
BRANCH   9  20
ATOM     20  C   UNL     1       8.034   8.194  18.192  0.00  0.00    +0.000 C 
BRANCH  20  21
ATOM     21  C   UNL     1       8.118   9.603  17.555  0.00  0.00    +0.000 C 
BRANCH  21  22
ATOM     22  N   UNL     1       9.205  10.394  18.156  0.00  0.00    +0.000 NA
ATOM     23  H   UNL     1       9.042  11.385  17.991  0.00  0.00    +0.000 HD
BRANCH  22  24
ATOM     24  C   UNL     1       9.300  10.169  19.596  0.00  0.00    +0.000 C 
BRANCH  24  25
ATOM     25  C   UNL     1       9.543  11.471  20.326  0.00  0.00    +0.000 A 
ATOM     26  C   UNL     1       8.875  11.748  21.543  0.00  0.00    +0.000 A 
ATOM     27  C   UNL     1       9.057  12.964  22.212  0.00  0.00    +0.000 A 
ATOM     28  C   UNL     1       9.890  13.904  21.634  0.00  0.00    +0.000 A 
ATOM     29  C   UNL     1      10.555  13.633  20.450  0.00  0.00    +0.000 A 
ATOM     30  C   UNL     1      10.412  12.432  19.786  0.00  0.00    +0.000 A 
ATOM     31  O   UNL     1      11.349  14.662  20.016  0.00  0.00    +0.000 OA
ATOM     32  C   UNL     1      10.918  15.780  20.827  0.00  0.00    +0.000 C 
ATOM     33  C   UNL     1      10.268  15.254  22.106  0.00  0.00    +0.000 C 
ENDBRANCH  24  25
ENDBRANCH  22  24
ENDBRANCH  21  22
ENDBRANCH  20  21
ENDBRANCH   9  20
TORSDOF 6
ENDMDL
MODEL 5
REMARK VINA RESULT:      -8.2      5.673      9.059
REMARK  Name = 
REMARK  7 active torsions:
REMARK  status: ('A' for Active; 'I' for Inactive)
REMARK    1  A    between atoms: C_1  and  N_2
REMARK    2  A    between atoms: C_6  and  C_7
REMARK    3  A    between atoms: N_18  and  C_19
REMARK    4  A    between atoms: C_19  and  C_20
REMARK    5  A    between atoms: C_20  and  N_21
REMARK    6  A    between atoms: N_21  and  C_22
REMARK    7  A    between atoms: C_22  and  C_23
REMARK                            x       y       z     vdW  Elec       q    Type
REMARK                         _______ _______ _______ _____ _____    ______ ____
ROOT
ATOM      1  C   UNL     1      -2.815  10.358  15.349  0.00  0.00    +0.000 C 
ATOM      2  N   UNL     1      -2.912  10.962  16.658  0.00  0.00    +0.000 N 
ATOM      3  C   UNL     1      -4.077  11.489  17.136  0.00  0.00    +0.000 C 
ATOM      4  O   UNL     1      -5.154  11.619  16.593  0.00  0.00    +0.000 OA
ATOM      5  C   UNL     1      -3.704  11.879  18.518  0.00  0.00    +0.000 C 
ATOM      6  C   UNL     1      -4.555  12.521  19.330  0.00  0.00    +0.000 C 
ATOM      7  N   UNL     1      -2.405  11.513  18.773  0.00  0.00    +0.000 NA
ATOM      8  C   UNL     1      -1.982  10.992  17.654  0.00  0.00    +0.000 C 
ATOM      9  N   UNL     1      -0.718  10.528  17.474  0.00  0.00    +0.000 N 
ATOM     10  H   UNL     1      -0.362  10.384  16.542  0.00  0.00    +0.000 HD
ENDROOT
BRANCH   6  11
ATOM     11  C   UNL     1      -4.193  12.969  20.669  0.00  0.00    +0.000 A 
ATOM     12  C   UNL     1      -3.249  14.011  20.826  0.00  0.00    +0.000 A 
ATOM     13  C   UNL     1      -2.876  14.450  22.100  0.00  0.00    +0.000 A 
ATOM     14  C   UNL     1      -3.447  13.827  23.184  0.00  0.00    +0.000 A 
ATOM     15  C   UNL     1      -4.365  12.808  23.036  0.00  0.00    +0.000 A 
ATOM     16  C   UNL     1      -4.760  12.359  21.793  0.00  0.00    +0.000 A 
ATOM     17  O   UNL     1      -4.792  12.324  24.233  0.00  0.00    +0.000 OA
ATOM     18  C   UNL     1      -3.995  13.098  25.143  0.00  0.00    +0.000 C 
ATOM     19  O   UNL     1      -3.192  14.104  24.490  0.00  0.00    +0.000 OA
ENDBRANCH   6  11
BRANCH   9  20
ATOM     20  C   UNL     1       0.125  10.071  18.570  0.00  0.00    +0.000 C 
BRANCH  20  21
ATOM     21  C   UNL     1       1.629  10.075  18.200  0.00  0.00    +0.000 C 
BRANCH  21  22
ATOM     22  N   UNL     1       2.017   8.812  17.548  0.00  0.00    +0.000 NA
ATOM     23  H   UNL     1       2.757   8.988  16.872  0.00  0.00    +0.000 HD
BRANCH  22  24
ATOM     24  C   UNL     1       2.493   7.831  18.519  0.00  0.00    +0.000 C 
BRANCH  24  25
ATOM     25  C   UNL     1       3.271   6.732  17.831  0.00  0.00    +0.000 A 
ATOM     26  C   UNL     1       2.848   5.384  17.926  0.00  0.00    +0.000 A 
ATOM     27  C   UNL     1       3.578   4.349  17.329  0.00  0.00    +0.000 A 
ATOM     28  C   UNL     1       4.745   4.677  16.665  0.00  0.00    +0.000 A 
ATOM     29  C   UNL     1       5.156   5.995  16.559  0.00  0.00    +0.000 A 
ATOM     30  C   UNL     1       4.440   7.035  17.116  0.00  0.00    +0.000 A 
ATOM     31  O   UNL     1       6.325   6.153  15.861  0.00  0.00    +0.000 OA
ATOM     32  C   UNL     1       6.850   4.807  15.781  0.00  0.00    +0.000 C 
ATOM     33  C   UNL     1       5.704   3.809  15.948  0.00  0.00    +0.000 C 
ENDBRANCH  24  25
ENDBRANCH  22  24
ENDBRANCH  21  22
ENDBRANCH  20  21
ENDBRANCH   9  20
TORSDOF 6
ENDMDL
MODEL 6
REMARK VINA RESULT:      -8.1      1.485      1.973
REMARK  Name = 
REMARK  7 active torsions:
REMARK  status: ('A' for Active; 'I' for Inactive)
REMARK    1  A    between atoms: C_1  and  N_2
REMARK    2  A    between atoms: C_6  and  C_7
REMARK    3  A    between atoms: N_18  and  C_19
REMARK    4  A    between atoms: C_19  and  C_20
REMARK    5  A    between atoms: C_20  and  N_21
REMARK    6  A    between atoms: N_21  and  C_22
REMARK    7  A    between atoms: C_22  and  C_23
REMARK                            x       y       z     vdW  Elec       q    Type
REMARK                         _______ _______ _______ _____ _____    ______ ____
ROOT
ATOM      1  C   UNL     1       7.045   4.146  15.722  0.00  0.00    +0.000 C 
ATOM      2  N   UNL     1       6.098   4.979  16.427  0.00  0.00    +0.000 N 
ATOM      3  C   UNL     1       4.794   4.617  16.604  0.00  0.00    +0.000 C 
ATOM      4  O   UNL     1       4.190   3.652  16.187  0.00  0.00    +0.000 OA
ATOM      5  C   UNL     1       4.272   5.717  17.453  0.00  0.00    +0.000 C 
ATOM      6  C   UNL     1       2.981   5.794  17.802  0.00  0.00    +0.000 C 
ATOM      7  N   UNL     1       5.286   6.593  17.758  0.00  0.00    +0.000 NA
ATOM      8  C   UNL     1       6.328   6.126  17.128  0.00  0.00    +0.000 C 
ATOM      9  N   UNL     1       7.545   6.728  17.144  0.00  0.00    +0.000 N 
ATOM     10  H   UNL     1       8.235   6.491  16.448  0.00  0.00    +0.000 HD
ENDROOT
BRANCH   6  11
ATOM     11  C   UNL     1       2.433   6.896  18.584  0.00  0.00    +0.000 A 
ATOM     12  C   UNL     1       2.189   6.719  19.966  0.00  0.00    +0.000 A 
ATOM     13  C   UNL     1       1.653   7.757  20.734  0.00  0.00    +0.000 A 
ATOM     14  C   UNL     1       1.363   8.940  20.099  0.00  0.00    +0.000 A 
ATOM     15  C   UNL     1       1.596   9.117  18.751  0.00  0.00    +0.000 A 
ATOM     16  C   UNL     1       2.133   8.116  17.968  0.00  0.00    +0.000 A 
ATOM     17  O   UNL     1       1.225  10.353  18.323  0.00  0.00    +0.000 OA
ATOM     18  C   UNL     1       0.673  10.906  19.529  0.00  0.00    +0.000 C 
ATOM     19  O   UNL     1       0.821  10.045  20.677  0.00  0.00    +0.000 OA
ENDBRANCH   6  11
BRANCH   9  20
ATOM     20  C   UNL     1       7.983   7.608  18.219  0.00  0.00    +0.000 C 
BRANCH  20  21
ATOM     21  C   UNL     1       8.154   9.074  17.751  0.00  0.00    +0.000 C 
BRANCH  21  22
ATOM     22  N   UNL     1       8.906   9.863  18.740  0.00  0.00    +0.000 NA
ATOM     23  H   UNL     1       9.556   9.259  19.239  0.00  0.00    +0.000 HD
BRANCH  22  24
ATOM     24  C   UNL     1       9.660  10.941  18.107  0.00  0.00    +0.000 C 
BRANCH  24  25
ATOM     25  C   UNL     1       9.242  12.285  18.661  0.00  0.00    +0.000 A 
ATOM     26  C   UNL     1       9.250  12.520  20.057  0.00  0.00    +0.000 A 
ATOM     27  C   UNL     1       8.828  13.743  20.590  0.00  0.00    +0.000 A 
ATOM     28  C   UNL     1       8.373  14.712  19.715  0.00  0.00    +0.000 A 
ATOM     29  C   UNL     1       8.376  14.490  18.348  0.00  0.00    +0.000 A 
ATOM     30  C   UNL     1       8.811  13.302  17.796  0.00  0.00    +0.000 A 
ATOM     31  O   UNL     1       7.906  15.551  17.617  0.00  0.00    +0.000 OA
ATOM     32  C   UNL     1       7.277  16.390  18.614  0.00  0.00    +0.000 C 
ATOM     33  C   UNL     1       7.876  16.078  19.985  0.00  0.00    +0.000 C 
ENDBRANCH  24  25
ENDBRANCH  22  24
ENDBRANCH  21  22
ENDBRANCH  20  21
ENDBRANCH   9  20
TORSDOF 6
ENDMDL
MODEL 7
REMARK VINA RESULT:      -8.1      1.260      1.788
REMARK  Name = 
REMARK  7 active torsions:
REMARK  status: ('A' for Active; 'I' for Inactive)
REMARK    1  A    between atoms: C_1  and  N_2
REMARK    2  A    between atoms: C_6  and  C_7
REMARK    3  A    between atoms: N_18  and  C_19
REMARK    4  A    between atoms: C_19  and  C_20
REMARK    5  A    between atoms: C_20  and  N_21
REMARK    6  A    between atoms: N_21  and  C_22
REMARK    7  A    between atoms: C_22  and  C_23
REMARK                            x       y       z     vdW  Elec       q    Type
REMARK                         _______ _______ _______ _____ _____    ______ ____
ROOT
ATOM      1  C   UNL     1       7.173   4.386  15.605  0.00  0.00    +0.000 C 
ATOM      2  N   UNL     1       6.204   5.185  16.320  0.00  0.00    +0.000 N 
ATOM      3  C   UNL     1       4.903   4.798  16.467  0.00  0.00    +0.000 C 
ATOM      4  O   UNL     1       4.320   3.836  16.015  0.00  0.00    +0.000 OA
ATOM      5  C   UNL     1       4.353   5.865  17.340  0.00  0.00    +0.000 C 
ATOM      6  C   UNL     1       3.056   5.913  17.673  0.00  0.00    +0.000 C 
ATOM      7  N   UNL     1       5.349   6.747  17.684  0.00  0.00    +0.000 NA
ATOM      8  C   UNL     1       6.407   6.314  17.056  0.00  0.00    +0.000 C 
ATOM      9  N   UNL     1       7.614   6.933  17.108  0.00  0.00    +0.000 N 
ATOM     10  H   UNL     1       8.317   6.726  16.414  0.00  0.00    +0.000 HD
ENDROOT
BRANCH   6  11
ATOM     11  C   UNL     1       2.481   6.984  18.478  0.00  0.00    +0.000 A 
ATOM     12  C   UNL     1       2.288   6.788  19.866  0.00  0.00    +0.000 A 
ATOM     13  C   UNL     1       1.727   7.795  20.657  0.00  0.00    +0.000 A 
ATOM     14  C   UNL     1       1.362   8.966  20.038  0.00  0.00    +0.000 A 
ATOM     15  C   UNL     1       1.545   9.161  18.684  0.00  0.00    +0.000 A 
ATOM     16  C   UNL     1       2.104   8.191  17.879  0.00  0.00    +0.000 A 
ATOM     17  O   UNL     1       1.103  10.380  18.277  0.00  0.00    +0.000 OA
ATOM     18  C   UNL     1       0.562  10.900  19.501  0.00  0.00    +0.000 C 
ATOM     19  O   UNL     1       0.786  10.041  20.639  0.00  0.00    +0.000 OA
ENDBRANCH   6  11
BRANCH   9  20
ATOM     20  C   UNL     1       8.024   7.788  18.213  0.00  0.00    +0.000 C 
BRANCH  20  21
ATOM     21  C   UNL     1       8.127   9.277  17.802  0.00  0.00    +0.000 C 
BRANCH  21  22
ATOM     22  N   UNL     1       9.037  10.013  18.697  0.00  0.00    +0.000 NA
ATOM     23  H   UNL     1       9.859   9.445  18.894  0.00  0.00    +0.000 HD
BRANCH  22  24
ATOM     24  C   UNL     1       9.471  11.275  18.104  0.00  0.00    +0.000 C 
BRANCH  24  25
ATOM     25  C   UNL     1       9.648  12.334  19.168  0.00  0.00    +0.000 A 
ATOM     26  C   UNL     1       9.805  11.967  20.527  0.00  0.00    +0.000 A 
ATOM     27  C   UNL     1       9.931  12.935  21.531  0.00  0.00    +0.000 A 
ATOM     28  C   UNL     1       9.869  14.266  21.162  0.00  0.00    +0.000 A 
ATOM     29  C   UNL     1       9.728  14.628  19.833  0.00  0.00    +0.000 A 
ATOM     30  C   UNL     1       9.628  13.693  18.823  0.00  0.00    +0.000 A 
ATOM     31  O   UNL     1       9.695  15.984  19.632  0.00  0.00    +0.000 OA
ATOM     32  C   UNL     1       9.495  16.513  20.964  0.00  0.00    +0.000 C 
ATOM     33  C   UNL     1       9.973  15.486  21.991  0.00  0.00    +0.000 C 
ENDBRANCH  24  25
ENDBRANCH  22  24
ENDBRANCH  21  22
ENDBRANCH  20  21
ENDBRANCH   9  20
TORSDOF 6
ENDMDL
MODEL 8
REMARK VINA RESULT:      -8.0      5.419      7.488
REMARK  Name = 
REMARK  7 active torsions:
REMARK  status: ('A' for Active; 'I' for Inactive)
REMARK    1  A    between atoms: C_1  and  N_2
REMARK    2  A    between atoms: C_6  and  C_7
REMARK    3  A    between atoms: N_18  and  C_19
REMARK    4  A    between atoms: C_19  and  C_20
REMARK    5  A    between atoms: C_20  and  N_21
REMARK    6  A    between atoms: N_21  and  C_22
REMARK    7  A    between atoms: C_22  and  C_23
REMARK                            x       y       z     vdW  Elec       q    Type
REMARK                         _______ _______ _______ _____ _____    ______ ____
ROOT
ATOM      1  C   UNL     1       3.540   7.437  17.551  0.00  0.00    +0.000 C 
ATOM      2  N   UNL     1       2.651   8.141  18.446  0.00  0.00    +0.000 N 
ATOM      3  C   UNL     1       2.152   9.379  18.158  0.00  0.00    +0.000 C 
ATOM      4  O   UNL     1       2.382  10.112  17.220  0.00  0.00    +0.000 OA
ATOM      5  C   UNL     1       1.234   9.623  19.298  0.00  0.00    +0.000 C 
ATOM      6  C   UNL     1       0.584  10.785  19.450  0.00  0.00    +0.000 C 
ATOM      7  N   UNL     1       1.209   8.525  20.122  0.00  0.00    +0.000 NA
ATOM      8  C   UNL     1       2.060   7.692  19.589  0.00  0.00    +0.000 C 
ATOM      9  N   UNL     1       2.356   6.480  20.125  0.00  0.00    +0.000 N 
ATOM     10  H   UNL     1       3.193   5.993  19.839  0.00  0.00    +0.000 HD
ENDROOT
BRANCH   6  11
ATOM     11  C   UNL     1      -0.275  11.072  20.592  0.00  0.00    +0.000 A 
ATOM     12  C   UNL     1       0.033  10.513  21.855  0.00  0.00    +0.000 A 
ATOM     13  C   UNL     1      -0.783  10.764  22.964  0.00  0.00    +0.000 A 
ATOM     14  C   UNL     1      -1.890  11.556  22.778  0.00  0.00    +0.000 A 
ATOM     15  C   UNL     1      -2.196  12.100  21.547  0.00  0.00    +0.000 A 
ATOM     16  C   UNL     1      -1.407  11.879  20.438  0.00  0.00    +0.000 A 
ATOM     17  O   UNL     1      -3.339  12.836  21.581  0.00  0.00    +0.000 OA
ATOM     18  C   UNL     1      -3.752  12.639  22.943  0.00  0.00    +0.000 C 
ATOM     19  O   UNL     1      -2.803  11.889  23.729  0.00  0.00    +0.000 OA
ENDBRANCH   6  11
BRANCH   9  20
ATOM     20  C   UNL     1       1.446   5.751  20.997  0.00  0.00    +0.000 C 
BRANCH  20  21
ATOM     21  C   UNL     1       1.188   4.305  20.507  0.00  0.00    +0.000 C 
BRANCH  21  22
ATOM     22  N   UNL     1       2.437   3.524  20.480  0.00  0.00    +0.000 NA
ATOM     23  H   UNL     1       2.412   2.810  21.205  0.00  0.00    +0.000 HD
BRANCH  22  24
ATOM     24  C   UNL     1       2.636   2.872  19.188  0.00  0.00    +0.000 C 
BRANCH  24  25
ATOM     25  C   UNL     1       3.829   3.461  18.470  0.00  0.00    +0.000 A 
ATOM     26  C   UNL     1       4.911   4.006  19.202  0.00  0.00    +0.000 A 
ATOM     27  C   UNL     1       6.005   4.591  18.554  0.00  0.00    +0.000 A 
ATOM     28  C   UNL     1       5.988   4.650  17.173  0.00  0.00    +0.000 A 
ATOM     29  C   UNL     1       4.937   4.107  16.453  0.00  0.00    +0.000 A 
ATOM     30  C   UNL     1       3.860   3.502  17.067  0.00  0.00    +0.000 A 
ATOM     31  O   UNL     1       5.076   4.235  15.095  0.00  0.00    +0.000 OA
ATOM     32  C   UNL     1       6.146   5.199  14.959  0.00  0.00    +0.000 C 
ATOM     33  C   UNL     1       6.990   5.198  16.234  0.00  0.00    +0.000 C 
ENDBRANCH  24  25
ENDBRANCH  22  24
ENDBRANCH  21  22
ENDBRANCH  20  21
ENDBRANCH   9  20
TORSDOF 6
ENDMDL
MODEL 9
REMARK VINA RESULT:      -8.0      6.169      9.802
REMARK  Name = 
REMARK  7 active torsions:
REMARK  status: ('A' for Active; 'I' for Inactive)
REMARK    1  A    between atoms: C_1  and  N_2
REMARK    2  A    between atoms: C_6  and  C_7
REMARK    3  A    between atoms: N_18  and  C_19
REMARK    4  A    between atoms: C_19  and  C_20
REMARK    5  A    between atoms: C_20  and  N_21
REMARK    6  A    between atoms: N_21  and  C_22
REMARK    7  A    between atoms: C_22  and  C_23
REMARK                            x       y       z     vdW  Elec       q    Type
REMARK                         _______ _______ _______ _____ _____    ______ ____
ROOT
ATOM      1  C   UNL     1      -2.806  10.137  15.503  0.00  0.00    +0.000 C 
ATOM      2  N   UNL     1      -2.837  10.760  16.806  0.00  0.00    +0.000 N 
ATOM      3  C   UNL     1      -3.987  11.252  17.355  0.00  0.00    +0.000 C 
ATOM      4  O   UNL     1      -5.102  11.331  16.885  0.00  0.00    +0.000 OA
ATOM      5  C   UNL     1      -3.536  11.680  18.702  0.00  0.00    +0.000 C 
ATOM      6  C   UNL     1      -4.354  12.305  19.560  0.00  0.00    +0.000 C 
ATOM      7  N   UNL     1      -2.209  11.369  18.873  0.00  0.00    +0.000 NA
ATOM      8  C   UNL     1      -1.844  10.844  17.736  0.00  0.00    +0.000 C 
ATOM      9  N   UNL     1      -0.578  10.424  17.477  0.00  0.00    +0.000 N 
ATOM     10  H   UNL     1      -0.280  10.278  16.524  0.00  0.00    +0.000 HD
ENDROOT
BRANCH   6  11
ATOM     11  C   UNL     1      -3.919  12.789  20.865  0.00  0.00    +0.000 A 
ATOM     12  C   UNL     1      -4.833  12.800  21.945  0.00  0.00    +0.000 A 
ATOM     13  C   UNL     1      -4.443  13.272  23.203  0.00  0.00    +0.000 A 
ATOM     14  C   UNL     1      -3.155  13.730  23.344  0.00  0.00    +0.000 A 
ATOM     15  C   UNL     1      -2.262  13.724  22.292  0.00  0.00    +0.000 A 
ATOM     16  C   UNL     1      -2.613  13.257  21.043  0.00  0.00    +0.000 A 
ATOM     17  O   UNL     1      -1.051  14.233  22.644  0.00  0.00    +0.000 OA
ATOM     18  C   UNL     1      -1.301  14.620  24.004  0.00  0.00    +0.000 C 
ATOM     19  O   UNL     1      -2.609  14.241  24.480  0.00  0.00    +0.000 OA
ENDBRANCH   6  11
BRANCH   9  20
ATOM     20  C   UNL     1       0.355  10.020  18.519  0.00  0.00    +0.000 C 
BRANCH  20  21
ATOM     21  C   UNL     1       1.771   9.731  17.965  0.00  0.00    +0.000 C 
BRANCH  21  22
ATOM     22  N   UNL     1       2.042   8.283  17.929  0.00  0.00    +0.000 NA
ATOM     23  H   UNL     1       2.863   8.101  17.356  0.00  0.00    +0.000 HD
BRANCH  22  24
ATOM     24  C   UNL     1       2.277   7.748  19.268  0.00  0.00    +0.000 C 
BRANCH  24  25
ATOM     25  C   UNL     1       2.057   6.252  19.291  0.00  0.00    +0.000 A 
ATOM     26  C   UNL     1       1.683   5.600  20.490  0.00  0.00    +0.000 A 
ATOM     27  C   UNL     1       1.515   4.211  20.541  0.00  0.00    +0.000 A 
ATOM     28  C   UNL     1       1.752   3.486  19.388  0.00  0.00    +0.000 A 
ATOM     29  C   UNL     1       2.105   4.121  18.209  0.00  0.00    +0.000 A 
ATOM     30  C   UNL     1       2.252   5.491  18.129  0.00  0.00    +0.000 A 
ATOM     31  O   UNL     1       2.294   3.264  17.156  0.00  0.00    +0.000 OA
ATOM     32  C   UNL     1       2.360   1.965  17.791  0.00  0.00    +0.000 C 
ATOM     33  C   UNL     1       1.652   2.030  19.145  0.00  0.00    +0.000 C 
ENDBRANCH  24  25
ENDBRANCH  22  24
ENDBRANCH  21  22
ENDBRANCH  20  21
ENDBRANCH   9  20
TORSDOF 6
ENDMDL
