MODEL 1
REMARK VINA RESULT:      -8.4      0.000      0.000
REMARK  Name = 
REMARK  6 active torsions:
REMARK  status: ('A' for Active; 'I' for Inactive)
REMARK    1  A    between atoms: C_1  and  C_2
REMARK    2  A    between atoms: C_2  and  C_3
REMARK    3  A    between atoms: C_9  and  O_10
REMARK    4  A    between atoms: C_12  and  C_13
REMARK    5  A    between atoms: C_21  and  C_22
REMARK    6  A    between atoms: C_21  and  C_23
REMARK                            x       y       z     vdW  Elec       q    Type
REMARK                         _______ _______ _______ _____ _____    ______ ____
ROOT
ATOM      1  C   UNL     1       3.695   4.493  18.640  0.00  0.00    +0.000 C 
ATOM      2  N   UNL     1       3.330   5.775  18.020  0.00  0.00    +0.000 N 
ATOM      3  C   UNL     1       2.587   6.706  18.746  0.00  0.00    +0.000 A 
ATOM      4  C   UNL     1       2.333   7.970  18.202  0.00  0.00    +0.000 A 
ATOM      5  C   UNL     1       1.650   8.964  18.896  0.00  0.00    +0.000 A 
ATOM      6  N   UNL     1       1.444  10.143  18.281  0.00  0.00    +0.000 NA
ATOM      7  C   UNL     1       0.788  11.086  18.964  0.00  0.00    +0.000 A 
ATOM      8  C   UNL     1       0.303  10.958  20.240  0.00  0.00    +0.000 A 
ATOM      9  C   UNL     1       0.508   9.738  20.891  0.00  0.00    +0.000 A 
ATOM     10  C   UNL     1       1.204   8.703  20.210  0.00  0.00    +0.000 A 
ATOM     11  C   UNL     1       1.470   7.433  20.770  0.00  0.00    +0.000 A 
ATOM     12  C   UNL     1       2.143   6.443  20.043  0.00  0.00    +0.000 A 
ATOM     13  C   UNL     1       2.373   5.087  20.662  0.00  0.00    +0.000 C 
ATOM     14  C   UNL     1       2.569   3.985  19.592  0.00  0.00    +0.000 C 
ATOM     15  C   UNL     1       1.237   3.694  18.866  0.00  0.00    +0.000 C 
ATOM     16  C   UNL     1       2.991   2.693  20.323  0.00  0.00    +0.000 C 
ATOM     17  H   UNL     1       3.108   5.752  17.029  0.00  0.00    +0.000 HD
ENDROOT
BRANCH   9  18
ATOM     18  C   UNL     1      -0.025   9.559  22.288  0.00  0.00    +0.000 C 
ATOM     19  F   UNL     1      -0.888   8.510  22.412  0.00  0.00    +0.000 F 
ATOM     20  F   UNL     1       0.960   9.330  23.201  0.00  0.00    +0.000 F 
ATOM     21  F   UNL     1      -0.709  10.648  22.738  0.00  0.00    +0.000 F 
ENDBRANCH   9  18
BRANCH   1  23
ATOM     22  C   UNL     1       4.788   4.160  16.354  0.00  0.00    +0.000 C 
ATOM     23  C   UNL     1       4.132   3.486  17.556  0.00  0.00    +0.000 C 
ENDBRANCH   1  23
BRANCH   7  24
ATOM     24  O   UNL     1       0.616  12.247  18.282  0.00  0.00    +0.000 OA
ATOM     25  H   UNL     1      -0.351  12.233  18.168  0.00  0.00    +0.000 HD
ENDBRANCH   7  24
TORSDOF 3
ENDMDL
MODEL 2
REMARK VINA RESULT:      -8.3      0.629      1.026
REMARK  Name = 
REMARK  6 active torsions:
REMARK  status: ('A' for Active; 'I' for Inactive)
REMARK    1  A    between atoms: C_1  and  C_2
REMARK    2  A    between atoms: C_2  and  C_3
REMARK    3  A    between atoms: C_9  and  O_10
REMARK    4  A    between atoms: C_12  and  C_13
REMARK    5  A    between atoms: C_21  and  C_22
REMARK    6  A    between atoms: C_21  and  C_23
REMARK                            x       y       z     vdW  Elec       q    Type
REMARK                         _______ _______ _______ _____ _____    ______ ____
ROOT
ATOM      1  C   UNL     1       4.211   4.809  17.998  0.00  0.00    +0.000 C 
ATOM      2  N   UNL     1       3.779   6.116  17.484  0.00  0.00    +0.000 N 
ATOM      3  C   UNL     1       2.950   6.923  18.262  0.00  0.00    +0.000 A 
ATOM      4  C   UNL     1       2.628   8.213  17.827  0.00  0.00    +0.000 A 
ATOM      5  C   UNL     1       1.855   9.091  18.581  0.00  0.00    +0.000 A 
ATOM      6  N   UNL     1       1.588  10.306  18.070  0.00  0.00    +0.000 NA
ATOM      7  C   UNL     1       0.846  11.136  18.810  0.00  0.00    +0.000 A 
ATOM      8  C   UNL     1       0.328  10.856  20.048  0.00  0.00    +0.000 A 
ATOM      9  C   UNL     1       0.595   9.597  20.592  0.00  0.00    +0.000 A 
ATOM     10  C   UNL     1       1.383   8.678  19.848  0.00  0.00    +0.000 A 
ATOM     11  C   UNL     1       1.717   7.382  20.298  0.00  0.00    +0.000 A 
ATOM     12  C   UNL     1       2.482   6.511  19.511  0.00  0.00    +0.000 A 
ATOM     13  C   UNL     1       2.784   5.121  20.011  0.00  0.00    +0.000 C 
ATOM     14  C   UNL     1       3.092   4.139  18.854  0.00  0.00    +0.000 C 
ATOM     15  C   UNL     1       1.808   3.832  18.052  0.00  0.00    +0.000 C 
ATOM     16  C   UNL     1       3.577   2.815  19.479  0.00  0.00    +0.000 C 
ATOM     17  H   UNL     1       3.593   6.172  16.487  0.00  0.00    +0.000 HD
ENDROOT
BRANCH   9  18
ATOM     18  C   UNL     1       0.029   9.252  21.945  0.00  0.00    +0.000 C 
ATOM     19  F   UNL     1       0.981   8.962  22.876  0.00  0.00    +0.000 F 
ATOM     20  F   UNL     1      -0.708  10.266  22.480  0.00  0.00    +0.000 F 
ATOM     21  F   UNL     1      -0.793   8.166  21.913  0.00  0.00    +0.000 F 
ENDBRANCH   9  18
BRANCH   1  23
ATOM     22  C   UNL     1       5.307   4.769  15.690  0.00  0.00    +0.000 C 
ATOM     23  C   UNL     1       4.753   3.938  16.845  0.00  0.00    +0.000 C 
ENDBRANCH   1  23
BRANCH   7  24
ATOM     24  O   UNL     1       0.617  12.342  18.230  0.00  0.00    +0.000 OA
ATOM     25  H   UNL     1       0.790  12.928  18.989  0.00  0.00    +0.000 HD
ENDBRANCH   7  24
TORSDOF 3
ENDMDL
MODEL 3
REMARK VINA RESULT:      -7.8      1.196      1.570
REMARK  Name = 
REMARK  6 active torsions:
REMARK  status: ('A' for Active; 'I' for Inactive)
REMARK    1  A    between atoms: C_1  and  C_2
REMARK    2  A    between atoms: C_2  and  C_3
REMARK    3  A    between atoms: C_9  and  O_10
REMARK    4  A    between atoms: C_12  and  C_13
REMARK    5  A    between atoms: C_21  and  C_22
REMARK    6  A    between atoms: C_21  and  C_23
REMARK                            x       y       z     vdW  Elec       q    Type
REMARK                         _______ _______ _______ _____ _____    ______ ____
ROOT
ATOM      1  C   UNL     1       3.372   3.276  19.766  0.00  0.00    +0.000 C 
ATOM      2  N   UNL     1       3.363   4.427  18.853  0.00  0.00    +0.000 N 
ATOM      3  C   UNL     1       2.722   5.606  19.236  0.00  0.00    +0.000 A 
ATOM      4  C   UNL     1       2.807   6.740  18.421  0.00  0.00    +0.000 A 
ATOM      5  C   UNL     1       2.242   7.962  18.771  0.00  0.00    +0.000 A 
ATOM      6  N   UNL     1       2.366   8.991  17.912  0.00  0.00    +0.000 NA
ATOM      7  C   UNL     1       1.818  10.157  18.267  0.00  0.00    +0.000 A 
ATOM      8  C   UNL     1       1.137  10.399  19.431  0.00  0.00    +0.000 A 
ATOM      9  C   UNL     1       0.999   9.341  20.333  0.00  0.00    +0.000 A 
ATOM     10  C   UNL     1       1.566   8.080  20.006  0.00  0.00    +0.000 A 
ATOM     11  C   UNL     1       1.490   6.942  20.839  0.00  0.00    +0.000 A 
ATOM     12  C   UNL     1       2.051   5.717  20.455  0.00  0.00    +0.000 A 
ATOM     13  C   UNL     1       1.915   4.516  21.356  0.00  0.00    +0.000 C 
ATOM     14  C   UNL     1       2.041   3.185  20.575  0.00  0.00    +0.000 C 
ATOM     15  C   UNL     1       0.797   2.961  19.686  0.00  0.00    +0.000 C 
ATOM     16  C   UNL     1       2.087   2.039  21.607  0.00  0.00    +0.000 C 
ATOM     17  H   UNL     1       3.287   4.220  17.862  0.00  0.00    +0.000 HD
ENDROOT
BRANCH   9  18
ATOM     18  C   UNL     1       0.243   9.569  21.616  0.00  0.00    +0.000 C 
ATOM     19  F   UNL     1      -0.425  10.757  21.651  0.00  0.00    +0.000 F 
ATOM     20  F   UNL     1      -0.701   8.613  21.847  0.00  0.00    +0.000 F 
ATOM     21  F   UNL     1       1.051   9.572  22.713  0.00  0.00    +0.000 F 
ENDBRANCH   9  18
BRANCH   1  23
ATOM     22  C   UNL     1       3.600   2.145  17.486  0.00  0.00    +0.000 C 
ATOM     23  C   UNL     1       3.752   1.993  18.998  0.00  0.00    +0.000 C 
ENDBRANCH   1  23
BRANCH   7  24
ATOM     24  O   UNL     1       1.981  11.148  17.353  0.00  0.00    +0.000 OA
ATOM     25  H   UNL     1       1.075  11.502  17.326  0.00  0.00    +0.000 HD
ENDBRANCH   7  24
TORSDOF 3
ENDMDL
MODEL 4
REMARK VINA RESULT:      -7.7      4.379      7.293
REMARK  Name = 
REMARK  6 active torsions:
REMARK  status: ('A' for Active; 'I' for Inactive)
REMARK    1  A    between atoms: C_1  and  C_2
REMARK    2  A    between atoms: C_2  and  C_3
REMARK    3  A    between atoms: C_9  and  O_10
REMARK    4  A    between atoms: C_12  and  C_13
REMARK    5  A    between atoms: C_21  and  C_22
REMARK    6  A    between atoms: C_21  and  C_23
REMARK                            x       y       z     vdW  Elec       q    Type
REMARK                         _______ _______ _______ _____ _____    ______ ____
ROOT
ATOM      1  C   UNL     1       1.095   9.619  20.272  0.00  0.00    +0.000 C 
ATOM      2  N   UNL     1       1.280   8.169  20.419  0.00  0.00    +0.000 N 
ATOM      3  C   UNL     1       2.067   7.477  19.498  0.00  0.00    +0.000 A 
ATOM      4  C   UNL     1       2.338   6.118  19.696  0.00  0.00    +0.000 A 
ATOM      5  C   UNL     1       3.162   5.384  18.850  0.00  0.00    +0.000 A 
ATOM      6  N   UNL     1       3.350   4.079  19.117  0.00  0.00    +0.000 NA
ATOM      7  C   UNL     1       4.146   3.391  18.294  0.00  0.00    +0.000 A 
ATOM      8  C   UNL     1       4.790   3.897  17.195  0.00  0.00    +0.000 A 
ATOM      9  C   UNL     1       4.603   5.251  16.903  0.00  0.00    +0.000 A 
ATOM     10  C   UNL     1       3.769   6.030  17.749  0.00  0.00    +0.000 A 
ATOM     11  C   UNL     1       3.510   7.404  17.553  0.00  0.00    +0.000 A 
ATOM     12  C   UNL     1       2.661   8.117  18.409  0.00  0.00    +0.000 A 
ATOM     13  C   UNL     1       2.380   9.574  18.142  0.00  0.00    +0.000 C 
ATOM     14  C   UNL     1       1.041  10.033  18.769  0.00  0.00    +0.000 C 
ATOM     15  C   UNL     1      -0.152   9.415  18.006  0.00  0.00    +0.000 C 
ATOM     16  C   UNL     1       0.950  11.565  18.610  0.00  0.00    +0.000 C 
ATOM     17  H   UNL     1       0.480   7.642  20.757  0.00  0.00    +0.000 HD
ENDROOT
BRANCH   9  18
ATOM     18  C   UNL     1       5.284   5.837  15.694  0.00  0.00    +0.000 C 
ATOM     19  F   UNL     1       4.734   7.012  15.274  0.00  0.00    +0.000 F 
ATOM     20  F   UNL     1       6.601   6.109  15.913  0.00  0.00    +0.000 F 
ATOM     21  F   UNL     1       5.246   5.011  14.612  0.00  0.00    +0.000 F 
ENDBRANCH   9  18
BRANCH   1  23
ATOM     22  C   UNL     1      -0.295   9.260  22.385  0.00  0.00    +0.000 C 
ATOM     23  C   UNL     1      -0.107  10.089  21.118  0.00  0.00    +0.000 C 
ENDBRANCH   1  23
BRANCH   7  24
ATOM     24  O   UNL     1       4.288   2.082  18.625  0.00  0.00    +0.000 OA
ATOM     25  H   UNL     1       4.618   1.729  17.779  0.00  0.00    +0.000 HD
ENDBRANCH   7  24
TORSDOF 3
ENDMDL
MODEL 5
REMARK VINA RESULT:      -7.1      3.406      6.455
REMARK  Name = 
REMARK  6 active torsions:
REMARK  status: ('A' for Active; 'I' for Inactive)
REMARK    1  A    between atoms: C_1  and  C_2
REMARK    2  A    between atoms: C_2  and  C_3
REMARK    3  A    between atoms: C_9  and  O_10
REMARK    4  A    between atoms: C_12  and  C_13
REMARK    5  A    between atoms: C_21  and  C_22
REMARK    6  A    between atoms: C_21  and  C_23
REMARK                            x       y       z     vdW  Elec       q    Type
REMARK                         _______ _______ _______ _____ _____    ______ ____
ROOT
ATOM      1  C   UNL     1       0.421   9.697  20.109  0.00  0.00    +0.000 C 
ATOM      2  N   UNL     1       1.478   9.120  19.267  0.00  0.00    +0.000 N 
ATOM      3  C   UNL     1       1.913   7.815  19.502  0.00  0.00    +0.000 A 
ATOM      4  C   UNL     1       2.836   7.222  18.635  0.00  0.00    +0.000 A 
ATOM      5  C   UNL     1       3.266   5.907  18.778  0.00  0.00    +0.000 A 
ATOM      6  N   UNL     1       4.168   5.432  17.899  0.00  0.00    +0.000 NA
ATOM      7  C   UNL     1       4.567   4.166  18.052  0.00  0.00    +0.000 A 
ATOM      8  C   UNL     1       4.140   3.305  19.028  0.00  0.00    +0.000 A 
ATOM      9  C   UNL     1       3.204   3.783  19.949  0.00  0.00    +0.000 A 
ATOM     10  C   UNL     1       2.743   5.122  19.830  0.00  0.00    +0.000 A 
ATOM     11  C   UNL     1       1.799   5.711  20.700  0.00  0.00    +0.000 A 
ATOM     12  C   UNL     1       1.397   7.044  20.546  0.00  0.00    +0.000 A 
ATOM     13  C   UNL     1       0.416   7.647  21.519  0.00  0.00    +0.000 C 
ATOM     14  C   UNL     1       0.531   9.190  21.581  0.00  0.00    +0.000 C 
ATOM     15  C   UNL     1       1.846   9.606  22.276  0.00  0.00    +0.000 C 
ATOM     16  C   UNL     1      -0.636   9.712  22.445  0.00  0.00    +0.000 C 
ATOM     17  H   UNL     1       2.214   9.752  18.966  0.00  0.00    +0.000 HD
ENDROOT
BRANCH   9  18
ATOM     18  C   UNL     1       2.723   2.867  21.044  0.00  0.00    +0.000 C 
ATOM     19  F   UNL     1       2.331   3.525  22.172  0.00  0.00    +0.000 F 
ATOM     20  F   UNL     1       1.650   2.117  20.668  0.00  0.00    +0.000 F 
ATOM     21  F   UNL     1       3.677   1.984  21.451  0.00  0.00    +0.000 F 
ENDBRANCH   9  18
BRANCH   1  23
ATOM     22  C   UNL     1       1.459  11.741  18.982  0.00  0.00    +0.000 C 
ATOM     23  C   UNL     1       0.397  11.231  19.953  0.00  0.00    +0.000 C 
ENDBRANCH   1  23
BRANCH   7  24
ATOM     24  O   UNL     1       5.478   3.757  17.131  0.00  0.00    +0.000 OA
ATOM     25  H   UNL     1       5.357   2.793  17.193  0.00  0.00    +0.000 HD
ENDBRANCH   7  24
TORSDOF 3
ENDMDL
MODEL 6
REMARK VINA RESULT:      -7.1      2.559      3.446
REMARK  Name = 
REMARK  6 active torsions:
REMARK  status: ('A' for Active; 'I' for Inactive)
REMARK    1  A    between atoms: C_1  and  C_2
REMARK    2  A    between atoms: C_2  and  C_3
REMARK    3  A    between atoms: C_9  and  O_10
REMARK    4  A    between atoms: C_12  and  C_13
REMARK    5  A    between atoms: C_21  and  C_22
REMARK    6  A    between atoms: C_21  and  C_23
REMARK                            x       y       z     vdW  Elec       q    Type
REMARK                         _______ _______ _______ _____ _____    ______ ____
ROOT
ATOM      1  C   UNL     1       3.368   4.104  18.766  0.00  0.00    +0.000 C 
ATOM      2  N   UNL     1       2.867   4.777  19.972  0.00  0.00    +0.000 N 
ATOM      3  C   UNL     1       2.466   6.112  19.901  0.00  0.00    +0.000 A 
ATOM      4  C   UNL     1       1.884   6.723  21.016  0.00  0.00    +0.000 A 
ATOM      5  C   UNL     1       1.409   8.031  20.995  0.00  0.00    +0.000 A 
ATOM      6  N   UNL     1       0.877   8.534  22.124  0.00  0.00    +0.000 NA
ATOM      7  C   UNL     1       0.425   9.791  22.083  0.00  0.00    +0.000 A 
ATOM      8  C   UNL     1       0.456  10.617  20.990  0.00  0.00    +0.000 A 
ATOM      9  C   UNL     1       1.007  10.110  19.810  0.00  0.00    +0.000 A 
ATOM     10  C   UNL     1       1.499   8.777  19.799  0.00  0.00    +0.000 A 
ATOM     11  C   UNL     1       2.073   8.159  18.665  0.00  0.00    +0.000 A 
ATOM     12  C   UNL     1       2.561   6.847  18.718  0.00  0.00    +0.000 A 
ATOM     13  C   UNL     1       3.202   6.238  17.497  0.00  0.00    +0.000 C 
ATOM     14  C   UNL     1       4.174   5.088  17.862  0.00  0.00    +0.000 C 
ATOM     15  C   UNL     1       5.441   5.649  18.544  0.00  0.00    +0.000 C 
ATOM     16  C   UNL     1       4.614   4.413  16.547  0.00  0.00    +0.000 C 
ATOM     17  H   UNL     1       3.312   4.526  20.850  0.00  0.00    +0.000 HD
ENDROOT
BRANCH   9  18
ATOM     18  C   UNL     1       1.070  10.996  18.594  0.00  0.00    +0.000 C 
ATOM     19  F   UNL     1       2.332  11.160  18.104  0.00  0.00    +0.000 F 
ATOM     20  F   UNL     1       0.335  10.513  17.553  0.00  0.00    +0.000 F 
ATOM     21  F   UNL     1       0.605  12.254  18.831  0.00  0.00    +0.000 F 
ENDBRANCH   9  18
BRANCH   1  23
ATOM     22  C   UNL     1       3.498   1.562  18.546  0.00  0.00    +0.000 C 
ATOM     23  C   UNL     1       4.123   2.815  19.153  0.00  0.00    +0.000 C 
ENDBRANCH   1  23
BRANCH   7  24
ATOM     24  O   UNL     1      -0.096  10.232  23.257  0.00  0.00    +0.000 OA
ATOM     25  H   UNL     1      -0.878   9.655  23.321  0.00  0.00    +0.000 HD
ENDBRANCH   7  24
TORSDOF 3
ENDMDL
