MODEL 1
REMARK VINA RESULT:      -8.0      0.000      0.000
REMARK  Name = 
REMARK  10 active torsions:
REMARK  status: ('A' for Active; 'I' for Inactive)
REMARK    1  A    between atoms: C_1  and  C_2
REMARK    2  A    between atoms: C_6  and  N_7
REMARK    3  A    between atoms: C_8  and  S_9
REMARK    4  A    between atoms: N_10  and  C_11
REMARK    5  A    between atoms: N_10  and  C_20
REMARK    6  A    between atoms: C_11  and  C_12
REMARK    7  A    between atoms: C_12  and  C_13
REMARK    8  A    between atoms: C_13  and  N_14
REMARK    9  A    between atoms: C_20  and  C_21
REMARK   10  A    between atoms: C_20  and  C_22
REMARK                            x       y       z     vdW  Elec       q    Type
REMARK                         _______ _______ _______ _____ _____    ______ ____
ROOT
ATOM      1  N   UNL     1       4.739   5.535  18.948  0.00  0.00    +0.000 NA
ATOM      2  C   UNL     1       4.906   6.448  18.033  0.00  0.00    +0.000 C 
ATOM      3  N   UNL     1       6.174   6.884  17.696  0.00  0.00    +0.000 N 
ENDROOT
BRANCH   1   9
ATOM      4  C   UNL     1       1.206   2.029  18.637  0.00  0.00    +0.000 C 
ATOM      5  C   UNL     1       1.707   3.319  19.213  0.00  0.00    +0.000 A 
ATOM      6  C   UNL     1       1.028   3.968  20.246  0.00  0.00    +0.000 A 
ATOM      7  C   UNL     1       1.566   5.122  20.809  0.00  0.00    +0.000 A 
ATOM      8  C   UNL     1       2.807   5.601  20.374  0.00  0.00    +0.000 A 
ATOM      9  C   UNL     1       3.522   4.959  19.354  0.00  0.00    +0.000 A 
ATOM     10  C   UNL     1       2.918   3.856  18.743  0.00  0.00    +0.000 A 
ENDBRANCH   1   9
BRANCH   2  11
ATOM     11  S   UNL     1       3.622   7.204  17.089  0.00  0.00    +0.000 S 
ATOM     12  H   UNL     1       3.458   8.248  17.911  0.00  0.00    +0.000 HD
ENDBRANCH   2  11
BRANCH   3  13
ATOM     13  C   UNL     1       7.155   5.956  17.100  0.00  0.00    +0.000 C 
ATOM     14  C   UNL     1       7.593   4.931  18.147  0.00  0.00    +0.000 C 
BRANCH  13  15
ATOM     15  C   UNL     1       6.785   5.272  15.809  0.00  0.00    +0.000 A 
ATOM     16  C   UNL     1       5.804   4.367  15.450  0.00  0.00    +0.000 A 
ATOM     17  C   UNL     1       6.006   4.051  14.085  0.00  0.00    +0.000 A 
ATOM     18  C   UNL     1       5.372   3.218  13.143  0.00  0.00    +0.000 A 
ATOM     19  C   UNL     1       5.893   3.159  11.840  0.00  0.00    +0.000 A 
ATOM     20  C   UNL     1       7.018   3.906  11.479  0.00  0.00    +0.000 A 
ATOM     21  C   UNL     1       7.659   4.740  12.402  0.00  0.00    +0.000 A 
ATOM     22  C   UNL     1       7.117   4.783  13.688  0.00  0.00    +0.000 A 
ATOM     23  O   UNL     1       7.595   5.522  14.728  0.00  0.00    +0.000 OA
ENDBRANCH  13  15
ENDBRANCH   3  13
BRANCH   3  24
ATOM     24  C   UNL     1       6.611   8.283  17.836  0.00  0.00    +0.000 C 
BRANCH  24  25
ATOM     25  C   UNL     1       8.126   8.440  17.719  0.00  0.00    +0.000 C 
BRANCH  25  26
ATOM     26  C   UNL     1       8.804   8.650  19.082  0.00  0.00    +0.000 C 
BRANCH  26  27
ATOM     27  N   UNL     1       9.272  10.011  19.108  0.00  0.00    +0.000 NA
ATOM     28  C   UNL     1       9.239  10.825  17.903  0.00  0.00    +0.000 C 
ATOM     29  C   UNL     1      10.486  11.718  17.915  0.00  0.00    +0.000 C 
ATOM     30  O   UNL     1      10.523  12.538  19.096  0.00  0.00    +0.000 OA
ATOM     31  C   UNL     1      10.531  11.721  20.279  0.00  0.00    +0.000 C 
ATOM     32  C   UNL     1       9.315  10.777  20.340  0.00  0.00    +0.000 C 
ENDBRANCH  26  27
ENDBRANCH  25  26
ENDBRANCH  24  25
ENDBRANCH   3  24
TORSDOF 8
ENDMDL
MODEL 2
REMARK VINA RESULT:      -7.6      3.628      6.687
REMARK  Name = 
REMARK  10 active torsions:
REMARK  status: ('A' for Active; 'I' for Inactive)
REMARK    1  A    between atoms: C_1  and  C_2
REMARK    2  A    between atoms: C_6  and  N_7
REMARK    3  A    between atoms: C_8  and  S_9
REMARK    4  A    between atoms: N_10  and  C_11
REMARK    5  A    between atoms: N_10  and  C_20
REMARK    6  A    between atoms: C_11  and  C_12
REMARK    7  A    between atoms: C_12  and  C_13
REMARK    8  A    between atoms: C_13  and  N_14
REMARK    9  A    between atoms: C_20  and  C_21
REMARK   10  A    between atoms: C_20  and  C_22
REMARK                            x       y       z     vdW  Elec       q    Type
REMARK                         _______ _______ _______ _____ _____    ______ ____
ROOT
ATOM      1  N   UNL     1       2.416   8.048  17.521  0.00  0.00    +0.000 NA
ATOM      2  C   UNL     1       2.739   7.047  18.291  0.00  0.00    +0.000 C 
ATOM      3  N   UNL     1       3.490   5.995  17.801  0.00  0.00    +0.000 N 
ENDROOT
BRANCH   1   9
ATOM      4  C   UNL     1      -1.819  10.485  18.518  0.00  0.00    +0.000 C 
ATOM      5  C   UNL     1      -0.332  10.492  18.323  0.00  0.00    +0.000 A 
ATOM      6  C   UNL     1       0.432  11.630  18.586  0.00  0.00    +0.000 A 
ATOM      7  C   UNL     1       1.817  11.576  18.469  0.00  0.00    +0.000 A 
ATOM      8  C   UNL     1       2.445  10.368  18.139  0.00  0.00    +0.000 A 
ATOM      9  C   UNL     1       1.707   9.204  17.891  0.00  0.00    +0.000 A 
ATOM     10  C   UNL     1       0.313   9.309  17.925  0.00  0.00    +0.000 A 
ENDBRANCH   1   9
BRANCH   2  11
ATOM     11  S   UNL     1       2.337   6.896  20.002  0.00  0.00    +0.000 S 
ATOM     12  H   UNL     1       3.382   6.117  20.308  0.00  0.00    +0.000 HD
ENDBRANCH   2  11
BRANCH   3  13
ATOM     13  C   UNL     1       4.872   6.214  17.327  0.00  0.00    +0.000 C 
ATOM     14  C   UNL     1       5.858   5.865  18.441  0.00  0.00    +0.000 C 
BRANCH  13  15
ATOM     15  C   UNL     1       5.282   5.565  16.029  0.00  0.00    +0.000 A 
ATOM     16  C   UNL     1       4.783   4.515  15.282  0.00  0.00    +0.000 A 
ATOM     17  C   UNL     1       5.647   4.341  14.175  0.00  0.00    +0.000 A 
ATOM     18  C   UNL     1       5.700   3.471  13.070  0.00  0.00    +0.000 A 
ATOM     19  C   UNL     1       6.759   3.606  12.157  0.00  0.00    +0.000 A 
ATOM     20  C   UNL     1       7.744   4.581  12.336  0.00  0.00    +0.000 A 
ATOM     21  C   UNL     1       7.706   5.456  13.428  0.00  0.00    +0.000 A 
ATOM     22  C   UNL     1       6.640   5.302  14.316  0.00  0.00    +0.000 A 
ATOM     23  O   UNL     1       6.426   6.043  15.439  0.00  0.00    +0.000 OA
ENDBRANCH  13  15
ENDBRANCH   3  13
BRANCH   3  24
ATOM     24  C   UNL     1       3.014   4.603  17.779  0.00  0.00    +0.000 C 
BRANCH  24  25
ATOM     25  C   UNL     1       1.488   4.503  17.774  0.00  0.00    +0.000 C 
BRANCH  25  26
ATOM     26  C   UNL     1       0.988   3.119  18.217  0.00  0.00    +0.000 C 
BRANCH  26  27
ATOM     27  N   UNL     1       1.718   2.776  19.410  0.00  0.00    +0.000 NA
ATOM     28  C   UNL     1       1.108   2.941  20.720  0.00  0.00    +0.000 C 
ATOM     29  C   UNL     1       2.209   3.397  21.687  0.00  0.00    +0.000 C 
ATOM     30  O   UNL     1       3.286   2.446  21.731  0.00  0.00    +0.000 OA
ATOM     31  C   UNL     1       3.864   2.277  20.424  0.00  0.00    +0.000 C 
ATOM     32  C   UNL     1       2.819   1.831  19.382  0.00  0.00    +0.000 C 
ENDBRANCH  26  27
ENDBRANCH  25  26
ENDBRANCH  24  25
ENDBRANCH   3  24
TORSDOF 8
ENDMDL
MODEL 3
REMARK VINA RESULT:      -7.3      0.934      1.606
REMARK  Name = 
REMARK  10 active torsions:
REMARK  status: ('A' for Active; 'I' for Inactive)
REMARK    1  A    between atoms: C_1  and  C_2
REMARK    2  A    between atoms: C_6  and  N_7
REMARK    3  A    between atoms: C_8  and  S_9
REMARK    4  A    between atoms: N_10  and  C_11
REMARK    5  A    between atoms: N_10  and  C_20
REMARK    6  A    between atoms: C_11  and  C_12
REMARK    7  A    between atoms: C_12  and  C_13
REMARK    8  A    between atoms: C_13  and  N_14
REMARK    9  A    between atoms: C_20  and  C_21
REMARK   10  A    between atoms: C_20  and  C_22
REMARK                            x       y       z     vdW  Elec       q    Type
REMARK                         _______ _______ _______ _____ _____    ______ ____
ROOT
ATOM      1  N   UNL     1       4.992   4.599  18.802  0.00  0.00    +0.000 NA
ATOM      2  C   UNL     1       5.142   5.726  18.164  0.00  0.00    +0.000 C 
ATOM      3  N   UNL     1       6.398   6.278  17.996  0.00  0.00    +0.000 N 
ENDROOT
BRANCH   1   9
ATOM      4  C   UNL     1       1.308   2.918  21.712  0.00  0.00    +0.000 C 
ATOM      5  C   UNL     1       1.985   2.970  20.375  0.00  0.00    +0.000 A 
ATOM      6  C   UNL     1       1.408   2.393  19.243  0.00  0.00    +0.000 A 
ATOM      7  C   UNL     1       2.028   2.530  18.005  0.00  0.00    +0.000 A 
ATOM      8  C   UNL     1       3.199   3.287  17.888  0.00  0.00    +0.000 A 
ATOM      9  C   UNL     1       3.791   3.896  19.002  0.00  0.00    +0.000 A 
ATOM     10  C   UNL     1       3.199   3.667  20.249  0.00  0.00    +0.000 A 
ENDBRANCH   1   9
BRANCH   2  11
ATOM     11  S   UNL     1       3.851   6.659  17.408  0.00  0.00    +0.000 S 
ATOM     12  H   UNL     1       4.627   7.694  17.064  0.00  0.00    +0.000 HD
ENDBRANCH   2  11
BRANCH   3  13
ATOM     13  C   UNL     1       7.432   5.572  17.211  0.00  0.00    +0.000 C 
ATOM     14  C   UNL     1       8.068   4.478  18.068  0.00  0.00    +0.000 C 
BRANCH  13  15
ATOM     15  C   UNL     1       7.043   5.030  15.859  0.00  0.00    +0.000 A 
ATOM     16  C   UNL     1       6.136   4.078  15.433  0.00  0.00    +0.000 A 
ATOM     17  C   UNL     1       6.272   3.971  14.028  0.00  0.00    +0.000 A 
ATOM     18  C   UNL     1       5.662   3.206  13.016  0.00  0.00    +0.000 A 
ATOM     19  C   UNL     1       6.092   3.380  11.690  0.00  0.00    +0.000 A 
ATOM     20  C   UNL     1       7.105   4.289  11.374  0.00  0.00    +0.000 A 
ATOM     21  C   UNL     1       7.722   5.058  12.368  0.00  0.00    +0.000 A 
ATOM     22  C   UNL     1       7.271   4.869  13.676  0.00  0.00    +0.000 A 
ATOM     23  O   UNL     1       7.744   5.510  14.781  0.00  0.00    +0.000 OA
ENDBRANCH  13  15
ENDBRANCH   3  13
BRANCH   3  24
ATOM     24  C   UNL     1       6.773   7.604  18.511  0.00  0.00    +0.000 C 
BRANCH  24  25
ATOM     25  C   UNL     1       8.023   8.167  17.835  0.00  0.00    +0.000 C 
BRANCH  25  26
ATOM     26  C   UNL     1       7.909   9.671  17.544  0.00  0.00    +0.000 C 
BRANCH  26  27
ATOM     27  N   UNL     1       8.892  10.329  18.366  0.00  0.00    +0.000 NA
ATOM     28  C   UNL     1       9.157   9.858  19.716  0.00  0.00    +0.000 C 
ATOM     29  C   UNL     1       9.436  11.090  20.588  0.00  0.00    +0.000 C 
ATOM     30  O   UNL     1      10.546  11.846  20.073  0.00  0.00    +0.000 OA
ATOM     31  C   UNL     1      10.279  12.284  18.729  0.00  0.00    +0.000 C 
ATOM     32  C   UNL     1       9.971  11.105  17.785  0.00  0.00    +0.000 C 
ENDBRANCH  26  27
ENDBRANCH  25  26
ENDBRANCH  24  25
ENDBRANCH   3  24
TORSDOF 8
ENDMDL
MODEL 4
REMARK VINA RESULT:      -7.2      3.733      6.269
REMARK  Name = 
REMARK  10 active torsions:
REMARK  status: ('A' for Active; 'I' for Inactive)
REMARK    1  A    between atoms: C_1  and  C_2
REMARK    2  A    between atoms: C_6  and  N_7
REMARK    3  A    between atoms: C_8  and  S_9
REMARK    4  A    between atoms: N_10  and  C_11
REMARK    5  A    between atoms: N_10  and  C_20
REMARK    6  A    between atoms: C_11  and  C_12
REMARK    7  A    between atoms: C_12  and  C_13
REMARK    8  A    between atoms: C_13  and  N_14
REMARK    9  A    between atoms: C_20  and  C_21
REMARK   10  A    between atoms: C_20  and  C_22
REMARK                            x       y       z     vdW  Elec       q    Type
REMARK                         _______ _______ _______ _____ _____    ______ ____
ROOT
ATOM      1  N   UNL     1       3.276   6.792  17.450  0.00  0.00    +0.000 NA
ATOM      2  C   UNL     1       4.193   5.970  17.877  0.00  0.00    +0.000 C 
ATOM      3  N   UNL     1       4.857   5.136  16.997  0.00  0.00    +0.000 N 
ENDROOT
BRANCH   1   9
ATOM      4  C   UNL     1       1.099   8.281  21.682  0.00  0.00    +0.000 C 
ATOM      5  C   UNL     1       1.403   8.504  20.231  0.00  0.00    +0.000 A 
ATOM      6  C   UNL     1       1.064   9.696  19.590  0.00  0.00    +0.000 A 
ATOM      7  C   UNL     1       1.433   9.898  18.263  0.00  0.00    +0.000 A 
ATOM      8  C   UNL     1       2.186   8.928  17.591  0.00  0.00    +0.000 A 
ATOM      9  C   UNL     1       2.560   7.730  18.214  0.00  0.00    +0.000 A 
ATOM     10  C   UNL     1       2.099   7.513  19.516  0.00  0.00    +0.000 A 
ENDBRANCH   1   9
BRANCH   2  11
ATOM     11  S   UNL     1       4.747   5.826  19.546  0.00  0.00    +0.000 S 
ATOM     12  H   UNL     1       4.923   4.499  19.506  0.00  0.00    +0.000 HD
ENDBRANCH   2  11
BRANCH   3  13
ATOM     13  C   UNL     1       5.706   5.695  15.926  0.00  0.00    +0.000 C 
ATOM     14  C   UNL     1       7.027   6.184  16.520  0.00  0.00    +0.000 C 
BRANCH  13  15
ATOM     15  C   UNL     1       5.953   4.844  14.706  0.00  0.00    +0.000 A 
ATOM     16  C   UNL     1       7.092   4.431  14.040  0.00  0.00    +0.000 A 
ATOM     17  C   UNL     1       6.670   3.684  12.915  0.00  0.00    +0.000 A 
ATOM     18  C   UNL     1       7.313   3.006  11.861  0.00  0.00    +0.000 A 
ATOM     19  C   UNL     1       6.523   2.369  10.890  0.00  0.00    +0.000 A 
ATOM     20  C   UNL     1       5.128   2.404  10.960  0.00  0.00    +0.000 A 
ATOM     21  C   UNL     1       4.472   3.072  12.001  0.00  0.00    +0.000 A 
ATOM     22  C   UNL     1       5.282   3.692  12.955  0.00  0.00    +0.000 A 
ATOM     23  O   UNL     1       4.842   4.396  14.035  0.00  0.00    +0.000 OA
ENDBRANCH  13  15
ENDBRANCH   3  13
BRANCH   3  24
ATOM     24  C   UNL     1       4.829   3.668  17.098  0.00  0.00    +0.000 C 
BRANCH  24  25
ATOM     25  C   UNL     1       3.414   3.099  16.997  0.00  0.00    +0.000 C 
BRANCH  25  26
ATOM     26  C   UNL     1       3.151   1.989  18.027  0.00  0.00    +0.000 C 
BRANCH  26  27
ATOM     27  N   UNL     1       2.675   2.636  19.222  0.00  0.00    +0.000 NA
ATOM     28  C   UNL     1       3.464   2.599  20.443  0.00  0.00    +0.000 C 
ATOM     29  C   UNL     1       2.486   2.487  21.621  0.00  0.00    +0.000 C 
ATOM     30  O   UNL     1       1.562   3.589  21.631  0.00  0.00    +0.000 OA
ATOM     31  C   UNL     1       0.807   3.627  20.408  0.00  0.00    +0.000 C 
ATOM     32  C   UNL     1       1.716   3.724  19.167  0.00  0.00    +0.000 C 
ENDBRANCH  26  27
ENDBRANCH  25  26
ENDBRANCH  24  25
ENDBRANCH   3  24
TORSDOF 8
ENDMDL
MODEL 5
REMARK VINA RESULT:      -7.2      4.080      9.379
REMARK  Name = 
REMARK  10 active torsions:
REMARK  status: ('A' for Active; 'I' for Inactive)
REMARK    1  A    between atoms: C_1  and  C_2
REMARK    2  A    between atoms: C_6  and  N_7
REMARK    3  A    between atoms: C_8  and  S_9
REMARK    4  A    between atoms: N_10  and  C_11
REMARK    5  A    between atoms: N_10  and  C_20
REMARK    6  A    between atoms: C_11  and  C_12
REMARK    7  A    between atoms: C_12  and  C_13
REMARK    8  A    between atoms: C_13  and  N_14
REMARK    9  A    between atoms: C_20  and  C_21
REMARK   10  A    between atoms: C_20  and  C_22
REMARK                            x       y       z     vdW  Elec       q    Type
REMARK                         _______ _______ _______ _____ _____    ______ ____
ROOT
ATOM      1  N   UNL     1       4.337   6.275  18.617  0.00  0.00    +0.000 NA
ATOM      2  C   UNL     1       3.055   6.057  18.707  0.00  0.00    +0.000 C 
ATOM      3  N   UNL     1       2.273   6.804  19.568  0.00  0.00    +0.000 N 
ENDROOT
BRANCH   1   9
ATOM      4  C   UNL     1       5.591   4.353  14.189  0.00  0.00    +0.000 C 
ATOM      5  C   UNL     1       5.910   4.603  15.633  0.00  0.00    +0.000 A 
ATOM      6  C   UNL     1       7.160   4.290  16.168  0.00  0.00    +0.000 A 
ATOM      7  C   UNL     1       7.446   4.610  17.492  0.00  0.00    +0.000 A 
ATOM      8  C   UNL     1       6.499   5.289  18.268  0.00  0.00    +0.000 A 
ATOM      9  C   UNL     1       5.244   5.635  17.753  0.00  0.00    +0.000 A 
ATOM     10  C   UNL     1       4.948   5.222  16.450  0.00  0.00    +0.000 A 
ENDBRANCH   1   9
BRANCH   2  11
ATOM     11  S   UNL     1       2.145   4.876  17.766  0.00  0.00    +0.000 S 
ATOM     12  H   UNL     1       3.206   4.393  17.107  0.00  0.00    +0.000 HD
ENDBRANCH   2  11
BRANCH   3  13
ATOM     13  C   UNL     1       2.120   8.260  19.375  0.00  0.00    +0.000 C 
ATOM     14  C   UNL     1       1.704   8.545  17.932  0.00  0.00    +0.000 C 
BRANCH  13  15
ATOM     15  C   UNL     1       1.241   9.012  20.341  0.00  0.00    +0.000 A 
ATOM     16  C   UNL     1       0.927   8.848  21.678  0.00  0.00    +0.000 A 
ATOM     17  C   UNL     1      -0.012   9.853  22.013  0.00  0.00    +0.000 A 
ATOM     18  C   UNL     1      -0.710  10.227  23.176  0.00  0.00    +0.000 A 
ATOM     19  C   UNL     1      -1.599  11.313  23.108  0.00  0.00    +0.000 A 
ATOM     20  C   UNL     1      -1.793  12.010  21.913  0.00  0.00    +0.000 A 
ATOM     21  C   UNL     1      -1.106  11.653  20.747  0.00  0.00    +0.000 A 
ATOM     22  C   UNL     1      -0.226  10.574  20.845  0.00  0.00    +0.000 A 
ATOM     23  O   UNL     1       0.528  10.067  19.829  0.00  0.00    +0.000 OA
ENDBRANCH  13  15
ENDBRANCH   3  13
BRANCH   3  24
ATOM     24  C   UNL     1       1.497   6.215  20.671  0.00  0.00    +0.000 C 
BRANCH  24  25
ATOM     25  C   UNL     1       1.124   4.755  20.415  0.00  0.00    +0.000 C 
BRANCH  25  26
ATOM     26  C   UNL     1       1.877   3.784  21.338  0.00  0.00    +0.000 C 
BRANCH  26  27
ATOM     27  N   UNL     1       2.517   2.815  20.487  0.00  0.00    +0.000 NA
ATOM     28  C   UNL     1       3.910   2.453  20.701  0.00  0.00    +0.000 C 
ATOM     29  C   UNL     1       4.544   2.225  19.323  0.00  0.00    +0.000 C 
ATOM     30  O   UNL     1       3.846   1.199  18.596  0.00  0.00    +0.000 OA
ATOM     31  C   UNL     1       2.465   1.559  18.413  0.00  0.00    +0.000 C 
ATOM     32  C   UNL     1       1.752   1.824  19.754  0.00  0.00    +0.000 C 
ENDBRANCH  26  27
ENDBRANCH  25  26
ENDBRANCH  24  25
ENDBRANCH   3  24
TORSDOF 8
ENDMDL
MODEL 6
REMARK VINA RESULT:      -7.2      7.200     10.727
REMARK  Name = 
REMARK  10 active torsions:
REMARK  status: ('A' for Active; 'I' for Inactive)
REMARK    1  A    between atoms: C_1  and  C_2
REMARK    2  A    between atoms: C_6  and  N_7
REMARK    3  A    between atoms: C_8  and  S_9
REMARK    4  A    between atoms: N_10  and  C_11
REMARK    5  A    between atoms: N_10  and  C_20
REMARK    6  A    between atoms: C_11  and  C_12
REMARK    7  A    between atoms: C_12  and  C_13
REMARK    8  A    between atoms: C_13  and  N_14
REMARK    9  A    between atoms: C_20  and  C_21
REMARK   10  A    between atoms: C_20  and  C_22
REMARK                            x       y       z     vdW  Elec       q    Type
REMARK                         _______ _______ _______ _____ _____    ______ ____
ROOT
ATOM      1  N   UNL     1       1.644  12.938  20.218  0.00  0.00    +0.000 NA
ATOM      2  C   UNL     1       0.561  13.033  20.937  0.00  0.00    +0.000 C 
ATOM      3  N   UNL     1      -0.200  11.913  21.215  0.00  0.00    +0.000 N 
ENDROOT
BRANCH   1   9
ATOM      4  C   UNL     1       3.148  16.738  17.360  0.00  0.00    +0.000 C 
ATOM      5  C   UNL     1       3.387  15.803  18.508  0.00  0.00    +0.000 A 
ATOM      6  C   UNL     1       4.471  15.972  19.371  0.00  0.00    +0.000 A 
ATOM      7  C   UNL     1       4.616  15.131  20.471  0.00  0.00    +0.000 A 
ATOM      8  C   UNL     1       3.650  14.154  20.737  0.00  0.00    +0.000 A 
ATOM      9  C   UNL     1       2.540  13.975  19.901  0.00  0.00    +0.000 A 
ATOM     10  C   UNL     1       2.466  14.770  18.754  0.00  0.00    +0.000 A 
ENDBRANCH   1   9
BRANCH   2  11
ATOM     11  S   UNL     1      -0.057  14.511  21.675  0.00  0.00    +0.000 S 
ATOM     12  H   UNL     1      -0.959  13.897  22.452  0.00  0.00    +0.000 HD
ENDBRANCH   2  11
BRANCH   3  13
ATOM     13  C   UNL     1       0.359  10.802  22.011  0.00  0.00    +0.000 C 
ATOM     14  C   UNL     1      -0.636  10.398  23.099  0.00  0.00    +0.000 C 
BRANCH  13  15
ATOM     15  C   UNL     1       0.862   9.588  21.272  0.00  0.00    +0.000 A 
ATOM     16  C   UNL     1       1.087   8.272  21.631  0.00  0.00    +0.000 A 
ATOM     17  C   UNL     1       1.622   7.615  20.497  0.00  0.00    +0.000 A 
ATOM     18  C   UNL     1       2.056   6.308  20.206  0.00  0.00    +0.000 A 
ATOM     19  C   UNL     1       2.554   6.035  18.921  0.00  0.00    +0.000 A 
ATOM     20  C   UNL     1       2.625   7.036  17.948  0.00  0.00    +0.000 A 
ATOM     21  C   UNL     1       2.197   8.341  18.220  0.00  0.00    +0.000 A 
ATOM     22  C   UNL     1       1.701   8.582  19.503  0.00  0.00    +0.000 A 
ATOM     23  O   UNL     1       1.245   9.779  19.967  0.00  0.00    +0.000 OA
ENDBRANCH  13  15
ENDBRANCH   3  13
BRANCH   3  24
ATOM     24  C   UNL     1      -1.608  11.772  20.811  0.00  0.00    +0.000 C 
BRANCH  24  25
ATOM     25  C   UNL     1      -1.815  11.985  19.312  0.00  0.00    +0.000 C 
BRANCH  25  26
ATOM     26  C   UNL     1      -1.467  10.737  18.486  0.00  0.00    +0.000 C 
BRANCH  26  27
ATOM     27  N   UNL     1      -2.489  10.605  17.480  0.00  0.00    +0.000 NA
ATOM     28  C   UNL     1      -2.223   9.874  16.252  0.00  0.00    +0.000 C 
ATOM     29  C   UNL     1      -2.959  10.596  15.116  0.00  0.00    +0.000 C 
ATOM     30  O   UNL     1      -4.370  10.673  15.381  0.00  0.00    +0.000 OA
ATOM     31  C   UNL     1      -4.616  11.378  16.610  0.00  0.00    +0.000 C 
ATOM     32  C   UNL     1      -3.897  10.725  17.807  0.00  0.00    +0.000 C 
ENDBRANCH  26  27
ENDBRANCH  25  26
ENDBRANCH  24  25
ENDBRANCH   3  24
TORSDOF 8
ENDMDL
MODEL 7
REMARK VINA RESULT:      -7.2      4.048      9.332
REMARK  Name = 
REMARK  10 active torsions:
REMARK  status: ('A' for Active; 'I' for Inactive)
REMARK    1  A    between atoms: C_1  and  C_2
REMARK    2  A    between atoms: C_6  and  N_7
REMARK    3  A    between atoms: C_8  and  S_9
REMARK    4  A    between atoms: N_10  and  C_11
REMARK    5  A    between atoms: N_10  and  C_20
REMARK    6  A    between atoms: C_11  and  C_12
REMARK    7  A    between atoms: C_12  and  C_13
REMARK    8  A    between atoms: C_13  and  N_14
REMARK    9  A    between atoms: C_20  and  C_21
REMARK   10  A    between atoms: C_20  and  C_22
REMARK                            x       y       z     vdW  Elec       q    Type
REMARK                         _______ _______ _______ _____ _____    ______ ____
ROOT
ATOM      1  N   UNL     1       4.421   6.376  18.472  0.00  0.00    +0.000 NA
ATOM      2  C   UNL     1       3.131   6.195  18.501  0.00  0.00    +0.000 C 
ATOM      3  N   UNL     1       2.326   6.990  19.295  0.00  0.00    +0.000 N 
ENDROOT
BRANCH   1   9
ATOM      4  C   UNL     1       5.853   4.285  14.177  0.00  0.00    +0.000 C 
ATOM      5  C   UNL     1       6.101   4.569  15.628  0.00  0.00    +0.000 A 
ATOM      6  C   UNL     1       7.310   4.236  16.239  0.00  0.00    +0.000 A 
ATOM      7  C   UNL     1       7.534   4.587  17.567  0.00  0.00    +0.000 A 
ATOM      8  C   UNL     1       6.568   5.317  18.271  0.00  0.00    +0.000 A 
ATOM      9  C   UNL     1       5.353   5.684  17.678  0.00  0.00    +0.000 A 
ATOM     10  C   UNL     1       5.116   5.240  16.373  0.00  0.00    +0.000 A 
ENDBRANCH   1   9
BRANCH   2  11
ATOM     11  S   UNL     1       2.237   5.007  17.551  0.00  0.00    +0.000 S 
ATOM     12  H   UNL     1       1.268   4.824  18.456  0.00  0.00    +0.000 HD
ENDBRANCH   2  11
BRANCH   3  13
ATOM     13  C   UNL     1       2.225   8.443  19.048  0.00  0.00    +0.000 C 
ATOM     14  C   UNL     1       2.079   8.698  17.548  0.00  0.00    +0.000 C 
BRANCH  13  15
ATOM     15  C   UNL     1       1.192   9.220  19.823  0.00  0.00    +0.000 A 
ATOM     16  C   UNL     1       0.301  10.224  19.494  0.00  0.00    +0.000 A 
ATOM     17  C   UNL     1      -0.375  10.590  20.682  0.00  0.00    +0.000 A 
ATOM     18  C   UNL     1      -1.375  11.521  21.023  0.00  0.00    +0.000 A 
ATOM     19  C   UNL     1      -1.792  11.599  22.362  0.00  0.00    +0.000 A 
ATOM     20  C   UNL     1      -1.231  10.776  23.341  0.00  0.00    +0.000 A 
ATOM     21  C   UNL     1      -0.238   9.843  23.020  0.00  0.00    +0.000 A 
ATOM     22  C   UNL     1       0.154   9.784  21.681  0.00  0.00    +0.000 A 
ATOM     23  O   UNL     1       1.106   8.954  21.168  0.00  0.00    +0.000 OA
ENDBRANCH  13  15
ENDBRANCH   3  13
BRANCH   3  24
ATOM     24  C   UNL     1       1.478   6.459  20.374  0.00  0.00    +0.000 C 
BRANCH  24  25
ATOM     25  C   UNL     1       2.084   5.229  21.049  0.00  0.00    +0.000 C 
BRANCH  25  26
ATOM     26  C   UNL     1       1.231   3.967  20.848  0.00  0.00    +0.000 C 
BRANCH  26  27
ATOM     27  N   UNL     1       2.084   2.983  20.233  0.00  0.00    +0.000 NA
ATOM     28  C   UNL     1       3.376   2.659  20.818  0.00  0.00    +0.000 C 
ATOM     29  C   UNL     1       4.352   2.397  19.663  0.00  0.00    +0.000 C 
ATOM     30  O   UNL     1       3.881   1.332  18.820  0.00  0.00    +0.000 OA
ATOM     31  C   UNL     1       2.593   1.656  18.268  0.00  0.00    +0.000 C 
ATOM     32  C   UNL     1       1.550   1.951  19.364  0.00  0.00    +0.000 C 
ENDBRANCH  26  27
ENDBRANCH  25  26
ENDBRANCH  24  25
ENDBRANCH   3  24
TORSDOF 8
ENDMDL
MODEL 8
REMARK VINA RESULT:      -7.0      1.089      1.641
REMARK  Name = 
REMARK  10 active torsions:
REMARK  status: ('A' for Active; 'I' for Inactive)
REMARK    1  A    between atoms: C_1  and  C_2
REMARK    2  A    between atoms: C_6  and  N_7
REMARK    3  A    between atoms: C_8  and  S_9
REMARK    4  A    between atoms: N_10  and  C_11
REMARK    5  A    between atoms: N_10  and  C_20
REMARK    6  A    between atoms: C_11  and  C_12
REMARK    7  A    between atoms: C_12  and  C_13
REMARK    8  A    between atoms: C_13  and  N_14
REMARK    9  A    between atoms: C_20  and  C_21
REMARK   10  A    between atoms: C_20  and  C_22
REMARK                            x       y       z     vdW  Elec       q    Type
REMARK                         _______ _______ _______ _____ _____    ______ ____
ROOT
ATOM      1  N   UNL     1       4.954   4.638  18.748  0.00  0.00    +0.000 NA
ATOM      2  C   UNL     1       5.050   5.758  18.089  0.00  0.00    +0.000 C 
ATOM      3  N   UNL     1       6.279   6.363  17.903  0.00  0.00    +0.000 N 
ENDROOT
BRANCH   1   9
ATOM      4  C   UNL     1       1.346   2.875  21.705  0.00  0.00    +0.000 C 
ATOM      5  C   UNL     1       2.024   2.917  20.368  0.00  0.00    +0.000 A 
ATOM      6  C   UNL     1       1.478   2.279  19.254  0.00  0.00    +0.000 A 
ATOM      7  C   UNL     1       2.094   2.406  18.012  0.00  0.00    +0.000 A 
ATOM      8  C   UNL     1       3.229   3.214  17.874  0.00  0.00    +0.000 A 
ATOM      9  C   UNL     1       3.787   3.885  18.969  0.00  0.00    +0.000 A 
ATOM     10  C   UNL     1       3.204   3.667  20.221  0.00  0.00    +0.000 A 
ENDBRANCH   1   9
BRANCH   2  11
ATOM     11  S   UNL     1       3.714   6.617  17.322  0.00  0.00    +0.000 S 
ATOM     12  H   UNL     1       3.806   5.976  16.151  0.00  0.00    +0.000 HD
ENDBRANCH   2  11
BRANCH   3  13
ATOM     13  C   UNL     1       7.339   5.690  17.125  0.00  0.00    +0.000 C 
ATOM     14  C   UNL     1       8.026   4.639  17.998  0.00  0.00    +0.000 C 
BRANCH  13  15
ATOM     15  C   UNL     1       6.969   5.109  15.784  0.00  0.00    +0.000 A 
ATOM     16  C   UNL     1       6.040   4.173  15.368  0.00  0.00    +0.000 A 
ATOM     17  C   UNL     1       6.212   4.005  13.973  0.00  0.00    +0.000 A 
ATOM     18  C   UNL     1       5.603   3.224  12.974  0.00  0.00    +0.000 A 
ATOM     19  C   UNL     1       6.078   3.328  11.656  0.00  0.00    +0.000 A 
ATOM     20  C   UNL     1       7.134   4.186  11.336  0.00  0.00    +0.000 A 
ATOM     21  C   UNL     1       7.750   4.971  12.317  0.00  0.00    +0.000 A 
ATOM     22  C   UNL     1       7.255   4.851  13.617  0.00  0.00    +0.000 A 
ATOM     23  O   UNL     1       7.719   5.519  14.710  0.00  0.00    +0.000 OA
ENDBRANCH  13  15
ENDBRANCH   3  13
BRANCH   3  24
ATOM     24  C   UNL     1       6.596   7.714  18.390  0.00  0.00    +0.000 C 
BRANCH  24  25
ATOM     25  C   UNL     1       7.827   8.312  17.710  0.00  0.00    +0.000 C 
BRANCH  25  26
ATOM     26  C   UNL     1       8.750   9.042  18.699  0.00  0.00    +0.000 C 
BRANCH  26  27
ATOM     27  N   UNL     1       8.958  10.366  18.173  0.00  0.00    +0.000 NA
ATOM     28  C   UNL     1      10.304  10.894  18.019  0.00  0.00    +0.000 C 
ATOM     29  C   UNL     1      10.253  12.393  18.347  0.00  0.00    +0.000 C 
ATOM     30  O   UNL     1       9.324  13.077  17.489  0.00  0.00    +0.000 OA
ATOM     31  C   UNL     1       8.002  12.529  17.634  0.00  0.00    +0.000 C 
ATOM     32  C   UNL     1       7.966  11.017  17.337  0.00  0.00    +0.000 C 
ENDBRANCH  26  27
ENDBRANCH  25  26
ENDBRANCH  24  25
ENDBRANCH   3  24
TORSDOF 8
ENDMDL
MODEL 9
REMARK VINA RESULT:      -7.0      8.554     10.883
REMARK  Name = 
REMARK  10 active torsions:
REMARK  status: ('A' for Active; 'I' for Inactive)
REMARK    1  A    between atoms: C_1  and  C_2
REMARK    2  A    between atoms: C_6  and  N_7
REMARK    3  A    between atoms: C_8  and  S_9
REMARK    4  A    between atoms: N_10  and  C_11
REMARK    5  A    between atoms: N_10  and  C_20
REMARK    6  A    between atoms: C_11  and  C_12
REMARK    7  A    between atoms: C_12  and  C_13
REMARK    8  A    between atoms: C_13  and  N_14
REMARK    9  A    between atoms: C_20  and  C_21
REMARK   10  A    between atoms: C_20  and  C_22
REMARK                            x       y       z     vdW  Elec       q    Type
REMARK                         _______ _______ _______ _____ _____    ______ ____
ROOT
ATOM      1  N   UNL     1      -2.126  11.766  19.804  0.00  0.00    +0.000 NA
ATOM      2  C   UNL     1      -1.024  12.459  19.875  0.00  0.00    +0.000 C 
ATOM      3  N   UNL     1      -0.308  12.524  21.056  0.00  0.00    +0.000 N 
ENDROOT
BRANCH   1   9
ATOM      4  C   UNL     1      -2.887   9.939  15.226  0.00  0.00    +0.000 C 
ATOM      5  C   UNL     1      -3.352  10.767  16.387  0.00  0.00    +0.000 A 
ATOM      6  C   UNL     1      -4.638  11.307  16.429  0.00  0.00    +0.000 A 
ATOM      7  C   UNL     1      -5.060  12.002  17.559  0.00  0.00    +0.000 A 
ATOM      8  C   UNL     1      -4.213  12.115  18.668  0.00  0.00    +0.000 A 
ATOM      9  C   UNL     1      -2.925  11.565  18.664  0.00  0.00    +0.000 A 
ATOM     10  C   UNL     1      -2.492  10.951  17.484  0.00  0.00    +0.000 A 
ENDBRANCH   1   9
BRANCH   2  11
ATOM     11  S   UNL     1      -0.275  13.339  18.543  0.00  0.00    +0.000 S 
ATOM     12  H   UNL     1       0.827  12.581  18.494  0.00  0.00    +0.000 HD
ENDBRANCH   2  11
BRANCH   3  13
ATOM     13  C   UNL     1       0.292  11.308  21.640  0.00  0.00    +0.000 C 
ATOM     14  C   UNL     1      -0.707  10.649  22.591  0.00  0.00    +0.000 C 
BRANCH  13  15
ATOM     15  C   UNL     1       0.882  10.290  20.698  0.00  0.00    +0.000 A 
ATOM     16  C   UNL     1       1.201  10.301  19.353  0.00  0.00    +0.000 A 
ATOM     17  C   UNL     1       1.677   9.009  19.025  0.00  0.00    +0.000 A 
ATOM     18  C   UNL     1       2.151   8.379  17.859  0.00  0.00    +0.000 A 
ATOM     19  C   UNL     1       2.534   7.030  17.931  0.00  0.00    +0.000 A 
ATOM     20  C   UNL     1       2.447   6.320  19.132  0.00  0.00    +0.000 A 
ATOM     21  C   UNL     1       1.980   6.930  20.302  0.00  0.00    +0.000 A 
ATOM     22  C   UNL     1       1.612   8.273  20.201  0.00  0.00    +0.000 A 
ATOM     23  O   UNL     1       1.128   9.043  21.216  0.00  0.00    +0.000 OA
ENDBRANCH  13  15
ENDBRANCH   3  13
BRANCH   3  24
ATOM     24  C   UNL     1      -0.037  13.784  21.767  0.00  0.00    +0.000 C 
BRANCH  24  25
ATOM     25  C   UNL     1      -0.909  13.957  23.011  0.00  0.00    +0.000 C 
BRANCH  25  26
ATOM     26  C   UNL     1      -2.075  14.931  22.782  0.00  0.00    +0.000 C 
BRANCH  26  27
ATOM     27  N   UNL     1      -3.287  14.193  23.028  0.00  0.00    +0.000 NA
ATOM     28  C   UNL     1      -3.801  14.053  24.381  0.00  0.00    +0.000 C 
ATOM     29  C   UNL     1      -4.407  12.648  24.501  0.00  0.00    +0.000 C 
ATOM     30  O   UNL     1      -5.445  12.449  23.526  0.00  0.00    +0.000 OA
ATOM     31  C   UNL     1      -4.928  12.615  22.195  0.00  0.00    +0.000 C 
ATOM     32  C   UNL     1      -4.283  14.000  21.991  0.00  0.00    +0.000 C 
ENDBRANCH  26  27
ENDBRANCH  25  26
ENDBRANCH  24  25
ENDBRANCH   3  24
TORSDOF 8
ENDMDL
