MODEL 1
REMARK VINA RESULT:      -8.2      0.000      0.000
REMARK  Name = 
REMARK  2 active torsions:
REMARK  status: ('A' for Active; 'I' for Inactive)
REMARK    1  A    between atoms: C_1  and  N_2
REMARK    2  A    between atoms: C_4  and  C_5
REMARK                            x       y       z     vdW  Elec       q    Type
REMARK                         _______ _______ _______ _____ _____    ______ ____
ROOT
ATOM      1  C   UNL     1       2.488   4.454  21.421  0.00  0.00    +0.000 C 
ATOM      2  N   UNL     1       2.296   5.190  20.172  0.00  0.00    +0.000 NA
ATOM      3  C   UNL     1       3.441   4.957  19.263  0.00  0.00    +0.000 C 
ATOM      4  C   UNL     1       3.157   5.515  17.844  0.00  0.00    +0.000 C 
ATOM      5  C   UNL     1       2.529   6.888  17.893  0.00  0.00    +0.000 C 
ATOM      6  C   UNL     1       2.132   7.452  19.049  0.00  0.00    +0.000 C 
ATOM      7  C   UNL     1       1.715   8.872  19.086  0.00  0.00    +0.000 A 
ATOM      8  C   UNL     1       2.021   9.891  18.176  0.00  0.00    +0.000 A 
ATOM      9  C   UNL     1       1.595  11.207  18.404  0.00  0.00    +0.000 A 
ATOM     10  C   UNL     1       0.858  11.556  19.547  0.00  0.00    +0.000 A 
ATOM     11  C   UNL     1       0.563  10.528  20.445  0.00  0.00    +0.000 A 
ATOM     12  N   UNL     1      -0.114  10.512  21.647  0.00  0.00    +0.000 N 
ATOM     13  C   UNL     1      -0.137   9.234  22.166  0.00  0.00    +0.000 A 
ATOM     14  C   UNL     1       0.534   8.417  21.288  0.00  0.00    +0.000 A 
ATOM     15  C   UNL     1       0.976   9.227  20.219  0.00  0.00    +0.000 A 
ATOM     16  C   UNL     1       0.840   6.958  21.271  0.00  0.00    +0.000 C 
ATOM     17  C   UNL     1       2.119   6.662  20.394  0.00  0.00    +0.000 C 
ATOM     18  H   UNL     1      -0.529  11.324  22.080  0.00  0.00    +0.000 HD
ENDROOT
BRANCH   4  19
ATOM     19  C   UNL     1       4.412   5.554  16.976  0.00  0.00    +0.000 A 
ATOM     20  C   UNL     1       5.561   6.246  17.426  0.00  0.00    +0.000 A 
ATOM     21  C   UNL     1       6.761   6.202  16.706  0.00  0.00    +0.000 A 
ATOM     22  C   UNL     1       6.788   5.460  15.546  0.00  0.00    +0.000 A 
ATOM     23  C   UNL     1       5.677   4.796  15.088  0.00  0.00    +0.000 A 
ATOM     24  C   UNL     1       4.479   4.827  15.770  0.00  0.00    +0.000 A 
ATOM     25  O   UNL     1       5.919   4.110  13.938  0.00  0.00    +0.000 OA
ATOM     26  C   UNL     1       7.316   4.404  13.737  0.00  0.00    +0.000 C 
ATOM     27  O   UNL     1       7.871   5.274  14.744  0.00  0.00    +0.000 OA
ENDBRANCH   4  19
TORSDOF 1
ENDMDL
MODEL 2
REMARK VINA RESULT:      -7.9      3.904      7.600
REMARK  Name = 
REMARK  2 active torsions:
REMARK  status: ('A' for Active; 'I' for Inactive)
REMARK    1  A    between atoms: C_1  and  N_2
REMARK    2  A    between atoms: C_4  and  C_5
REMARK                            x       y       z     vdW  Elec       q    Type
REMARK                         _______ _______ _______ _____ _____    ______ ____
ROOT
ATOM      1  C   UNL     1       5.667   6.941  16.446  0.00  0.00    +0.000 C 
ATOM      2  N   UNL     1       4.255   6.842  16.811  0.00  0.00    +0.000 NA
ATOM      3  C   UNL     1       3.817   8.083  17.488  0.00  0.00    +0.000 C 
ATOM      4  C   UNL     1       2.276   8.115  17.666  0.00  0.00    +0.000 C 
ATOM      5  C   UNL     1       1.736   6.789  18.148  0.00  0.00    +0.000 C 
ATOM      6  C   UNL     1       2.512   5.693  18.242  0.00  0.00    +0.000 C 
ATOM      7  C   UNL     1       2.006   4.473  18.910  0.00  0.00    +0.000 A 
ATOM      8  C   UNL     1       0.958   4.357  19.832  0.00  0.00    +0.000 A 
ATOM      9  C   UNL     1       0.655   3.122  20.421  0.00  0.00    +0.000 A 
ATOM     10  C   UNL     1       1.388   1.962  20.122  0.00  0.00    +0.000 A 
ATOM     11  C   UNL     1       2.430   2.095  19.201  0.00  0.00    +0.000 A 
ATOM     12  N   UNL     1       3.341   1.191  18.695  0.00  0.00    +0.000 N 
ATOM     13  C   UNL     1       4.188   1.815  17.802  0.00  0.00    +0.000 A 
ATOM     14  C   UNL     1       3.819   3.137  17.734  0.00  0.00    +0.000 A 
ATOM     15  C   UNL     1       2.727   3.311  18.611  0.00  0.00    +0.000 A 
ATOM     16  C   UNL     1       4.323   4.307  16.959  0.00  0.00    +0.000 C 
ATOM     17  C   UNL     1       3.970   5.661  17.690  0.00  0.00    +0.000 C 
ATOM     18  H   UNL     1       3.378   0.214  18.947  0.00  0.00    +0.000 HD
ENDROOT
BRANCH   4  19
ATOM     19  C   UNL     1       1.825   9.228  18.609  0.00  0.00    +0.000 A 
ATOM     20  C   UNL     1       1.928  10.580  18.206  0.00  0.00    +0.000 A 
ATOM     21  C   UNL     1       1.418  11.613  19.002  0.00  0.00    +0.000 A 
ATOM     22  C   UNL     1       0.808  11.270  20.189  0.00  0.00    +0.000 A 
ATOM     23  C   UNL     1       0.714   9.962  20.600  0.00  0.00    +0.000 A 
ATOM     24  C   UNL     1       1.215   8.924  19.843  0.00  0.00    +0.000 A 
ATOM     25  O   UNL     1       0.062   9.837  21.788  0.00  0.00    +0.000 OA
ATOM     26  C   UNL     1      -0.260  11.215  22.065  0.00  0.00    +0.000 C 
ATOM     27  O   UNL     1       0.225  12.133  21.064  0.00  0.00    +0.000 OA
ENDBRANCH   4  19
TORSDOF 1
ENDMDL
MODEL 3
REMARK VINA RESULT:      -7.8      3.817      7.628
REMARK  Name = 
REMARK  2 active torsions:
REMARK  status: ('A' for Active; 'I' for Inactive)
REMARK    1  A    between atoms: C_1  and  N_2
REMARK    2  A    between atoms: C_4  and  C_5
REMARK                            x       y       z     vdW  Elec       q    Type
REMARK                         _______ _______ _______ _____ _____    ______ ____
ROOT
ATOM      1  C   UNL     1       5.611   7.149  16.573  0.00  0.00    +0.000 C 
ATOM      2  N   UNL     1       4.202   6.963  16.916  0.00  0.00    +0.000 NA
ATOM      3  C   UNL     1       3.695   8.148  17.643  0.00  0.00    +0.000 C 
ATOM      4  C   UNL     1       2.153   8.095  17.803  0.00  0.00    +0.000 C 
ATOM      5  C   UNL     1       1.676   6.724  18.217  0.00  0.00    +0.000 C 
ATOM      6  C   UNL     1       2.504   5.664  18.271  0.00  0.00    +0.000 C 
ATOM      7  C   UNL     1       2.054   4.391  18.875  0.00  0.00    +0.000 A 
ATOM      8  C   UNL     1       1.004   4.181  19.778  0.00  0.00    +0.000 A 
ATOM      9  C   UNL     1       0.757   2.906  20.307  0.00  0.00    +0.000 A 
ATOM     10  C   UNL     1       1.550   1.799  19.964  0.00  0.00    +0.000 A 
ATOM     11  C   UNL     1       2.594   2.026  19.063  0.00  0.00    +0.000 A 
ATOM     12  N   UNL     1       3.554   1.193  18.528  0.00  0.00    +0.000 N 
ATOM     13  C   UNL     1       4.378   1.899  17.675  0.00  0.00    +0.000 A 
ATOM     14  C   UNL     1       3.943   3.202  17.663  0.00  0.00    +0.000 A 
ATOM     15  C   UNL     1       2.835   3.281  18.534  0.00  0.00    +0.000 A 
ATOM     16  C   UNL     1       4.396   4.430  16.948  0.00  0.00    +0.000 C 
ATOM     17  C   UNL     1       3.968   5.730  17.736  0.00  0.00    +0.000 C 
ATOM     18  H   UNL     1       3.638   0.209  18.735  0.00  0.00    +0.000 HD
ENDROOT
BRANCH   4  19
ATOM     19  C   UNL     1       1.637   9.140  18.790  0.00  0.00    +0.000 A 
ATOM     20  C   UNL     1       1.266   8.751  20.099  0.00  0.00    +0.000 A 
ATOM     21  C   UNL     1       0.900   9.702  21.059  0.00  0.00    +0.000 A 
ATOM     22  C   UNL     1       0.917  11.029  20.690  0.00  0.00    +0.000 A 
ATOM     23  C   UNL     1       1.260  11.420  19.419  0.00  0.00    +0.000 A 
ATOM     24  C   UNL     1       1.616  10.507  18.449  0.00  0.00    +0.000 A 
ATOM     25  O   UNL     1       1.230  12.772  19.265  0.00  0.00    +0.000 OA
ATOM     26  C   UNL     1       0.848  13.186  20.592  0.00  0.00    +0.000 C 
ATOM     27  O   UNL     1       0.630  12.085  21.498  0.00  0.00    +0.000 OA
ENDBRANCH   4  19
TORSDOF 1
ENDMDL
MODEL 4
REMARK VINA RESULT:      -7.6      2.544      4.463
REMARK  Name = 
REMARK  2 active torsions:
REMARK  status: ('A' for Active; 'I' for Inactive)
REMARK    1  A    between atoms: C_1  and  N_2
REMARK    2  A    between atoms: C_4  and  C_5
REMARK                            x       y       z     vdW  Elec       q    Type
REMARK                         _______ _______ _______ _____ _____    ______ ____
ROOT
ATOM      1  C   UNL     1      -0.219   9.411  22.946  0.00  0.00    +0.000 C 
ATOM      2  N   UNL     1       0.068   9.635  21.530  0.00  0.00    +0.000 NA
ATOM      3  C   UNL     1       0.929   8.550  21.008  0.00  0.00    +0.000 C 
ATOM      4  C   UNL     1       1.048   8.618  19.463  0.00  0.00    +0.000 C 
ATOM      5  C   UNL     1       1.275  10.029  18.977  0.00  0.00    +0.000 C 
ATOM      6  C   UNL     1       1.210  11.090  19.803  0.00  0.00    +0.000 C 
ATOM      7  C   UNL     1       1.638  12.429  19.340  0.00  0.00    +0.000 A 
ATOM      8  C   UNL     1       2.485  12.748  18.270  0.00  0.00    +0.000 A 
ATOM      9  C   UNL     1       2.842  14.079  18.012  0.00  0.00    +0.000 A 
ATOM     10  C   UNL     1       2.377  15.136  18.811  0.00  0.00    +0.000 A 
ATOM     11  C   UNL     1       1.535  14.800  19.874  0.00  0.00    +0.000 A 
ATOM     12  N   UNL     1       0.918  15.561  20.845  0.00  0.00    +0.000 N 
ATOM     13  C   UNL     1       0.179  14.755  21.687  0.00  0.00    +0.000 A 
ATOM     14  C   UNL     1       0.324  13.459  21.253  0.00  0.00    +0.000 A 
ATOM     15  C   UNL     1       1.175  13.488  20.127  0.00  0.00    +0.000 A 
ATOM     16  C   UNL     1      -0.219  12.151  21.722  0.00  0.00    +0.000 C 
ATOM     17  C   UNL     1       0.719  10.961  21.278  0.00  0.00    +0.000 C 
ATOM     18  H   UNL     1       1.000  16.564  20.923  0.00  0.00    +0.000 HD
ENDROOT
BRANCH   4  19
ATOM     19  C   UNL     1       2.150   7.706  18.927  0.00  0.00    +0.000 A 
ATOM     20  C   UNL     1       2.903   8.098  17.796  0.00  0.00    +0.000 A 
ATOM     21  C   UNL     1       3.993   7.339  17.353  0.00  0.00    +0.000 A 
ATOM     22  C   UNL     1       4.310   6.198  18.057  0.00  0.00    +0.000 A 
ATOM     23  C   UNL     1       3.578   5.796  19.148  0.00  0.00    +0.000 A 
ATOM     24  C   UNL     1       2.495   6.518  19.602  0.00  0.00    +0.000 A 
ATOM     25  O   UNL     1       4.066   4.656  19.709  0.00  0.00    +0.000 OA
ATOM     26  C   UNL     1       5.200   4.400  18.857  0.00  0.00    +0.000 C 
ATOM     27  O   UNL     1       5.352   5.364  17.795  0.00  0.00    +0.000 OA
ENDBRANCH   4  19
TORSDOF 1
ENDMDL
MODEL 5
REMARK VINA RESULT:      -7.4      2.309      4.270
REMARK  Name = 
REMARK  2 active torsions:
REMARK  status: ('A' for Active; 'I' for Inactive)
REMARK    1  A    between atoms: C_1  and  N_2
REMARK    2  A    between atoms: C_4  and  C_5
REMARK                            x       y       z     vdW  Elec       q    Type
REMARK                         _______ _______ _______ _____ _____    ______ ____
ROOT
ATOM      1  C   UNL     1      -0.331   9.437  22.889  0.00  0.00    +0.000 C 
ATOM      2  N   UNL     1       0.017   9.617  21.481  0.00  0.00    +0.000 NA
ATOM      3  C   UNL     1       0.930   8.538  21.041  0.00  0.00    +0.000 C 
ATOM      4  C   UNL     1       1.121   8.554  19.501  0.00  0.00    +0.000 C 
ATOM      5  C   UNL     1       1.335   9.953  18.975  0.00  0.00    +0.000 C 
ATOM      6  C   UNL     1       1.204  11.040  19.758  0.00  0.00    +0.000 C 
ATOM      7  C   UNL     1       1.620  12.373  19.266  0.00  0.00    +0.000 A 
ATOM      8  C   UNL     1       2.509  12.677  18.226  0.00  0.00    +0.000 A 
ATOM      9  C   UNL     1       2.844  14.007  17.936  0.00  0.00    +0.000 A 
ATOM     10  C   UNL     1       2.315  15.079  18.674  0.00  0.00    +0.000 A 
ATOM     11  C   UNL     1       1.432  14.758  19.707  0.00  0.00    +0.000 A 
ATOM     12  N   UNL     1       0.750  15.536  20.619  0.00  0.00    +0.000 N 
ATOM     13  C   UNL     1      -0.008  14.741  21.455  0.00  0.00    +0.000 A 
ATOM     14  C   UNL     1       0.190  13.435  21.076  0.00  0.00    +0.000 A 
ATOM     15  C   UNL     1       1.093  13.446  19.991  0.00  0.00    +0.000 A 
ATOM     16  C   UNL     1      -0.342  12.131  21.567  0.00  0.00    +0.000 C 
ATOM     17  C   UNL     1       0.646  10.951  21.212  0.00  0.00    +0.000 C 
ATOM     18  H   UNL     1       0.802  16.543  20.664  0.00  0.00    +0.000 HD
ENDROOT
BRANCH   4  19
ATOM     19  C   UNL     1       2.270   7.654  19.052  0.00  0.00    +0.000 A 
ATOM     20  C   UNL     1       2.572   6.479  19.779  0.00  0.00    +0.000 A 
ATOM     21  C   UNL     1       3.542   5.577  19.326  0.00  0.00    +0.000 A 
ATOM     22  C   UNL     1       4.191   5.869  18.146  0.00  0.00    +0.000 A 
ATOM     23  C   UNL     1       3.920   7.014  17.438  0.00  0.00    +0.000 A 
ATOM     24  C   UNL     1       2.976   7.925  17.863  0.00  0.00    +0.000 A 
ATOM     25  O   UNL     1       4.655   7.105  16.296  0.00  0.00    +0.000 OA
ATOM     26  C   UNL     1       5.404   5.875  16.359  0.00  0.00    +0.000 C 
ATOM     27  O   UNL     1       5.129   5.093  17.540  0.00  0.00    +0.000 OA
ENDBRANCH   4  19
TORSDOF 1
ENDMDL
MODEL 6
REMARK VINA RESULT:      -7.4      5.108      7.827
REMARK  Name = 
REMARK  2 active torsions:
REMARK  status: ('A' for Active; 'I' for Inactive)
REMARK    1  A    between atoms: C_1  and  N_2
REMARK    2  A    between atoms: C_4  and  C_5
REMARK                            x       y       z     vdW  Elec       q    Type
REMARK                         _______ _______ _______ _____ _____    ______ ____
ROOT
ATOM      1  C   UNL     1      -4.676  11.412  16.750  0.00  0.00    +0.000 C 
ATOM      2  N   UNL     1      -3.737  11.875  17.771  0.00  0.00    +0.000 NA
ATOM      3  C   UNL     1      -2.548  10.994  17.805  0.00  0.00    +0.000 C 
ATOM      4  C   UNL     1      -1.427  11.594  18.694  0.00  0.00    +0.000 C 
ATOM      5  C   UNL     1      -1.969  12.140  19.993  0.00  0.00    +0.000 C 
ATOM      6  C   UNL     1      -3.290  12.224  20.237  0.00  0.00    +0.000 C 
ATOM      7  C   UNL     1      -3.782  12.568  21.590  0.00  0.00    +0.000 A 
ATOM      8  C   UNL     1      -3.109  12.456  22.814  0.00  0.00    +0.000 A 
ATOM      9  C   UNL     1      -3.755  12.766  24.018  0.00  0.00    +0.000 A 
ATOM     10  C   UNL     1      -5.094  13.190  24.049  0.00  0.00    +0.000 A 
ATOM     11  C   UNL     1      -5.750  13.295  22.821  0.00  0.00    +0.000 A 
ATOM     12  N   UNL     1      -7.037  13.661  22.486  0.00  0.00    +0.000 N 
ATOM     13  C   UNL     1      -7.210  13.604  21.118  0.00  0.00    +0.000 A 
ATOM     14  C   UNL     1      -6.019  13.195  20.566  0.00  0.00    +0.000 A 
ATOM     15  C   UNL     1      -5.112  12.997  21.629  0.00  0.00    +0.000 A 
ATOM     16  C   UNL     1      -5.564  12.955  19.166  0.00  0.00    +0.000 C 
ATOM     17  C   UNL     1      -4.356  11.939  19.134  0.00  0.00    +0.000 C 
ATOM     18  H   UNL     1      -7.748  13.929  23.151  0.00  0.00    +0.000 HD
ENDROOT
BRANCH   4  19
ATOM     19  C   UNL     1      -0.317  10.585  18.983  0.00  0.00    +0.000 A 
ATOM     20  C   UNL     1      -0.194  10.022  20.275  0.00  0.00    +0.000 A 
ATOM     21  C   UNL     1       0.739   9.012  20.538  0.00  0.00    +0.000 A 
ATOM     22  C   UNL     1       1.532   8.581  19.496  0.00  0.00    +0.000 A 
ATOM     23  C   UNL     1       1.435   9.130  18.241  0.00  0.00    +0.000 A 
ATOM     24  C   UNL     1       0.532  10.132  17.953  0.00  0.00    +0.000 A 
ATOM     25  O   UNL     1       2.292   8.554  17.355  0.00  0.00    +0.000 OA
ATOM     26  C   UNL     1       2.924   7.567  18.194  0.00  0.00    +0.000 C 
ATOM     27  O   UNL     1       2.460   7.589  19.559  0.00  0.00    +0.000 OA
ENDBRANCH   4  19
TORSDOF 1
ENDMDL
MODEL 7
REMARK VINA RESULT:      -7.4      9.280     11.395
REMARK  Name = 
REMARK  2 active torsions:
REMARK  status: ('A' for Active; 'I' for Inactive)
REMARK    1  A    between atoms: C_1  and  N_2
REMARK    2  A    between atoms: C_4  and  C_5
REMARK                            x       y       z     vdW  Elec       q    Type
REMARK                         _______ _______ _______ _____ _____    ______ ____
ROOT
ATOM      1  C   UNL     1       9.382   9.893  19.239  0.00  0.00    +0.000 C 
ATOM      2  N   UNL     1       9.720  11.059  20.053  0.00  0.00    +0.000 NA
ATOM      3  C   UNL     1       8.792  11.163  21.202  0.00  0.00    +0.000 C 
ATOM      4  C   UNL     1       9.270  12.235  22.218  0.00  0.00    +0.000 C 
ATOM      5  C   UNL     1       9.727  13.499  21.530  0.00  0.00    +0.000 C 
ATOM      6  C   UNL     1       9.844  13.583  20.192  0.00  0.00    +0.000 C 
ATOM      7  C   UNL     1      10.094  14.889  19.542  0.00  0.00    +0.000 A 
ATOM      8  C   UNL     1       9.852  16.173  20.050  0.00  0.00    +0.000 A 
ATOM      9  C   UNL     1      10.087  17.310  19.264  0.00  0.00    +0.000 A 
ATOM     10  C   UNL     1      10.560  17.211  17.946  0.00  0.00    +0.000 A 
ATOM     11  C   UNL     1      10.794  15.924  17.455  0.00  0.00    +0.000 A 
ATOM     12  N   UNL     1      11.238  15.464  16.232  0.00  0.00    +0.000 N 
ATOM     13  C   UNL     1      11.302  14.086  16.234  0.00  0.00    +0.000 A 
ATOM     14  C   UNL     1      10.894  13.653  17.473  0.00  0.00    +0.000 A 
ATOM     15  C   UNL     1      10.571  14.800  18.230  0.00  0.00    +0.000 A 
ATOM     16  C   UNL     1      10.753  12.306  18.096  0.00  0.00    +0.000 C 
ATOM     17  C   UNL     1       9.695  12.335  19.268  0.00  0.00    +0.000 C 
ATOM     18  H   UNL     1      11.478  16.057  15.451  0.00  0.00    +0.000 HD
ENDROOT
BRANCH   4  19
ATOM     19  C   UNL     1       8.197  12.570  23.251  0.00  0.00    +0.000 A 
ATOM     20  C   UNL     1       7.493  13.795  23.167  0.00  0.00    +0.000 A 
ATOM     21  C   UNL     1       6.428  14.078  24.030  0.00  0.00    +0.000 A 
ATOM     22  C   UNL     1       6.084  13.124  24.962  0.00  0.00    +0.000 A 
ATOM     23  C   UNL     1       6.768  11.937  25.066  0.00  0.00    +0.000 A 
ATOM     24  C   UNL     1       7.827  11.633  24.237  0.00  0.00    +0.000 A 
ATOM     25  O   UNL     1       6.260  11.129  26.036  0.00  0.00    +0.000 OA
ATOM     26  C   UNL     1       5.166  11.936  26.515  0.00  0.00    +0.000 C 
ATOM     27  O   UNL     1       5.058  13.212  25.851  0.00  0.00    +0.000 OA
ENDBRANCH   4  19
TORSDOF 1
ENDMDL
MODEL 8
REMARK VINA RESULT:      -7.4      3.503      7.304
REMARK  Name = 
REMARK  2 active torsions:
REMARK  status: ('A' for Active; 'I' for Inactive)
REMARK    1  A    between atoms: C_1  and  N_2
REMARK    2  A    between atoms: C_4  and  C_5
REMARK                            x       y       z     vdW  Elec       q    Type
REMARK                         _______ _______ _______ _____ _____    ______ ____
ROOT
ATOM      1  C   UNL     1       1.115   3.285  20.850  0.00  0.00    +0.000 C 
ATOM      2  N   UNL     1       1.916   4.477  20.577  0.00  0.00    +0.000 NA
ATOM      3  C   UNL     1       1.093   5.694  20.754  0.00  0.00    +0.000 C 
ATOM      4  C   UNL     1       1.966   6.976  20.717  0.00  0.00    +0.000 C 
ATOM      5  C   UNL     1       2.980   6.935  19.599  0.00  0.00    +0.000 C 
ATOM      6  C   UNL     1       3.178   5.833  18.853  0.00  0.00    +0.000 C 
ATOM      7  C   UNL     1       4.026   5.890  17.641  0.00  0.00    +0.000 A 
ATOM      8  C   UNL     1       4.379   7.012  16.880  0.00  0.00    +0.000 A 
ATOM      9  C   UNL     1       5.141   6.875  15.712  0.00  0.00    +0.000 A 
ATOM     10  C   UNL     1       5.571   5.618  15.255  0.00  0.00    +0.000 A 
ATOM     11  C   UNL     1       5.209   4.510  16.024  0.00  0.00    +0.000 A 
ATOM     12  N   UNL     1       5.442   3.159  15.872  0.00  0.00    +0.000 N 
ATOM     13  C   UNL     1       4.867   2.454  16.909  0.00  0.00    +0.000 A 
ATOM     14  C   UNL     1       4.255   3.363  17.739  0.00  0.00    +0.000 A 
ATOM     15  C   UNL     1       4.463   4.643  17.182  0.00  0.00    +0.000 A 
ATOM     16  C   UNL     1       3.486   3.238  19.011  0.00  0.00    +0.000 C 
ATOM     17  C   UNL     1       2.512   4.466  19.202  0.00  0.00    +0.000 C 
ATOM     18  H   UNL     1       5.960   2.751  15.108  0.00  0.00    +0.000 HD
ENDROOT
BRANCH   4  19
ATOM     19  C   UNL     1       1.125   8.245  20.603  0.00  0.00    +0.000 A 
ATOM     20  C   UNL     1       0.300   8.646  21.681  0.00  0.00    +0.000 A 
ATOM     21  C   UNL     1      -0.392   9.863  21.649  0.00  0.00    +0.000 A 
ATOM     22  C   UNL     1      -0.241  10.660  20.535  0.00  0.00    +0.000 A 
ATOM     23  C   UNL     1       0.544  10.277  19.475  0.00  0.00    +0.000 A 
ATOM     24  C   UNL     1       1.231   9.081  19.473  0.00  0.00    +0.000 A 
ATOM     25  O   UNL     1       0.573  11.212  18.486  0.00  0.00    +0.000 OA
ATOM     26  C   UNL     1      -0.268  12.234  19.057  0.00  0.00    +0.000 C 
ATOM     27  O   UNL     1      -0.803  11.884  20.350  0.00  0.00    +0.000 OA
ENDBRANCH   4  19
TORSDOF 1
ENDMDL
MODEL 9
REMARK VINA RESULT:      -7.3      5.578      8.076
REMARK  Name = 
REMARK  2 active torsions:
REMARK  status: ('A' for Active; 'I' for Inactive)
REMARK    1  A    between atoms: C_1  and  N_2
REMARK    2  A    between atoms: C_4  and  C_5
REMARK                            x       y       z     vdW  Elec       q    Type
REMARK                         _______ _______ _______ _____ _____    ______ ____
ROOT
ATOM      1  C   UNL     1      -4.024  10.682  15.340  0.00  0.00    +0.000 C 
ATOM      2  N   UNL     1      -3.411  11.324  16.502  0.00  0.00    +0.000 NA
ATOM      3  C   UNL     1      -2.261  10.522  16.978  0.00  0.00    +0.000 C 
ATOM      4  C   UNL     1      -1.440  11.292  18.045  0.00  0.00    +0.000 C 
ATOM      5  C   UNL     1      -2.330  11.969  19.061  0.00  0.00    +0.000 C 
ATOM      6  C   UNL     1      -3.668  12.010  18.924  0.00  0.00    +0.000 C 
ATOM      7  C   UNL     1      -4.520  12.496  20.033  0.00  0.00    +0.000 A 
ATOM      8  C   UNL     1      -4.209  12.579  21.396  0.00  0.00    +0.000 A 
ATOM      9  C   UNL     1      -5.167  13.004  22.326  0.00  0.00    +0.000 A 
ATOM     10  C   UNL     1      -6.471  13.353  21.934  0.00  0.00    +0.000 A 
ATOM     11  C   UNL     1      -6.765  13.264  20.572  0.00  0.00    +0.000 A 
ATOM     12  N   UNL     1      -7.916  13.510  19.854  0.00  0.00    +0.000 N 
ATOM     13  C   UNL     1      -7.704  13.269  18.512  0.00  0.00    +0.000 A 
ATOM     14  C   UNL     1      -6.400  12.861  18.365  0.00  0.00    +0.000 A 
ATOM     15  C   UNL     1      -5.818  12.852  19.650  0.00  0.00    +0.000 A 
ATOM     16  C   UNL     1      -5.572  12.470  17.188  0.00  0.00    +0.000 C 
ATOM     17  C   UNL     1      -4.383  11.527  17.625  0.00  0.00    +0.000 C 
ATOM     18  H   UNL     1      -8.787  13.821  20.258  0.00  0.00    +0.000 HD
ENDROOT
BRANCH   4  19
ATOM     19  C   UNL     1      -0.434  10.393  18.761  0.00  0.00    +0.000 A 
ATOM     20  C   UNL     1      -0.546  10.179  20.155  0.00  0.00    +0.000 A 
ATOM     21  C   UNL     1       0.290   9.271  20.816  0.00  0.00    +0.000 A 
ATOM     22  C   UNL     1       1.223   8.590  20.064  0.00  0.00    +0.000 A 
ATOM     23  C   UNL     1       1.353   8.800  18.713  0.00  0.00    +0.000 A 
ATOM     24  C   UNL     1       0.551   9.693  18.036  0.00  0.00    +0.000 A 
ATOM     25  O   UNL     1       2.318   8.018  18.157  0.00  0.00    +0.000 OA
ATOM     26  C   UNL     1       2.765   7.279  19.311  0.00  0.00    +0.000 C 
ATOM     27  O   UNL     1       2.087   7.648  20.530  0.00  0.00    +0.000 OA
ENDBRANCH   4  19
TORSDOF 1
ENDMDL
