MODEL 1
REMARK VINA RESULT:      -7.4      0.000      0.000
REMARK  Name = 
REMARK  10 active torsions:
REMARK  status: ('A' for Active; 'I' for Inactive)
REMARK    1  A    between atoms: C_1  and  C_2
REMARK    2  A    between atoms: C_2  and  C_3
REMARK    3  A    between atoms: C_6  and  N_7
REMARK    4  A    between atoms: N_7  and  C_8
REMARK    5  A    between atoms: C_8  and  P_9
REMARK    6  A    between atoms: C_8  and  P_13
REMARK    7  A    between atoms: P_9  and  O_11
REMARK    8  A    between atoms: P_9  and  O_12
REMARK    9  A    between atoms: P_13  and  O_15
REMARK   10  A    between atoms: P_13  and  O_16
REMARK                            x       y       z     vdW  Elec       q    Type
REMARK                         _______ _______ _______ _____ _____    ______ ____
ROOT
ATOM      1  C   UNL     1       5.949   4.786  16.954  0.00  0.00    +0.000 C 
ENDROOT
BRANCH   1   2
ATOM      2  N   UNL     1       4.711   5.630  16.990  0.00  0.00    +0.000 N 
ATOM      3  H   UNL     1       4.976   6.608  17.127  0.00  0.00    +0.000 HD
BRANCH   2   7
ATOM      4  C   UNL     1       1.631   4.088  19.430  0.00  0.00    +0.000 A 
ATOM      5  C   UNL     1       1.992   3.456  18.240  0.00  0.00    +0.000 A 
ATOM      6  C   UNL     1       2.970   4.025  17.412  0.00  0.00    +0.000 A 
ATOM      7  C   UNL     1       3.582   5.249  17.715  0.00  0.00    +0.000 A 
ATOM      8  C   UNL     1       3.135   5.918  18.860  0.00  0.00    +0.000 A 
ATOM      9  C   UNL     1       2.173   5.339  19.717  0.00  0.00    +0.000 A 
BRANCH   4  11
ATOM     10  C   UNL     1       1.607   2.748  21.540  0.00  0.00    +0.000 C 
ATOM     11  C   UNL     1       0.756   3.369  20.435  0.00  0.00    +0.000 C 
ENDBRANCH   4  11
ENDBRANCH   2   7
ENDBRANCH   1   2
BRANCH   1  12
ATOM     12  P   UNL     1       6.815   5.115  15.376  0.00  0.00    +0.000 P 
ATOM     13  O   UNL     1       5.576   5.817  14.810  0.00  0.00    +0.000 OA
BRANCH  12  14
ATOM     14  O   UNL     1       7.743   6.289  16.058  0.00  0.00    +0.000 OA
ATOM     15  H   UNL     1       8.167   5.979  16.883  0.00  0.00    +0.000 HD
ENDBRANCH  12  14
BRANCH  12  16
ATOM     16  O   UNL     1       7.635   5.427  13.884  0.00  0.00    +0.000 OA
ATOM     17  H   UNL     1       8.526   5.723  14.163  0.00  0.00    +0.000 HD
ENDBRANCH  12  16
ENDBRANCH   1  12
BRANCH   1  18
ATOM     18  P   UNL     1       7.070   5.150  18.354  0.00  0.00    +0.000 P 
ATOM     19  O   UNL     1       6.232   4.279  19.306  0.00  0.00    +0.000 OA
BRANCH  18  20
ATOM     20  O   UNL     1       8.212   4.100  17.809  0.00  0.00    +0.000 OA
ATOM     21  H   UNL     1       9.008   4.113  18.369  0.00  0.00    +0.000 HD
ENDBRANCH  18  20
BRANCH  18  22
ATOM     22  O   UNL     1       8.129   5.495  19.678  0.00  0.00    +0.000 OA
ATOM     23  H   UNL     1       8.529   6.365  19.476  0.00  0.00    +0.000 HD
ENDBRANCH  18  22
ENDBRANCH   1  18
TORSDOF 9
ENDMDL
MODEL 2
REMARK VINA RESULT:      -7.0      0.963      3.083
REMARK  Name = 
REMARK  10 active torsions:
REMARK  status: ('A' for Active; 'I' for Inactive)
REMARK    1  A    between atoms: C_1  and  C_2
REMARK    2  A    between atoms: C_2  and  C_3
REMARK    3  A    between atoms: C_6  and  N_7
REMARK    4  A    between atoms: N_7  and  C_8
REMARK    5  A    between atoms: C_8  and  P_9
REMARK    6  A    between atoms: C_8  and  P_13
REMARK    7  A    between atoms: P_9  and  O_11
REMARK    8  A    between atoms: P_9  and  O_12
REMARK    9  A    between atoms: P_13  and  O_15
REMARK   10  A    between atoms: P_13  and  O_16
REMARK                            x       y       z     vdW  Elec       q    Type
REMARK                         _______ _______ _______ _____ _____    ______ ____
ROOT
ATOM      1  C   UNL     1       5.999   4.977  16.998  0.00  0.00    +0.000 C 
ENDROOT
BRANCH   1   2
ATOM      2  N   UNL     1       5.378   3.618  17.117  0.00  0.00    +0.000 N 
ATOM      3  H   UNL     1       5.545   3.096  16.254  0.00  0.00    +0.000 HD
BRANCH   2   7
ATOM      4  C   UNL     1       1.749   3.099  19.212  0.00  0.00    +0.000 A 
ATOM      5  C   UNL     1       2.614   2.026  18.993  0.00  0.00    +0.000 A 
ATOM      6  C   UNL     1       3.780   2.209  18.234  0.00  0.00    +0.000 A 
ATOM      7  C   UNL     1       4.097   3.439  17.640  0.00  0.00    +0.000 A 
ATOM      8  C   UNL     1       3.168   4.474  17.785  0.00  0.00    +0.000 A 
ATOM      9  C   UNL     1       2.006   4.310  18.574  0.00  0.00    +0.000 A 
BRANCH   4  11
ATOM     10  C   UNL     1       1.177   2.758  21.621  0.00  0.00    +0.000 C 
ATOM     11  C   UNL     1       0.622   2.971  20.215  0.00  0.00    +0.000 C 
ENDBRANCH   4  11
ENDBRANCH   2   7
ENDBRANCH   1   2
BRANCH   1  12
ATOM     12  P   UNL     1       7.193   5.177  18.369  0.00  0.00    +0.000 P 
ATOM     13  O   UNL     1       6.265   4.419  19.325  0.00  0.00    +0.000 OA
BRANCH  12  14
ATOM     14  O   UNL     1       8.213   4.058  17.728  0.00  0.00    +0.000 OA
ATOM     15  H   UNL     1       8.211   3.230  18.249  0.00  0.00    +0.000 HD
ENDBRANCH  12  14
BRANCH  12  16
ATOM     16  O   UNL     1       8.323   5.367  19.666  0.00  0.00    +0.000 OA
ATOM     17  H   UNL     1       8.966   4.641  19.525  0.00  0.00    +0.000 HD
ENDBRANCH  12  16
ENDBRANCH   1  12
BRANCH   1  18
ATOM     18  P   UNL     1       6.861   5.200  15.399  0.00  0.00    +0.000 P 
ATOM     19  O   UNL     1       5.675   5.992  14.822  0.00  0.00    +0.000 OA
BRANCH  18  20
ATOM     20  O   UNL     1       7.831   6.383  16.003  0.00  0.00    +0.000 OA
ATOM     21  H   UNL     1       8.672   6.442  15.516  0.00  0.00    +0.000 HD
ENDBRANCH  18  20
BRANCH  18  22
ATOM     22  O   UNL     1       7.676   5.411  13.887  0.00  0.00    +0.000 OA
ATOM     23  H   UNL     1       8.042   6.318  13.910  0.00  0.00    +0.000 HD
ENDBRANCH  18  22
ENDBRANCH   1  18
TORSDOF 9
ENDMDL
MODEL 3
REMARK VINA RESULT:      -7.0      0.670      1.121
REMARK  Name = 
REMARK  10 active torsions:
REMARK  status: ('A' for Active; 'I' for Inactive)
REMARK    1  A    between atoms: C_1  and  C_2
REMARK    2  A    between atoms: C_2  and  C_3
REMARK    3  A    between atoms: C_6  and  N_7
REMARK    4  A    between atoms: N_7  and  C_8
REMARK    5  A    between atoms: C_8  and  P_9
REMARK    6  A    between atoms: C_8  and  P_13
REMARK    7  A    between atoms: P_9  and  O_11
REMARK    8  A    between atoms: P_9  and  O_12
REMARK    9  A    between atoms: P_13  and  O_15
REMARK   10  A    between atoms: P_13  and  O_16
REMARK                            x       y       z     vdW  Elec       q    Type
REMARK                         _______ _______ _______ _____ _____    ______ ____
ROOT
ATOM      1  C   UNL     1       5.937   4.923  17.117  0.00  0.00    +0.000 C 
ENDROOT
BRANCH   1   2
ATOM      2  N   UNL     1       4.658   5.703  17.138  0.00  0.00    +0.000 N 
ATOM      3  H   UNL     1       4.872   6.695  17.255  0.00  0.00    +0.000 HD
BRANCH   2   7
ATOM      4  C   UNL     1       1.631   3.986  19.528  0.00  0.00    +0.000 A 
ATOM      5  C   UNL     1       1.892   3.509  18.243  0.00  0.00    +0.000 A 
ATOM      6  C   UNL     1       2.854   4.140  17.442  0.00  0.00    +0.000 A 
ATOM      7  C   UNL     1       3.550   5.279  17.872  0.00  0.00    +0.000 A 
ATOM      8  C   UNL     1       3.203   5.803  19.122  0.00  0.00    +0.000 A 
ATOM      9  C   UNL     1       2.257   5.157  19.950  0.00  0.00    +0.000 A 
BRANCH   4  11
ATOM     10  C   UNL     1       1.598   2.692  21.667  0.00  0.00    +0.000 C 
ATOM     11  C   UNL     1       0.772   3.177  20.478  0.00  0.00    +0.000 C 
ENDBRANCH   4  11
ENDBRANCH   2   7
ENDBRANCH   1   2
BRANCH   1  12
ATOM     12  P   UNL     1       6.661   5.062  15.443  0.00  0.00    +0.000 P 
ATOM     13  O   UNL     1       5.953   3.776  15.000  0.00  0.00    +0.000 OA
BRANCH  12  14
ATOM     14  O   UNL     1       5.659   6.303  15.045  0.00  0.00    +0.000 OA
ATOM     15  H   UNL     1       5.461   6.313  14.086  0.00  0.00    +0.000 HD
ENDBRANCH  12  14
BRANCH  12  16
ATOM     16  O   UNL     1       7.345   5.193  13.859  0.00  0.00    +0.000 OA
ATOM     17  H   UNL     1       6.784   5.864  13.416  0.00  0.00    +0.000 HD
ENDBRANCH  12  16
ENDBRANCH   1  12
BRANCH   1  18
ATOM     18  P   UNL     1       7.137   5.539  18.354  0.00  0.00    +0.000 P 
ATOM     19  O   UNL     1       8.058   4.327  18.125  0.00  0.00    +0.000 OA
BRANCH  18  20
ATOM     20  O   UNL     1       7.745   6.659  17.315  0.00  0.00    +0.000 OA
ATOM     21  H   UNL     1       8.705   6.776  17.433  0.00  0.00    +0.000 HD
ENDBRANCH  18  20
BRANCH  18  22
ATOM     22  O   UNL     1       8.272   6.120  19.523  0.00  0.00    +0.000 OA
ATOM     23  H   UNL     1       8.332   5.419  20.203  0.00  0.00    +0.000 HD
ENDBRANCH  18  22
ENDBRANCH   1  18
TORSDOF 9
ENDMDL
MODEL 4
REMARK VINA RESULT:      -6.8      1.168      3.092
REMARK  Name = 
REMARK  10 active torsions:
REMARK  status: ('A' for Active; 'I' for Inactive)
REMARK    1  A    between atoms: C_1  and  C_2
REMARK    2  A    between atoms: C_2  and  C_3
REMARK    3  A    between atoms: C_6  and  N_7
REMARK    4  A    between atoms: N_7  and  C_8
REMARK    5  A    between atoms: C_8  and  P_9
REMARK    6  A    between atoms: C_8  and  P_13
REMARK    7  A    between atoms: P_9  and  O_11
REMARK    8  A    between atoms: P_9  and  O_12
REMARK    9  A    between atoms: P_13  and  O_15
REMARK   10  A    between atoms: P_13  and  O_16
REMARK                            x       y       z     vdW  Elec       q    Type
REMARK                         _______ _______ _______ _____ _____    ______ ____
ROOT
ATOM      1  C   UNL     1       5.941   4.862  16.712  0.00  0.00    +0.000 C 
ENDROOT
BRANCH   1   2
ATOM      2  N   UNL     1       5.280   3.521  16.823  0.00  0.00    +0.000 N 
ATOM      3  H   UNL     1       5.378   3.024  15.935  0.00  0.00    +0.000 HD
BRANCH   2   7
ATOM      4  C   UNL     1       1.763   3.061  19.112  0.00  0.00    +0.000 A 
ATOM      5  C   UNL     1       2.585   1.971  18.828  0.00  0.00    +0.000 A 
ATOM      6  C   UNL     1       3.711   2.136  18.008  0.00  0.00    +0.000 A 
ATOM      7  C   UNL     1       4.026   3.366  17.415  0.00  0.00    +0.000 A 
ATOM      8  C   UNL     1       3.134   4.423  17.628  0.00  0.00    +0.000 A 
ATOM      9  C   UNL     1       2.015   4.275  18.478  0.00  0.00    +0.000 A 
BRANCH   4  11
ATOM     10  C   UNL     1       1.320   2.788  21.557  0.00  0.00    +0.000 C 
ATOM     11  C   UNL     1       0.690   2.946  20.175  0.00  0.00    +0.000 C 
ENDBRANCH   4  11
ENDBRANCH   2   7
ENDBRANCH   1   2
BRANCH   1  12
ATOM     12  P   UNL     1       7.144   5.018  18.081  0.00  0.00    +0.000 P 
ATOM     13  O   UNL     1       8.176   4.191  17.305  0.00  0.00    +0.000 OA
BRANCH  12  14
ATOM     14  O   UNL     1       7.445   6.593  17.721  0.00  0.00    +0.000 OA
ATOM     15  H   UNL     1       6.735   6.978  17.169  0.00  0.00    +0.000 HD
ENDBRANCH  12  14
BRANCH  12  16
ATOM     16  O   UNL     1       8.282   5.165  19.376  0.00  0.00    +0.000 OA
ATOM     17  H   UNL     1       8.615   6.083  19.293  0.00  0.00    +0.000 HD
ENDBRANCH  12  16
ENDBRANCH   1  12
BRANCH   1  18
ATOM     18  P   UNL     1       6.806   5.071  15.112  0.00  0.00    +0.000 P 
ATOM     19  O   UNL     1       6.170   3.786  14.553  0.00  0.00    +0.000 OA
BRANCH  18  20
ATOM     20  O   UNL     1       5.762   6.241  14.616  0.00  0.00    +0.000 OA
ATOM     21  H   UNL     1       5.152   5.912  13.932  0.00  0.00    +0.000 HD
ENDBRANCH  18  20
BRANCH  18  22
ATOM     22  O   UNL     1       7.623   5.268  13.601  0.00  0.00    +0.000 OA
ATOM     23  H   UNL     1       7.311   6.123  13.242  0.00  0.00    +0.000 HD
ENDBRANCH  18  22
ENDBRANCH   1  18
TORSDOF 9
ENDMDL
MODEL 5
REMARK VINA RESULT:      -6.7      0.967      1.709
REMARK  Name = 
REMARK  10 active torsions:
REMARK  status: ('A' for Active; 'I' for Inactive)
REMARK    1  A    between atoms: C_1  and  C_2
REMARK    2  A    between atoms: C_2  and  C_3
REMARK    3  A    between atoms: C_6  and  N_7
REMARK    4  A    between atoms: N_7  and  C_8
REMARK    5  A    between atoms: C_8  and  P_9
REMARK    6  A    between atoms: C_8  and  P_13
REMARK    7  A    between atoms: P_9  and  O_11
REMARK    8  A    between atoms: P_9  and  O_12
REMARK    9  A    between atoms: P_13  and  O_15
REMARK   10  A    between atoms: P_13  and  O_16
REMARK                            x       y       z     vdW  Elec       q    Type
REMARK                         _______ _______ _______ _____ _____    ______ ____
ROOT
ATOM      1  C   UNL     1       6.311   4.281  16.435  0.00  0.00    +0.000 C 
ENDROOT
BRANCH   1   2
ATOM      2  N   UNL     1       4.838   4.556  16.460  0.00  0.00    +0.000 N 
ATOM      3  H   UNL     1       4.662   5.480  16.060  0.00  0.00    +0.000 HD
BRANCH   2   7
ATOM      4  C   UNL     1       2.036   3.654  19.486  0.00  0.00    +0.000 A 
ATOM      5  C   UNL     1       2.151   4.946  18.973  0.00  0.00    +0.000 A 
ATOM      6  C   UNL     1       3.136   5.237  18.018  0.00  0.00    +0.000 A 
ATOM      7  C   UNL     1       4.056   4.273  17.580  0.00  0.00    +0.000 A 
ATOM      8  C   UNL     1       3.991   3.012  18.181  0.00  0.00    +0.000 A 
ATOM      9  C   UNL     1       2.983   2.700  19.121  0.00  0.00    +0.000 A 
BRANCH   4  11
ATOM     10  C   UNL     1       1.290   2.704  21.674  0.00  0.00    +0.000 C 
ATOM     11  C   UNL     1       0.839   3.278  20.334  0.00  0.00    +0.000 C 
ENDBRANCH   4  11
ENDBRANCH   2   7
ENDBRANCH   1   2
BRANCH   1  12
ATOM     12  P   UNL     1       6.972   4.876  14.836  0.00  0.00    +0.000 P 
ATOM     13  O   UNL     1       6.405   3.649  14.113  0.00  0.00    +0.000 OA
BRANCH  12  14
ATOM     14  O   UNL     1       5.826   6.050  14.727  0.00  0.00    +0.000 OA
ATOM     15  H   UNL     1       4.925   5.670  14.690  0.00  0.00    +0.000 HD
ENDBRANCH  12  14
BRANCH  12  16
ATOM     16  O   UNL     1       7.598   5.439  13.324  0.00  0.00    +0.000 OA
ATOM     17  H   UNL     1       6.909   6.056  13.000  0.00  0.00    +0.000 HD
ENDBRANCH  12  16
ENDBRANCH   1  12
BRANCH   1  18
ATOM     18  P   UNL     1       7.188   5.115  17.807  0.00  0.00    +0.000 P 
ATOM     19  O   UNL     1       8.379   4.148  17.689  0.00  0.00    +0.000 OA
BRANCH  18  20
ATOM     20  O   UNL     1       7.644   6.373  16.850  0.00  0.00    +0.000 OA
ATOM     21  H   UNL     1       7.657   7.213  17.342  0.00  0.00    +0.000 HD
ENDBRANCH  18  20
BRANCH  18  22
ATOM     22  O   UNL     1       8.019   5.903  19.105  0.00  0.00    +0.000 OA
ATOM     23  H   UNL     1       8.510   5.196  19.570  0.00  0.00    +0.000 HD
ENDBRANCH  18  22
ENDBRANCH   1  18
TORSDOF 9
ENDMDL
MODEL 6
REMARK VINA RESULT:      -6.7      1.041      3.022
REMARK  Name = 
REMARK  10 active torsions:
REMARK  status: ('A' for Active; 'I' for Inactive)
REMARK    1  A    between atoms: C_1  and  C_2
REMARK    2  A    between atoms: C_2  and  C_3
REMARK    3  A    between atoms: C_6  and  N_7
REMARK    4  A    between atoms: N_7  and  C_8
REMARK    5  A    between atoms: C_8  and  P_9
REMARK    6  A    between atoms: C_8  and  P_13
REMARK    7  A    between atoms: P_9  and  O_11
REMARK    8  A    between atoms: P_9  and  O_12
REMARK    9  A    between atoms: P_13  and  O_15
REMARK   10  A    between atoms: P_13  and  O_16
REMARK                            x       y       z     vdW  Elec       q    Type
REMARK                         _______ _______ _______ _____ _____    ______ ____
ROOT
ATOM      1  C   UNL     1       6.040   6.210  17.173  0.00  0.00    +0.000 C 
ENDROOT
BRANCH   1   2
ATOM      2  N   UNL     1       4.598   6.413  17.527  0.00  0.00    +0.000 N 
ATOM      3  H   UNL     1       4.480   7.347  17.927  0.00  0.00    +0.000 HD
BRANCH   2   7
ATOM      4  C   UNL     1       1.972   3.844  19.606  0.00  0.00    +0.000 A 
ATOM      5  C   UNL     1       2.873   4.661  20.290  0.00  0.00    +0.000 A 
ATOM      6  C   UNL     1       3.783   5.454  19.576  0.00  0.00    +0.000 A 
ATOM      7  C   UNL     1       3.855   5.428  18.176  0.00  0.00    +0.000 A 
ATOM      8  C   UNL     1       3.015   4.528  17.512  0.00  0.00    +0.000 A 
ATOM      9  C   UNL     1       2.073   3.747  18.220  0.00  0.00    +0.000 A 
BRANCH   4  11
ATOM     10  C   UNL     1       1.327   2.650  21.705  0.00  0.00    +0.000 C 
ATOM     11  C   UNL     1       0.842   3.169  20.354  0.00  0.00    +0.000 C 
ENDBRANCH   4  11
ENDBRANCH   2   7
ENDBRANCH   1   2
BRANCH   1  12
ATOM     12  P   UNL     1       6.951   5.808  18.708  0.00  0.00    +0.000 P 
ATOM     13  O   UNL     1       7.401   4.465  18.121  0.00  0.00    +0.000 OA
BRANCH  12  14
ATOM     14  O   UNL     1       8.140   6.888  18.360  0.00  0.00    +0.000 OA
ATOM     15  H   UNL     1       8.583   6.675  17.514  0.00  0.00    +0.000 HD
ENDBRANCH  12  14
BRANCH  12  16
ATOM     16  O   UNL     1       7.812   5.427  20.160  0.00  0.00    +0.000 OA
ATOM     17  H   UNL     1       8.752   5.554  19.915  0.00  0.00    +0.000 HD
ENDBRANCH  12  16
ENDBRANCH   1  12
BRANCH   1  18
ATOM     18  P   UNL     1       6.266   4.860  15.958  0.00  0.00    +0.000 P 
ATOM     19  O   UNL     1       5.266   5.512  14.986  0.00  0.00    +0.000 OA
BRANCH  18  20
ATOM     20  O   UNL     1       7.711   5.459  15.450  0.00  0.00    +0.000 OA
ATOM     21  H   UNL     1       7.866   5.272  14.507  0.00  0.00    +0.000 HD
ENDBRANCH  18  20
BRANCH  18  22
ATOM     22  O   UNL     1       6.478   3.584  14.809  0.00  0.00    +0.000 OA
ATOM     23  H   UNL     1       7.025   2.911  15.261  0.00  0.00    +0.000 HD
ENDBRANCH  18  22
ENDBRANCH   1  18
TORSDOF 9
ENDMDL
MODEL 7
REMARK VINA RESULT:      -6.7      0.856      1.027
REMARK  Name = 
REMARK  10 active torsions:
REMARK  status: ('A' for Active; 'I' for Inactive)
REMARK    1  A    between atoms: C_1  and  C_2
REMARK    2  A    between atoms: C_2  and  C_3
REMARK    3  A    between atoms: C_6  and  N_7
REMARK    4  A    between atoms: N_7  and  C_8
REMARK    5  A    between atoms: C_8  and  P_9
REMARK    6  A    between atoms: C_8  and  P_13
REMARK    7  A    between atoms: P_9  and  O_11
REMARK    8  A    between atoms: P_9  and  O_12
REMARK    9  A    between atoms: P_13  and  O_15
REMARK   10  A    between atoms: P_13  and  O_16
REMARK                            x       y       z     vdW  Elec       q    Type
REMARK                         _______ _______ _______ _____ _____    ______ ____
ROOT
ATOM      1  C   UNL     1       5.589   4.318  16.544  0.00  0.00    +0.000 C 
ENDROOT
BRANCH   1   2
ATOM      2  N   UNL     1       4.412   5.233  16.697  0.00  0.00    +0.000 N 
ATOM      3  H   UNL     1       4.745   6.193  16.805  0.00  0.00    +0.000 HD
BRANCH   2   7
ATOM      4  C   UNL     1       1.512   3.896  19.459  0.00  0.00    +0.000 A 
ATOM      5  C   UNL     1       1.772   3.186  18.287  0.00  0.00    +0.000 A 
ATOM      6  C   UNL     1       2.689   3.686  17.352  0.00  0.00    +0.000 A 
ATOM      7  C   UNL     1       3.338   4.916  17.530  0.00  0.00    +0.000 A 
ATOM      8  C   UNL     1       2.990   5.663  18.661  0.00  0.00    +0.000 A 
ATOM      9  C   UNL     1       2.090   5.153  19.625  0.00  0.00    +0.000 A 
BRANCH   4  11
ATOM     10  C   UNL     1       1.636   2.597  21.591  0.00  0.00    +0.000 C 
ATOM     11  C   UNL     1       0.709   3.256  20.572  0.00  0.00    +0.000 C 
ENDBRANCH   4  11
ENDBRANCH   2   7
ENDBRANCH   1   2
BRANCH   1  12
ATOM     12  P   UNL     1       6.264   4.539  14.858  0.00  0.00    +0.000 P 
ATOM     13  O   UNL     1       5.522   5.871  14.705  0.00  0.00    +0.000 OA
BRANCH  12  14
ATOM     14  O   UNL     1       7.759   4.904  15.436  0.00  0.00    +0.000 OA
ATOM     15  H   UNL     1       7.710   5.518  16.197  0.00  0.00    +0.000 HD
ENDBRANCH  12  14
BRANCH  12  16
ATOM     16  O   UNL     1       6.903   4.748  13.263  0.00  0.00    +0.000 OA
ATOM     17  H   UNL     1       6.653   3.921  12.800  0.00  0.00    +0.000 HD
ENDBRANCH  12  16
ENDBRANCH   1  12
BRANCH   1  18
ATOM     18  P   UNL     1       6.896   4.668  17.776  0.00  0.00    +0.000 P 
ATOM     19  O   UNL     1       6.424   6.125  17.924  0.00  0.00    +0.000 OA
BRANCH  18  20
ATOM     20  O   UNL     1       6.077   3.895  18.974  0.00  0.00    +0.000 OA
ATOM     21  H   UNL     1       5.556   4.517  19.512  0.00  0.00    +0.000 HD
ENDBRANCH  18  20
BRANCH  18  22
ATOM     22  O   UNL     1       8.132   5.000  18.940  0.00  0.00    +0.000 OA
ATOM     23  H   UNL     1       8.947   4.594  18.582  0.00  0.00    +0.000 HD
ENDBRANCH  18  22
ENDBRANCH   1  18
TORSDOF 9
ENDMDL
MODEL 8
REMARK VINA RESULT:      -6.7      1.430      3.080
REMARK  Name = 
REMARK  10 active torsions:
REMARK  status: ('A' for Active; 'I' for Inactive)
REMARK    1  A    between atoms: C_1  and  C_2
REMARK    2  A    between atoms: C_2  and  C_3
REMARK    3  A    between atoms: C_6  and  N_7
REMARK    4  A    between atoms: N_7  and  C_8
REMARK    5  A    between atoms: C_8  and  P_9
REMARK    6  A    between atoms: C_8  and  P_13
REMARK    7  A    between atoms: P_9  and  O_11
REMARK    8  A    between atoms: P_9  and  O_12
REMARK    9  A    between atoms: P_13  and  O_15
REMARK   10  A    between atoms: P_13  and  O_16
REMARK                            x       y       z     vdW  Elec       q    Type
REMARK                         _______ _______ _______ _____ _____    ______ ____
ROOT
ATOM      1  C   UNL     1       5.592   4.899  16.263  0.00  0.00    +0.000 C 
ENDROOT
BRANCH   1   2
ATOM      2  N   UNL     1       5.176   3.552  16.770  0.00  0.00    +0.000 N 
ATOM      3  H   UNL     1       5.387   2.847  16.060  0.00  0.00    +0.000 HD
BRANCH   2   7
ATOM      4  C   UNL     1       1.740   3.105  19.182  0.00  0.00    +0.000 A 
ATOM      5  C   UNL     1       2.714   2.107  19.122  0.00  0.00    +0.000 A 
ATOM      6  C   UNL     1       3.811   2.248  18.261  0.00  0.00    +0.000 A 
ATOM      7  C   UNL     1       3.952   3.353  17.409  0.00  0.00    +0.000 A 
ATOM      8  C   UNL     1       2.916   4.293  17.408  0.00  0.00    +0.000 A 
ATOM      9  C   UNL     1       1.822   4.176  18.295  0.00  0.00    +0.000 A 
BRANCH   4  11
ATOM     10  C   UNL     1       1.321   2.767  21.623  0.00  0.00    +0.000 C 
ATOM     11  C   UNL     1       0.686   3.072  20.268  0.00  0.00    +0.000 C 
ENDBRANCH   4  11
ENDBRANCH   2   7
ENDBRANCH   1   2
BRANCH   1  12
ATOM     12  P   UNL     1       6.786   5.610  17.453  0.00  0.00    +0.000 P 
ATOM     13  O   UNL     1       5.642   6.119  18.338  0.00  0.00    +0.000 OA
BRANCH  12  14
ATOM     14  O   UNL     1       7.192   4.125  18.029  0.00  0.00    +0.000 OA
ATOM     15  H   UNL     1       7.752   4.190  18.829  0.00  0.00    +0.000 HD
ENDBRANCH  12  14
BRANCH  12  16
ATOM     16  O   UNL     1       7.914   6.283  18.580  0.00  0.00    +0.000 OA
ATOM     17  H   UNL     1       7.722   5.809  19.416  0.00  0.00    +0.000 HD
ENDBRANCH  12  16
ENDBRANCH   1  12
BRANCH   1  18
ATOM     18  P   UNL     1       6.366   4.802  14.607  0.00  0.00    +0.000 P 
ATOM     19  O   UNL     1       7.772   4.976  15.209  0.00  0.00    +0.000 OA
BRANCH  18  20
ATOM     20  O   UNL     1       6.198   3.167  14.543  0.00  0.00    +0.000 OA
ATOM     21  H   UNL     1       5.294   2.909  14.288  0.00  0.00    +0.000 HD
ENDBRANCH  18  20
BRANCH  18  22
ATOM     22  O   UNL     1       7.099   4.710  13.043  0.00  0.00    +0.000 OA
ATOM     23  H   UNL     1       8.064   4.721  13.203  0.00  0.00    +0.000 HD
ENDBRANCH  18  22
ENDBRANCH   1  18
TORSDOF 9
ENDMDL
MODEL 9
REMARK VINA RESULT:      -6.5      1.255      3.233
REMARK  Name = 
REMARK  10 active torsions:
REMARK  status: ('A' for Active; 'I' for Inactive)
REMARK    1  A    between atoms: C_1  and  C_2
REMARK    2  A    between atoms: C_2  and  C_3
REMARK    3  A    between atoms: C_6  and  N_7
REMARK    4  A    between atoms: N_7  and  C_8
REMARK    5  A    between atoms: C_8  and  P_9
REMARK    6  A    between atoms: C_8  and  P_13
REMARK    7  A    between atoms: P_9  and  O_11
REMARK    8  A    between atoms: P_9  and  O_12
REMARK    9  A    between atoms: P_13  and  O_15
REMARK   10  A    between atoms: P_13  and  O_16
REMARK                            x       y       z     vdW  Elec       q    Type
REMARK                         _______ _______ _______ _____ _____    ______ ____
ROOT
ATOM      1  C   UNL     1       5.990   5.067  16.995  0.00  0.00    +0.000 C 
ENDROOT
BRANCH   1   2
ATOM      2  N   UNL     1       5.601   3.663  17.345  0.00  0.00    +0.000 N 
ATOM      3  H   UNL     1       5.852   3.043  16.572  0.00  0.00    +0.000 HD
BRANCH   2   7
ATOM      4  C   UNL     1       2.000   3.147  19.487  0.00  0.00    +0.000 A 
ATOM      5  C   UNL     1       3.179   2.525  19.899  0.00  0.00    +0.000 A 
ATOM      6  C   UNL     1       4.346   2.655  19.133  0.00  0.00    +0.000 A 
ATOM      7  C   UNL     1       4.367   3.364  17.923  0.00  0.00    +0.000 A 
ATOM      8  C   UNL     1       3.153   3.894  17.474  0.00  0.00    +0.000 A 
ATOM      9  C   UNL     1       1.979   3.796  18.255  0.00  0.00    +0.000 A 
BRANCH   4  11
ATOM     10  C   UNL     1       1.190   2.705  21.810  0.00  0.00    +0.000 C 
ATOM     11  C   UNL     1       0.809   3.207  20.420  0.00  0.00    +0.000 C 
ENDBRANCH   4  11
ENDBRANCH   2   7
ENDBRANCH   1   2
BRANCH   1  12
ATOM     12  P   UNL     1       7.206   5.645  18.235  0.00  0.00    +0.000 P 
ATOM     13  O   UNL     1       6.151   5.568  19.345  0.00  0.00    +0.000 OA
BRANCH  12  14
ATOM     14  O   UNL     1       7.986   4.198  18.236  0.00  0.00    +0.000 OA
ATOM     15  H   UNL     1       7.422   3.485  18.596  0.00  0.00    +0.000 HD
ENDBRANCH  12  14
BRANCH  12  16
ATOM     16  O   UNL     1       8.355   6.191  19.407  0.00  0.00    +0.000 OA
ATOM     17  H   UNL     1       8.561   5.387  19.926  0.00  0.00    +0.000 HD
ENDBRANCH  12  16
ENDBRANCH   1  12
BRANCH   1  18
ATOM     18  P   UNL     1       6.722   5.181  15.322  0.00  0.00    +0.000 P 
ATOM     19  O   UNL     1       6.139   3.813  14.928  0.00  0.00    +0.000 OA
BRANCH  18  20
ATOM     20  O   UNL     1       5.567   6.233  14.808  0.00  0.00    +0.000 OA
ATOM     21  H   UNL     1       5.072   5.878  14.048  0.00  0.00    +0.000 HD
ENDBRANCH  18  20
BRANCH  18  22
ATOM     22  O   UNL     1       7.415   5.288  13.740  0.00  0.00    +0.000 OA
ATOM     23  H   UNL     1       6.657   5.289  13.121  0.00  0.00    +0.000 HD
ENDBRANCH  18  22
ENDBRANCH   1  18
TORSDOF 9
ENDMDL
