MODEL 1
REMARK VINA RESULT:      -6.8      0.000      0.000
REMARK  Name = 
REMARK  13 active torsions:
REMARK  status: ('A' for Active; 'I' for Inactive)
REMARK    1  A    between atoms: C_1  and  C_2
REMARK    2  A    between atoms: C_4  and  C_5
REMARK    3  A    between atoms: C_8  and  C_9
REMARK    4  A    between atoms: C_12  and  O_13
REMARK    5  A    between atoms: O_13  and  C_14
REMARK    6  A    between atoms: C_14  and  C_15
REMARK    7  A    between atoms: C_15  and  O_16
REMARK    8  A    between atoms: O_16  and  C_17
REMARK    9  A    between atoms: C_17  and  C_18
REMARK   10  A    between atoms: C_18  and  O_19
REMARK   11  A    between atoms: O_19  and  C_20
REMARK   12  A    between atoms: C_20  and  C_21
REMARK   13  A    between atoms: C_23  and  C_24
REMARK                            x       y       z     vdW  Elec       q    Type
REMARK                         _______ _______ _______ _____ _____    ______ ____
ROOT
ATOM      1  C   UNL     1       2.263   7.952  18.476  0.00  0.00    +0.000 A 
ATOM      2  C   UNL     1       3.315   8.057  17.565  0.00  0.00    +0.000 A 
ATOM      3  C   UNL     1       4.293   7.061  17.503  0.00  0.00    +0.000 A 
ATOM      4  C   UNL     1       4.233   5.925  18.322  0.00  0.00    +0.000 A 
ATOM      5  C   UNL     1       3.191   5.824  19.256  0.00  0.00    +0.000 A 
ATOM      6  C   UNL     1       2.219   6.838  19.320  0.00  0.00    +0.000 A 
ENDROOT
BRANCH   1  10
ATOM      7  C   UNL     1      -0.557  10.108  18.257  0.00  0.00    +0.000 A 
ATOM      8  N   UNL     1       0.018  10.691  19.319  0.00  0.00    +0.000 NA
ATOM      9  N   UNL     1       1.109   9.933  19.493  0.00  0.00    +0.000 N 
ATOM     10  C   UNL     1       1.196   8.941  18.559  0.00  0.00    +0.000 A 
ATOM     11  N   UNL     1       0.143   9.027  17.773  0.00  0.00    +0.000 NA
ATOM     12  H   UNL     1       1.731  10.132  20.267  0.00  0.00    +0.000 HD
BRANCH   7  16
ATOM     13  C   UNL     1      -3.794  10.176  14.459  0.00  0.00    +0.000 C 
ATOM     14  C   UNL     1      -3.365  10.600  15.831  0.00  0.00    +0.000 A 
ATOM     15  C   UNL     1      -2.162  10.156  16.367  0.00  0.00    +0.000 A 
ATOM     16  C   UNL     1      -1.808  10.552  17.658  0.00  0.00    +0.000 A 
ATOM     17  C   UNL     1      -2.674  11.385  18.368  0.00  0.00    +0.000 A 
ATOM     18  C   UNL     1      -3.845  11.787  17.754  0.00  0.00    +0.000 A 
ATOM     19  N   UNL     1      -4.206  11.414  16.508  0.00  0.00    +0.000 NA
ENDBRANCH   7  16
ENDBRANCH   1  10
BRANCH   5  20
ATOM     20  C   UNL     1       3.024   4.741  20.174  0.00  0.00    +0.000 C 
ATOM     21  N   UNL     1       2.877   3.829  20.879  0.00  0.00    +0.000 NA
ENDBRANCH   5  20
BRANCH   4  22
ATOM     22  O   UNL     1       5.265   5.052  18.086  0.00  0.00    +0.000 OA
BRANCH  22  23
ATOM     23  C   UNL     1       6.589   5.580  18.090  0.00  0.00    +0.000 C 
BRANCH  23  24
ATOM     24  C   UNL     1       7.581   4.544  17.573  0.00  0.00    +0.000 C 
BRANCH  24  25
ATOM     25  O   UNL     1       7.140   4.134  16.278  0.00  0.00    +0.000 OA
BRANCH  25  26
ATOM     26  C   UNL     1       7.009   5.229  15.379  0.00  0.00    +0.000 C 
BRANCH  26  27
ATOM     27  C   UNL     1       5.917   4.916  14.361  0.00  0.00    +0.000 C 
BRANCH  27  28
ATOM     28  O   UNL     1       6.123   3.600  13.847  0.00  0.00    +0.000 OA
BRANCH  28  29
ATOM     29  C   UNL     1       6.402   3.619  12.444  0.00  0.00    +0.000 C 
BRANCH  29  30
ATOM     30  C   UNL     1       5.609   2.505  11.779  0.00  0.00    +0.000 C 
ATOM     31 CL   UNL     1       4.051   3.106  11.175  0.00  0.00    +0.000 Cl
ENDBRANCH  29  30
ENDBRANCH  28  29
ENDBRANCH  27  28
ENDBRANCH  26  27
ENDBRANCH  25  26
ENDBRANCH  24  25
ENDBRANCH  23  24
ENDBRANCH  22  23
ENDBRANCH   4  22
TORSDOF 12
ENDMDL
MODEL 2
REMARK VINA RESULT:      -6.8      2.617      3.617
REMARK  Name = 
REMARK  13 active torsions:
REMARK  status: ('A' for Active; 'I' for Inactive)
REMARK    1  A    between atoms: C_1  and  C_2
REMARK    2  A    between atoms: C_4  and  C_5
REMARK    3  A    between atoms: C_8  and  C_9
REMARK    4  A    between atoms: C_12  and  O_13
REMARK    5  A    between atoms: O_13  and  C_14
REMARK    6  A    between atoms: C_14  and  C_15
REMARK    7  A    between atoms: C_15  and  O_16
REMARK    8  A    between atoms: O_16  and  C_17
REMARK    9  A    between atoms: C_17  and  C_18
REMARK   10  A    between atoms: C_18  and  O_19
REMARK   11  A    between atoms: O_19  and  C_20
REMARK   12  A    between atoms: C_20  and  C_21
REMARK   13  A    between atoms: C_23  and  C_24
REMARK                            x       y       z     vdW  Elec       q    Type
REMARK                         _______ _______ _______ _____ _____    ______ ____
ROOT
ATOM      1  C   UNL     1       1.665   7.738  20.444  0.00  0.00    +0.000 A 
ATOM      2  C   UNL     1       2.240   7.898  19.183  0.00  0.00    +0.000 A 
ATOM      3  C   UNL     1       2.809   6.803  18.525  0.00  0.00    +0.000 A 
ATOM      4  C   UNL     1       2.794   5.521  19.093  0.00  0.00    +0.000 A 
ATOM      5  C   UNL     1       2.238   5.358  20.370  0.00  0.00    +0.000 A 
ATOM      6  C   UNL     1       1.679   6.467  21.029  0.00  0.00    +0.000 A 
ENDROOT
BRANCH   1  10
ATOM      7  C   UNL     1      -0.137  10.526  21.719  0.00  0.00    +0.000 A 
ATOM      8  N   UNL     1       0.474  10.183  22.863  0.00  0.00    +0.000 NA
ATOM      9  N   UNL     1       1.188   9.115  22.485  0.00  0.00    +0.000 N 
ATOM     10  C   UNL     1       1.025   8.834  21.159  0.00  0.00    +0.000 A 
ATOM     11  N   UNL     1       0.179   9.710  20.658  0.00  0.00    +0.000 NA
ATOM     12  H   UNL     1       1.739   8.619  23.176  0.00  0.00    +0.000 HD
BRANCH   7  16
ATOM     13  C   UNL     1      -2.421  14.539  23.611  0.00  0.00    +0.000 C 
ATOM     14  C   UNL     1      -2.172  13.570  22.496  0.00  0.00    +0.000 A 
ATOM     15  C   UNL     1      -1.286  12.513  22.660  0.00  0.00    +0.000 A 
ATOM     16  C   UNL     1      -1.060  11.645  21.589  0.00  0.00    +0.000 A 
ATOM     17  C   UNL     1      -1.738  11.867  20.390  0.00  0.00    +0.000 A 
ATOM     18  C   UNL     1      -2.609  12.936  20.318  0.00  0.00    +0.000 A 
ATOM     19  N   UNL     1      -2.839  13.787  21.340  0.00  0.00    +0.000 NA
ENDBRANCH   7  16
ENDBRANCH   1  10
BRANCH   5  20
ATOM     20  C   UNL     1       2.183   4.119  21.081  0.00  0.00    +0.000 C 
ATOM     21  N   UNL     1       2.091   3.126  21.678  0.00  0.00    +0.000 NA
ENDBRANCH   5  20
BRANCH   4  22
ATOM     22  O   UNL     1       3.370   4.580  18.278  0.00  0.00    +0.000 OA
BRANCH  22  23
ATOM     23  C   UNL     1       4.491   3.862  18.791  0.00  0.00    +0.000 C 
BRANCH  23  24
ATOM     24  C   UNL     1       5.622   4.820  19.150  0.00  0.00    +0.000 C 
BRANCH  24  25
ATOM     25  O   UNL     1       6.802   4.359  18.492  0.00  0.00    +0.000 OA
BRANCH  25  26
ATOM     26  C   UNL     1       7.232   5.247  17.467  0.00  0.00    +0.000 C 
BRANCH  26  27
ATOM     27  C   UNL     1       7.125   4.546  16.116  0.00  0.00    +0.000 C 
BRANCH  27  28
ATOM     28  O   UNL     1       6.253   5.295  15.271  0.00  0.00    +0.000 OA
BRANCH  28  29
ATOM     29  C   UNL     1       5.483   4.443  14.418  0.00  0.00    +0.000 C 
BRANCH  29  30
ATOM     30  C   UNL     1       6.395   3.901  13.328  0.00  0.00    +0.000 C 
ATOM     31 CL   UNL     1       5.457   3.071  12.069  0.00  0.00    +0.000 Cl
ENDBRANCH  29  30
ENDBRANCH  28  29
ENDBRANCH  27  28
ENDBRANCH  26  27
ENDBRANCH  25  26
ENDBRANCH  24  25
ENDBRANCH  23  24
ENDBRANCH  22  23
ENDBRANCH   4  22
TORSDOF 12
ENDMDL
MODEL 3
REMARK VINA RESULT:      -6.8      4.163      4.879
REMARK  Name = 
REMARK  13 active torsions:
REMARK  status: ('A' for Active; 'I' for Inactive)
REMARK    1  A    between atoms: C_1  and  C_2
REMARK    2  A    between atoms: C_4  and  C_5
REMARK    3  A    between atoms: C_8  and  C_9
REMARK    4  A    between atoms: C_12  and  O_13
REMARK    5  A    between atoms: O_13  and  C_14
REMARK    6  A    between atoms: C_14  and  C_15
REMARK    7  A    between atoms: C_15  and  O_16
REMARK    8  A    between atoms: O_16  and  C_17
REMARK    9  A    between atoms: C_17  and  C_18
REMARK   10  A    between atoms: C_18  and  O_19
REMARK   11  A    between atoms: O_19  and  C_20
REMARK   12  A    between atoms: C_20  and  C_21
REMARK   13  A    between atoms: C_23  and  C_24
REMARK                            x       y       z     vdW  Elec       q    Type
REMARK                         _______ _______ _______ _____ _____    ______ ____
ROOT
ATOM      1  C   UNL     1       1.704   7.286  20.226  0.00  0.00    +0.000 A 
ATOM      2  C   UNL     1       2.213   7.489  18.943  0.00  0.00    +0.000 A 
ATOM      3  C   UNL     1       2.573   6.397  18.149  0.00  0.00    +0.000 A 
ATOM      4  C   UNL     1       2.408   5.079  18.599  0.00  0.00    +0.000 A 
ATOM      5  C   UNL     1       1.918   4.869  19.897  0.00  0.00    +0.000 A 
ATOM      6  C   UNL     1       1.571   5.974  20.693  0.00  0.00    +0.000 A 
ENDROOT
BRANCH   1  10
ATOM      7  C   UNL     1       0.301  10.074  21.933  0.00  0.00    +0.000 A 
ATOM      8  N   UNL     1       1.208   9.744  22.865  0.00  0.00    +0.000 NA
ATOM      9  N   UNL     1       1.798   8.677  22.311  0.00  0.00    +0.000 N 
ATOM     10  C   UNL     1       1.277   8.384  21.084  0.00  0.00    +0.000 A 
ATOM     11  N   UNL     1       0.318   9.251  20.830  0.00  0.00    +0.000 NA
ATOM     12  H   UNL     1       2.523   8.191  22.825  0.00  0.00    +0.000 HD
BRANCH   7  16
ATOM     13  C   UNL     1      -1.511  14.442  20.342  0.00  0.00    +0.000 C 
ATOM     14  C   UNL     1      -1.500  13.293  21.304  0.00  0.00    +0.000 A 
ATOM     15  C   UNL     1      -0.593  12.252  21.155  0.00  0.00    +0.000 A 
ATOM     16  C   UNL     1      -0.631  11.186  22.056  0.00  0.00    +0.000 A 
ATOM     17  C   UNL     1      -1.576  11.205  23.082  0.00  0.00    +0.000 A 
ATOM     18  C   UNL     1      -2.432  12.286  23.163  0.00  0.00    +0.000 A 
ATOM     19  N   UNL     1      -2.415  13.324  22.300  0.00  0.00    +0.000 NA
ENDBRANCH   7  16
ENDBRANCH   1  10
BRANCH   5  20
ATOM     20  C   UNL     1       1.731   3.585  20.497  0.00  0.00    +0.000 C 
ATOM     21  N   UNL     1       1.596   2.518  20.939  0.00  0.00    +0.000 NA
ENDBRANCH   5  20
BRANCH   4  22
ATOM     22  O   UNL     1       2.788   4.152  17.662  0.00  0.00    +0.000 OA
BRANCH  22  23
ATOM     23  C   UNL     1       4.056   4.331  17.034  0.00  0.00    +0.000 C 
BRANCH  23  24
ATOM     24  C   UNL     1       5.182   4.203  18.055  0.00  0.00    +0.000 C 
BRANCH  24  25
ATOM     25  O   UNL     1       5.928   5.421  18.028  0.00  0.00    +0.000 OA
BRANCH  25  26
ATOM     26  C   UNL     1       6.859   5.510  19.100  0.00  0.00    +0.000 C 
BRANCH  26  27
ATOM     27  C   UNL     1       7.951   6.511  18.737  0.00  0.00    +0.000 C 
BRANCH  27  28
ATOM     28  O   UNL     1       7.606   7.151  17.508  0.00  0.00    +0.000 OA
BRANCH  28  29
ATOM     29  C   UNL     1       7.714   8.573  17.606  0.00  0.00    +0.000 C 
BRANCH  29  30
ATOM     30  C   UNL     1       8.734   8.907  18.683  0.00  0.00    +0.000 C 
ATOM     31 CL   UNL     1       9.169  10.628  18.636  0.00  0.00    +0.000 Cl
ENDBRANCH  29  30
ENDBRANCH  28  29
ENDBRANCH  27  28
ENDBRANCH  26  27
ENDBRANCH  25  26
ENDBRANCH  24  25
ENDBRANCH  23  24
ENDBRANCH  22  23
ENDBRANCH   4  22
TORSDOF 12
ENDMDL
MODEL 4
REMARK VINA RESULT:      -6.8      4.568      9.216
REMARK  Name = 
REMARK  13 active torsions:
REMARK  status: ('A' for Active; 'I' for Inactive)
REMARK    1  A    between atoms: C_1  and  C_2
REMARK    2  A    between atoms: C_4  and  C_5
REMARK    3  A    between atoms: C_8  and  C_9
REMARK    4  A    between atoms: C_12  and  O_13
REMARK    5  A    between atoms: O_13  and  C_14
REMARK    6  A    between atoms: C_14  and  C_15
REMARK    7  A    between atoms: C_15  and  O_16
REMARK    8  A    between atoms: O_16  and  C_17
REMARK    9  A    between atoms: C_17  and  C_18
REMARK   10  A    between atoms: C_18  and  O_19
REMARK   11  A    between atoms: O_19  and  C_20
REMARK   12  A    between atoms: C_20  and  C_21
REMARK   13  A    between atoms: C_23  and  C_24
REMARK                            x       y       z     vdW  Elec       q    Type
REMARK                         _______ _______ _______ _____ _____    ______ ____
ROOT
ATOM      1  C   UNL     1       4.031   5.951  18.230  0.00  0.00    +0.000 A 
ATOM      2  C   UNL     1       3.403   7.195  18.172  0.00  0.00    +0.000 A 
ATOM      3  C   UNL     1       2.410   7.525  19.099  0.00  0.00    +0.000 A 
ATOM      4  C   UNL     1       2.041   6.640  20.121  0.00  0.00    +0.000 A 
ATOM      5  C   UNL     1       2.653   5.379  20.172  0.00  0.00    +0.000 A 
ATOM      6  C   UNL     1       3.641   5.050  19.227  0.00  0.00    +0.000 A 
ENDROOT
BRANCH   1  10
ATOM      7  C   UNL     1       6.249   5.002  15.616  0.00  0.00    +0.000 A 
ATOM      8  N   UNL     1       7.163   5.068  16.597  0.00  0.00    +0.000 NA
ATOM      9  N   UNL     1       6.415   5.433  17.647  0.00  0.00    +0.000 N 
ATOM     10  C   UNL     1       5.097   5.567  17.314  0.00  0.00    +0.000 A 
ATOM     11  N   UNL     1       4.973   5.310  16.029  0.00  0.00    +0.000 NA
ATOM     12  H   UNL     1       6.863   5.592  18.541  0.00  0.00    +0.000 HD
BRANCH   7  16
ATOM     13  C   UNL     1       5.374   2.315  11.504  0.00  0.00    +0.000 C 
ATOM     14  C   UNL     1       6.148   3.354  12.258  0.00  0.00    +0.000 A 
ATOM     15  C   UNL     1       5.827   3.659  13.575  0.00  0.00    +0.000 A 
ATOM     16  C   UNL     1       6.555   4.651  14.237  0.00  0.00    +0.000 A 
ATOM     17  C   UNL     1       7.584   5.299  13.554  0.00  0.00    +0.000 A 
ATOM     18  C   UNL     1       7.842   4.924  12.249  0.00  0.00    +0.000 A 
ATOM     19  N   UNL     1       7.149   3.971  11.591  0.00  0.00    +0.000 NA
ENDBRANCH   7  16
ENDBRANCH   1  10
BRANCH   5  20
ATOM     20  C   UNL     1       2.353   4.368  21.137  0.00  0.00    +0.000 C 
ATOM     21  N   UNL     1       2.153   3.559  21.948  0.00  0.00    +0.000 NA
ENDBRANCH   5  20
BRANCH   4  22
ATOM     22  O   UNL     1       1.077   7.162  20.946  0.00  0.00    +0.000 OA
BRANCH  22  23
ATOM     23  C   UNL     1       1.368   8.394  21.603  0.00  0.00    +0.000 C 
BRANCH  23  24
ATOM     24  C   UNL     1       0.101   8.994  22.203  0.00  0.00    +0.000 C 
BRANCH  24  25
ATOM     25  O   UNL     1       0.254  10.414  22.201  0.00  0.00    +0.000 OA
BRANCH  25  26
ATOM     26  C   UNL     1       0.620  10.917  20.922  0.00  0.00    +0.000 C 
BRANCH  26  27
ATOM     27  C   UNL     1      -0.589  10.861  19.994  0.00  0.00    +0.000 C 
BRANCH  27  28
ATOM     28  O   UNL     1      -0.241  11.444  18.739  0.00  0.00    +0.000 OA
BRANCH  28  29
ATOM     29  C   UNL     1      -1.333  12.174  18.174  0.00  0.00    +0.000 C 
BRANCH  29  30
ATOM     30  C   UNL     1      -2.491  11.214  17.951  0.00  0.00    +0.000 C 
ATOM     31 CL   UNL     1      -2.065   9.969  16.758  0.00  0.00    +0.000 Cl
ENDBRANCH  29  30
ENDBRANCH  28  29
ENDBRANCH  27  28
ENDBRANCH  26  27
ENDBRANCH  25  26
ENDBRANCH  24  25
ENDBRANCH  23  24
ENDBRANCH  22  23
ENDBRANCH   4  22
TORSDOF 12
ENDMDL
MODEL 5
REMARK VINA RESULT:      -6.8      3.529      4.192
REMARK  Name = 
REMARK  13 active torsions:
REMARK  status: ('A' for Active; 'I' for Inactive)
REMARK    1  A    between atoms: C_1  and  C_2
REMARK    2  A    between atoms: C_4  and  C_5
REMARK    3  A    between atoms: C_8  and  C_9
REMARK    4  A    between atoms: C_12  and  O_13
REMARK    5  A    between atoms: O_13  and  C_14
REMARK    6  A    between atoms: C_14  and  C_15
REMARK    7  A    between atoms: C_15  and  O_16
REMARK    8  A    between atoms: O_16  and  C_17
REMARK    9  A    between atoms: C_17  and  C_18
REMARK   10  A    between atoms: C_18  and  O_19
REMARK   11  A    between atoms: O_19  and  C_20
REMARK   12  A    between atoms: C_20  and  C_21
REMARK   13  A    between atoms: C_23  and  C_24
REMARK                            x       y       z     vdW  Elec       q    Type
REMARK                         _______ _______ _______ _____ _____    ______ ____
ROOT
ATOM      1  C   UNL     1       1.867   7.182  20.121  0.00  0.00    +0.000 A 
ATOM      2  C   UNL     1       2.348   7.090  18.814  0.00  0.00    +0.000 A 
ATOM      3  C   UNL     1       2.685   5.844  18.276  0.00  0.00    +0.000 A 
ATOM      4  C   UNL     1       2.523   4.662  19.012  0.00  0.00    +0.000 A 
ATOM      5  C   UNL     1       2.061   4.751  20.333  0.00  0.00    +0.000 A 
ATOM      6  C   UNL     1       1.737   6.008  20.871  0.00  0.00    +0.000 A 
ENDROOT
BRANCH   1  10
ATOM      7  C   UNL     1       0.739  10.414  21.087  0.00  0.00    +0.000 A 
ATOM      8  N   UNL     1       1.110   9.994  22.306  0.00  0.00    +0.000 NA
ATOM      9  N   UNL     1       1.553   8.756  22.048  0.00  0.00    +0.000 N 
ATOM     10  C   UNL     1       1.466   8.448  20.721  0.00  0.00    +0.000 A 
ATOM     11  N   UNL     1       0.941   9.482  20.096  0.00  0.00    +0.000 NA
ATOM     12  H   UNL     1       1.876   8.177  22.814  0.00  0.00    +0.000 HD
BRANCH   7  16
ATOM     13  C   UNL     1       1.123  15.061  19.309  0.00  0.00    +0.000 C 
ATOM     14  C   UNL     1       0.345  13.965  19.971  0.00  0.00    +0.000 A 
ATOM     15  C   UNL     1       0.930  12.729  20.218  0.00  0.00    +0.000 A 
ATOM     16  C   UNL     1       0.164  11.724  20.814  0.00  0.00    +0.000 A 
ATOM     17  C   UNL     1      -1.163  11.997  21.147  0.00  0.00    +0.000 A 
ATOM     18  C   UNL     1      -1.659  13.258  20.876  0.00  0.00    +0.000 A 
ATOM     19  N   UNL     1      -0.938  14.241  20.299  0.00  0.00    +0.000 NA
ENDBRANCH   7  16
ENDBRANCH   1  10
BRANCH   5  20
ATOM     20  C   UNL     1       1.879   3.634  21.207  0.00  0.00    +0.000 C 
ATOM     21  N   UNL     1       1.769   2.700  21.890  0.00  0.00    +0.000 NA
ENDBRANCH   5  20
BRANCH   4  22
ATOM     22  O   UNL     1       2.876   3.546  18.296  0.00  0.00    +0.000 OA
BRANCH  22  23
ATOM     23  C   UNL     1       4.257   3.373  17.985  0.00  0.00    +0.000 C 
BRANCH  23  24
ATOM     24  C   UNL     1       4.459   3.289  16.475  0.00  0.00    +0.000 C 
BRANCH  24  25
ATOM     25  O   UNL     1       4.664   4.617  15.993  0.00  0.00    +0.000 OA
BRANCH  25  26
ATOM     26  C   UNL     1       5.726   4.694  15.050  0.00  0.00    +0.000 C 
BRANCH  26  27
ATOM     27  C   UNL     1       7.059   4.654  15.789  0.00  0.00    +0.000 C 
BRANCH  27  28
ATOM     28  O   UNL     1       7.524   5.989  15.984  0.00  0.00    +0.000 OA
BRANCH  28  29
ATOM     29  C   UNL     1       7.108   6.513  17.247  0.00  0.00    +0.000 C 
BRANCH  29  30
ATOM     30  C   UNL     1       7.198   5.404  18.283  0.00  0.00    +0.000 C 
ATOM     31 CL   UNL     1       8.280   5.863  19.614  0.00  0.00    +0.000 Cl
ENDBRANCH  29  30
ENDBRANCH  28  29
ENDBRANCH  27  28
ENDBRANCH  26  27
ENDBRANCH  25  26
ENDBRANCH  24  25
ENDBRANCH  23  24
ENDBRANCH  22  23
ENDBRANCH   4  22
TORSDOF 12
ENDMDL
MODEL 6
REMARK VINA RESULT:      -6.7      5.954     10.442
REMARK  Name = 
REMARK  13 active torsions:
REMARK  status: ('A' for Active; 'I' for Inactive)
REMARK    1  A    between atoms: C_1  and  C_2
REMARK    2  A    between atoms: C_4  and  C_5
REMARK    3  A    between atoms: C_8  and  C_9
REMARK    4  A    between atoms: C_12  and  O_13
REMARK    5  A    between atoms: O_13  and  C_14
REMARK    6  A    between atoms: C_14  and  C_15
REMARK    7  A    between atoms: C_15  and  O_16
REMARK    8  A    between atoms: O_16  and  C_17
REMARK    9  A    between atoms: C_17  and  C_18
REMARK   10  A    between atoms: C_18  and  O_19
REMARK   11  A    between atoms: O_19  and  C_20
REMARK   12  A    between atoms: C_20  and  C_21
REMARK   13  A    between atoms: C_23  and  C_24
REMARK                            x       y       z     vdW  Elec       q    Type
REMARK                         _______ _______ _______ _____ _____    ______ ____
ROOT
ATOM      1  C   UNL     1       3.964   5.424  18.465  0.00  0.00    +0.000 A 
ATOM      2  C   UNL     1       3.399   6.699  18.436  0.00  0.00    +0.000 A 
ATOM      3  C   UNL     1       2.428   7.060  19.374  0.00  0.00    +0.000 A 
ATOM      4  C   UNL     1       2.017   6.173  20.378  0.00  0.00    +0.000 A 
ATOM      5  C   UNL     1       2.564   4.881  20.399  0.00  0.00    +0.000 A 
ATOM      6  C   UNL     1       3.531   4.523  19.444  0.00  0.00    +0.000 A 
ENDROOT
BRANCH   1  10
ATOM      7  C   UNL     1       6.160   4.540  15.811  0.00  0.00    +0.000 A 
ATOM      8  N   UNL     1       6.988   4.238  16.822  0.00  0.00    +0.000 NA
ATOM      9  N   UNL     1       6.242   4.548  17.891  0.00  0.00    +0.000 N 
ATOM     10  C   UNL     1       5.006   5.006  17.537  0.00  0.00    +0.000 A 
ATOM     11  N   UNL     1       4.938   5.020  16.222  0.00  0.00    +0.000 NA
ATOM     12  H   UNL     1       6.640   4.445  18.817  0.00  0.00    +0.000 HD
BRANCH   7  16
ATOM     13  C   UNL     1       5.554   2.320  11.383  0.00  0.00    +0.000 C 
ATOM     14  C   UNL     1       6.225   3.322  12.272  0.00  0.00    +0.000 A 
ATOM     15  C   UNL     1       5.872   3.430  13.612  0.00  0.00    +0.000 A 
ATOM     16  C   UNL     1       6.502   4.394  14.403  0.00  0.00    +0.000 A 
ATOM     17  C   UNL     1       7.469   5.214  13.821  0.00  0.00    +0.000 A 
ATOM     18  C   UNL     1       7.765   5.031  12.484  0.00  0.00    +0.000 A 
ATOM     19  N   UNL     1       7.166   4.108  11.702  0.00  0.00    +0.000 NA
ENDBRANCH   7  16
ENDBRANCH   1  10
BRANCH   5  20
ATOM     20  C   UNL     1       2.215   3.866  21.343  0.00  0.00    +0.000 C 
ATOM     21  N   UNL     1       1.926   3.006  22.070  0.00  0.00    +0.000 NA
ENDBRANCH   5  20
BRANCH   4  22
ATOM     22  O   UNL     1       1.082   6.725  21.218  0.00  0.00    +0.000 OA
BRANCH  22  23
ATOM     23  C   UNL     1       1.086   8.144  21.364  0.00  0.00    +0.000 C 
BRANCH  23  24
ATOM     24  C   UNL     1      -0.338   8.673  21.497  0.00  0.00    +0.000 C 
BRANCH  24  25
ATOM     25  O   UNL     1      -0.254  10.062  21.819  0.00  0.00    +0.000 OA
BRANCH  25  26
ATOM     26  C   UNL     1      -0.761  10.348  23.117  0.00  0.00    +0.000 C 
BRANCH  26  27
ATOM     27  C   UNL     1      -1.653  11.584  23.047  0.00  0.00    +0.000 C 
BRANCH  27  28
ATOM     28  O   UNL     1      -0.840  12.732  22.806  0.00  0.00    +0.000 OA
BRANCH  28  29
ATOM     29  C   UNL     1      -1.353  13.890  23.469  0.00  0.00    +0.000 C 
BRANCH  29  30
ATOM     30  C   UNL     1      -2.864  13.758  23.572  0.00  0.00    +0.000 C 
ATOM     31 CL   UNL     1      -3.678  15.114  22.764  0.00  0.00    +0.000 Cl
ENDBRANCH  29  30
ENDBRANCH  28  29
ENDBRANCH  27  28
ENDBRANCH  26  27
ENDBRANCH  25  26
ENDBRANCH  24  25
ENDBRANCH  23  24
ENDBRANCH  22  23
ENDBRANCH   4  22
TORSDOF 12
ENDMDL
MODEL 7
REMARK VINA RESULT:      -6.7      3.076      3.582
REMARK  Name = 
REMARK  13 active torsions:
REMARK  status: ('A' for Active; 'I' for Inactive)
REMARK    1  A    between atoms: C_1  and  C_2
REMARK    2  A    between atoms: C_4  and  C_5
REMARK    3  A    between atoms: C_8  and  C_9
REMARK    4  A    between atoms: C_12  and  O_13
REMARK    5  A    between atoms: O_13  and  C_14
REMARK    6  A    between atoms: C_14  and  C_15
REMARK    7  A    between atoms: C_15  and  O_16
REMARK    8  A    between atoms: O_16  and  C_17
REMARK    9  A    between atoms: C_17  and  C_18
REMARK   10  A    between atoms: C_18  and  O_19
REMARK   11  A    between atoms: O_19  and  C_20
REMARK   12  A    between atoms: C_20  and  C_21
REMARK   13  A    between atoms: C_23  and  C_24
REMARK                            x       y       z     vdW  Elec       q    Type
REMARK                         _______ _______ _______ _____ _____    ______ ____
ROOT
ATOM      1  C   UNL     1       1.734   7.693  20.340  0.00  0.00    +0.000 A 
ATOM      2  C   UNL     1       2.248   7.729  19.043  0.00  0.00    +0.000 A 
ATOM      3  C   UNL     1       2.736   6.562  18.448  0.00  0.00    +0.000 A 
ATOM      4  C   UNL     1       2.697   5.330  19.116  0.00  0.00    +0.000 A 
ATOM      5  C   UNL     1       2.203   5.291  20.428  0.00  0.00    +0.000 A 
ATOM      6  C   UNL     1       1.726   6.473  21.023  0.00  0.00    +0.000 A 
ENDROOT
BRANCH   1  10
ATOM      7  C   UNL     1       0.386  10.791  21.451  0.00  0.00    +0.000 A 
ATOM      8  N   UNL     1       0.372  10.167  22.638  0.00  0.00    +0.000 NA
ATOM      9  N   UNL     1       0.865   8.962  22.321  0.00  0.00    +0.000 N 
ATOM     10  C   UNL     1       1.178   8.870  20.995  0.00  0.00    +0.000 A 
ATOM     11  N   UNL     1       0.871  10.016  20.423  0.00  0.00    +0.000 NA
ATOM     12  H   UNL     1       0.939   8.253  23.042  0.00  0.00    +0.000 HD
BRANCH   7  16
ATOM     13  C   UNL     1      -0.080  14.843  18.575  0.00  0.00    +0.000 C 
ATOM     14  C   UNL     1      -0.291  14.115  19.868  0.00  0.00    +0.000 A 
ATOM     15  C   UNL     1       0.165  12.812  20.030  0.00  0.00    +0.000 A 
ATOM     16  C   UNL     1      -0.073  12.158  21.241  0.00  0.00    +0.000 A 
ATOM     17  C   UNL     1      -0.756  12.837  22.250  0.00  0.00    +0.000 A 
ATOM     18  C   UNL     1      -1.163  14.134  22.007  0.00  0.00    +0.000 A 
ATOM     19  N   UNL     1      -0.946  14.783  20.844  0.00  0.00    +0.000 NA
ENDBRANCH   7  16
ENDBRANCH   1  10
BRANCH   5  20
ATOM     20  C   UNL     1       2.134   4.115  21.237  0.00  0.00    +0.000 C 
ATOM     21  N   UNL     1       2.117   3.136  21.864  0.00  0.00    +0.000 NA
ENDBRANCH   5  20
BRANCH   4  22
ATOM     22  O   UNL     1       3.190   4.302  18.352  0.00  0.00    +0.000 OA
BRANCH  22  23
ATOM     23  C   UNL     1       4.553   3.930  18.549  0.00  0.00    +0.000 C 
BRANCH  23  24
ATOM     24  C   UNL     1       5.389   5.144  18.940  0.00  0.00    +0.000 C 
BRANCH  24  25
ATOM     25  O   UNL     1       6.692   4.675  19.291  0.00  0.00    +0.000 OA
BRANCH  25  26
ATOM     26  C   UNL     1       7.720   5.346  18.573  0.00  0.00    +0.000 C 
BRANCH  26  27
ATOM     27  C   UNL     1       7.169   5.827  17.235  0.00  0.00    +0.000 C 
BRANCH  27  28
ATOM     28  O   UNL     1       7.659   4.978  16.197  0.00  0.00    +0.000 OA
BRANCH  28  29
ATOM     29  C   UNL     1       6.593   4.403  15.438  0.00  0.00    +0.000 C 
BRANCH  29  30
ATOM     30  C   UNL     1       6.883   4.615  13.961  0.00  0.00    +0.000 C 
ATOM     31 CL   UNL     1       5.817   3.615  12.952  0.00  0.00    +0.000 Cl
ENDBRANCH  29  30
ENDBRANCH  28  29
ENDBRANCH  27  28
ENDBRANCH  26  27
ENDBRANCH  25  26
ENDBRANCH  24  25
ENDBRANCH  23  24
ENDBRANCH  22  23
ENDBRANCH   4  22
TORSDOF 12
ENDMDL
MODEL 8
REMARK VINA RESULT:      -6.7      2.857      3.618
REMARK  Name = 
REMARK  13 active torsions:
REMARK  status: ('A' for Active; 'I' for Inactive)
REMARK    1  A    between atoms: C_1  and  C_2
REMARK    2  A    between atoms: C_4  and  C_5
REMARK    3  A    between atoms: C_8  and  C_9
REMARK    4  A    between atoms: C_12  and  O_13
REMARK    5  A    between atoms: O_13  and  C_14
REMARK    6  A    between atoms: C_14  and  C_15
REMARK    7  A    between atoms: C_15  and  O_16
REMARK    8  A    between atoms: O_16  and  C_17
REMARK    9  A    between atoms: C_17  and  C_18
REMARK   10  A    between atoms: C_18  and  O_19
REMARK   11  A    between atoms: O_19  and  C_20
REMARK   12  A    between atoms: C_20  and  C_21
REMARK   13  A    between atoms: C_23  and  C_24
REMARK                            x       y       z     vdW  Elec       q    Type
REMARK                         _______ _______ _______ _____ _____    ______ ____
ROOT
ATOM      1  C   UNL     1       1.596   7.889  20.373  0.00  0.00    +0.000 A 
ATOM      2  C   UNL     1       2.135   8.186  19.120  0.00  0.00    +0.000 A 
ATOM      3  C   UNL     1       2.736   7.181  18.358  0.00  0.00    +0.000 A 
ATOM      4  C   UNL     1       2.789   5.854  18.808  0.00  0.00    +0.000 A 
ATOM      5  C   UNL     1       2.269   5.554  20.076  0.00  0.00    +0.000 A 
ATOM      6  C   UNL     1       1.678   6.574  20.842  0.00  0.00    +0.000 A 
ENDROOT
BRANCH   1  10
ATOM      7  C   UNL     1      -0.323  10.445  21.933  0.00  0.00    +0.000 A 
ATOM      8  N   UNL     1       0.393  10.091  23.011  0.00  0.00    +0.000 NA
ATOM      9  N   UNL     1       1.159   9.107  22.521  0.00  0.00    +0.000 N 
ATOM     10  C   UNL     1       0.924   8.888  21.194  0.00  0.00    +0.000 A 
ATOM     11  N   UNL     1      -0.021   9.718  20.805  0.00  0.00    +0.000 NA
ATOM     12  H   UNL     1       1.796   8.621  23.142  0.00  0.00    +0.000 HD
BRANCH   7  16
ATOM     13  C   UNL     1      -3.926  13.027  24.226  0.00  0.00    +0.000 C 
ATOM     14  C   UNL     1      -3.080  12.729  23.025  0.00  0.00    +0.000 A 
ATOM     15  C   UNL     1      -2.124  11.721  23.064  0.00  0.00    +0.000 A 
ATOM     16  C   UNL     1      -1.337  11.490  21.933  0.00  0.00    +0.000 A 
ATOM     17  C   UNL     1      -1.541  12.277  20.799  0.00  0.00    +0.000 A 
ATOM     18  C   UNL     1      -2.522  13.250  20.845  0.00  0.00    +0.000 A 
ATOM     19  N   UNL     1      -3.290  13.491  21.928  0.00  0.00    +0.000 NA
ENDBRANCH   7  16
ENDBRANCH   1  10
BRANCH   5  20
ATOM     20  C   UNL     1       2.285   4.255  20.674  0.00  0.00    +0.000 C 
ATOM     21  N   UNL     1       2.263   3.218  21.198  0.00  0.00    +0.000 NA
ENDBRANCH   5  20
BRANCH   4  22
ATOM     22  O   UNL     1       3.388   5.015  17.903  0.00  0.00    +0.000 OA
BRANCH  22  23
ATOM     23  C   UNL     1       4.610   4.392  18.290  0.00  0.00    +0.000 C 
BRANCH  23  24
ATOM     24  C   UNL     1       5.786   4.998  17.531  0.00  0.00    +0.000 C 
BRANCH  24  25
ATOM     25  O   UNL     1       5.471   4.948  16.139  0.00  0.00    +0.000 OA
BRANCH  25  26
ATOM     26  C   UNL     1       6.082   3.843  15.485  0.00  0.00    +0.000 C 
BRANCH  26  27
ATOM     27  C   UNL     1       6.253   4.166  14.004  0.00  0.00    +0.000 C 
BRANCH  27  28
ATOM     28  O   UNL     1       5.030   3.886  13.322  0.00  0.00    +0.000 OA
BRANCH  28  29
ATOM     29  C   UNL     1       5.263   3.283  12.047  0.00  0.00    +0.000 C 
BRANCH  29  30
ATOM     30  C   UNL     1       6.763   3.140  11.847  0.00  0.00    +0.000 C 
ATOM     31 CL   UNL     1       7.156   1.596  11.062  0.00  0.00    +0.000 Cl
ENDBRANCH  29  30
ENDBRANCH  28  29
ENDBRANCH  27  28
ENDBRANCH  26  27
ENDBRANCH  25  26
ENDBRANCH  24  25
ENDBRANCH  23  24
ENDBRANCH  22  23
ENDBRANCH   4  22
TORSDOF 12
ENDMDL
MODEL 9
REMARK VINA RESULT:      -6.7      3.581      4.843
REMARK  Name = 
REMARK  13 active torsions:
REMARK  status: ('A' for Active; 'I' for Inactive)
REMARK    1  A    between atoms: C_1  and  C_2
REMARK    2  A    between atoms: C_4  and  C_5
REMARK    3  A    between atoms: C_8  and  C_9
REMARK    4  A    between atoms: C_12  and  O_13
REMARK    5  A    between atoms: O_13  and  C_14
REMARK    6  A    between atoms: C_14  and  C_15
REMARK    7  A    between atoms: C_15  and  O_16
REMARK    8  A    between atoms: O_16  and  C_17
REMARK    9  A    between atoms: C_17  and  C_18
REMARK   10  A    between atoms: C_18  and  O_19
REMARK   11  A    between atoms: O_19  and  C_20
REMARK   12  A    between atoms: C_20  and  C_21
REMARK   13  A    between atoms: C_23  and  C_24
REMARK                            x       y       z     vdW  Elec       q    Type
REMARK                         _______ _______ _______ _____ _____    ______ ____
ROOT
ATOM      1  C   UNL     1       1.217   8.274  20.657  0.00  0.00    +0.000 A 
ATOM      2  C   UNL     1       1.725   8.557  19.389  0.00  0.00    +0.000 A 
ATOM      3  C   UNL     1       2.350   7.554  18.642  0.00  0.00    +0.000 A 
ATOM      4  C   UNL     1       2.458   6.243  19.126  0.00  0.00    +0.000 A 
ATOM      5  C   UNL     1       1.970   5.957  20.410  0.00  0.00    +0.000 A 
ATOM      6  C   UNL     1       1.354   6.976  21.158  0.00  0.00    +0.000 A 
ENDROOT
BRANCH   1  10
ATOM      7  C   UNL     1      -0.665  10.894  22.157  0.00  0.00    +0.000 A 
ATOM      8  N   UNL     1      -0.180  10.364  23.290  0.00  0.00    +0.000 NA
ATOM      9  N   UNL     1       0.553   9.343  22.826  0.00  0.00    +0.000 N 
ATOM     10  C   UNL     1       0.523   9.270  21.463  0.00  0.00    +0.000 A 
ATOM     11  N   UNL     1      -0.254  10.237  21.020  0.00  0.00    +0.000 NA
ATOM     12  H   UNL     1       1.023   8.733  23.485  0.00  0.00    +0.000 HD
BRANCH   7  16
ATOM     13  C   UNL     1      -3.257  14.503  24.427  0.00  0.00    +0.000 C 
ATOM     14  C   UNL     1      -2.812  13.779  23.193  0.00  0.00    +0.000 A 
ATOM     15  C   UNL     1      -1.966  12.680  23.282  0.00  0.00    +0.000 A 
ATOM     16  C   UNL     1      -1.553  12.047  22.107  0.00  0.00    +0.000 A 
ATOM     17  C   UNL     1      -2.007  12.537  20.883  0.00  0.00    +0.000 A 
ATOM     18  C   UNL     1      -2.855  13.628  20.889  0.00  0.00    +0.000 A 
ATOM     19  N   UNL     1      -3.263  14.256  22.011  0.00  0.00    +0.000 NA
ENDBRANCH   7  16
ENDBRANCH   1  10
BRANCH   5  20
ATOM     20  C   UNL     1       2.041   4.677  21.041  0.00  0.00    +0.000 C 
ATOM     21  N   UNL     1       2.148   3.629  21.532  0.00  0.00    +0.000 NA
ENDBRANCH   5  20
BRANCH   4  22
ATOM     22  O   UNL     1       3.073   5.402  18.233  0.00  0.00    +0.000 OA
BRANCH  22  23
ATOM     23  C   UNL     1       2.268   4.407  17.604  0.00  0.00    +0.000 C 
BRANCH  23  24
ATOM     24  C   UNL     1       3.078   3.139  17.357  0.00  0.00    +0.000 C 
BRANCH  24  25
ATOM     25  O   UNL     1       4.443   3.435  17.657  0.00  0.00    +0.000 OA
BRANCH  25  26
ATOM     26  C   UNL     1       5.155   3.914  16.523  0.00  0.00    +0.000 C 
BRANCH  26  27
ATOM     27  C   UNL     1       6.513   4.446  16.968  0.00  0.00    +0.000 C 
BRANCH  27  28
ATOM     28  O   UNL     1       6.596   4.375  18.392  0.00  0.00    +0.000 OA
BRANCH  28  29
ATOM     29  C   UNL     1       6.590   5.676  18.986  0.00  0.00    +0.000 C 
BRANCH  29  30
ATOM     30  C   UNL     1       7.946   6.322  18.746  0.00  0.00    +0.000 C 
ATOM     31 CL   UNL     1       7.787   7.784  17.752  0.00  0.00    +0.000 Cl
ENDBRANCH  29  30
ENDBRANCH  28  29
ENDBRANCH  27  28
ENDBRANCH  26  27
ENDBRANCH  25  26
ENDBRANCH  24  25
ENDBRANCH  23  24
ENDBRANCH  22  23
ENDBRANCH   4  22
TORSDOF 12
ENDMDL
