MODEL 1
REMARK VINA RESULT:      -8.6      0.000      0.000
REMARK  Name = 
REMARK  6 active torsions:
REMARK  status: ('A' for Active; 'I' for Inactive)
REMARK    1  A    between atoms: C_2  and  C_12
REMARK    2  A    between atoms: N_3  and  C_4
REMARK    3  A    between atoms: C_4  and  C_5
REMARK    4  A    between atoms: C_5  and  C_6
REMARK    5  A    between atoms: C_16  and  S_17
REMARK    6  A    between atoms: S_17  and  N_20
REMARK                            x       y       z     vdW  Elec       q    Type
REMARK                         _______ _______ _______ _____ _____    ______ ____
ROOT
ATOM      1  C   UNL     1       2.768   7.036  19.169  0.00  0.00    +0.000 A 
ATOM      2  C   UNL     1       2.737   7.914  18.077  0.00  0.00    +0.000 A 
ATOM      3  C   UNL     1       3.697   7.807  17.064  0.00  0.00    +0.000 A 
ATOM      4  C   UNL     1       4.690   6.818  17.130  0.00  0.00    +0.000 A 
ATOM      5  C   UNL     1       4.727   5.937  18.215  0.00  0.00    +0.000 A 
ATOM      6  C   UNL     1       3.782   6.054  19.250  0.00  0.00    +0.000 A 
ENDROOT
BRANCH   1   8
ATOM      7  O   UNL     1       1.457   6.188  20.935  0.00  0.00    +0.000 OA
ATOM      8  C   UNL     1       1.772   7.173  20.277  0.00  0.00    +0.000 C 
ATOM      9  N   UNL     1       1.224   8.431  20.483  0.00  0.00    +0.000 N 
ATOM     10  H   UNL     1       1.332   9.130  19.758  0.00  0.00    +0.000 HD
BRANCH   9  11
ATOM     11  C   UNL     1       0.177   8.618  21.484  0.00  0.00    +0.000 C 
BRANCH  11  12
ATOM     12  C   UNL     1       0.452   9.777  22.445  0.00  0.00    +0.000 C 
BRANCH  12  13
ATOM     13  C   UNL     1      -0.517  10.911  22.272  0.00  0.00    +0.000 A 
ATOM     14  C   UNL     1      -0.422  11.788  21.171  0.00  0.00    +0.000 A 
ATOM     15  C   UNL     1      -1.331  12.825  21.063  0.00  0.00    +0.000 A 
ATOM     16  N   UNL     1      -2.319  13.062  21.956  0.00  0.00    +0.000 NA
ATOM     17  C   UNL     1      -2.394  12.222  23.009  0.00  0.00    +0.000 A 
ATOM     18  C   UNL     1      -1.532  11.155  23.204  0.00  0.00    +0.000 A 
ENDBRANCH  12  13
ENDBRANCH  11  12
ENDBRANCH   9  11
ENDBRANCH   1   8
BRANCH   5  19
ATOM     19  S   UNL     1       6.026   4.683  18.258  0.00  0.00    +0.000 S 
ATOM     20  O   UNL     1       6.607   4.623  16.942  0.00  0.00    +0.000 OA
ATOM     21  O   UNL     1       6.823   4.913  19.437  0.00  0.00    +0.000 OA
BRANCH  19  22
ATOM     22  N   UNL     1       5.138   3.224  18.502  0.00  0.00    +0.000 NA
ATOM     23  C   UNL     1       4.051   3.075  17.490  0.00  0.00    +0.000 C 
ATOM     24  C   UNL     1       3.162   1.916  17.840  0.00  0.00    +0.000 C 
ATOM     25  C   UNL     1       2.455   2.356  19.077  0.00  0.00    +0.000 A 
ATOM     26  C   UNL     1       1.091   2.626  19.111  0.00  0.00    +0.000 A 
ATOM     27  C   UNL     1       0.479   2.881  20.328  0.00  0.00    +0.000 A 
ATOM     28  C   UNL     1       1.227   2.782  21.501  0.00  0.00    +0.000 A 
ATOM     29  C   UNL     1       2.624   2.674  21.439  0.00  0.00    +0.000 A 
ATOM     30  C   UNL     1       3.256   2.615  20.192  0.00  0.00    +0.000 A 
ATOM     31  C   UNL     1       4.738   2.912  19.954  0.00  0.00    +0.000 C 
ENDBRANCH  19  22
ENDBRANCH   5  19
TORSDOF 6
ENDMDL
MODEL 2
REMARK VINA RESULT:      -8.6      0.649      1.065
REMARK  Name = 
REMARK  6 active torsions:
REMARK  status: ('A' for Active; 'I' for Inactive)
REMARK    1  A    between atoms: C_2  and  C_12
REMARK    2  A    between atoms: N_3  and  C_4
REMARK    3  A    between atoms: C_4  and  C_5
REMARK    4  A    between atoms: C_5  and  C_6
REMARK    5  A    between atoms: C_16  and  S_17
REMARK    6  A    between atoms: S_17  and  N_20
REMARK                            x       y       z     vdW  Elec       q    Type
REMARK                         _______ _______ _______ _____ _____    ______ ____
ROOT
ATOM      1  C   UNL     1       2.747   7.096  19.272  0.00  0.00    +0.000 A 
ATOM      2  C   UNL     1       2.615   7.975  18.188  0.00  0.00    +0.000 A 
ATOM      3  C   UNL     1       3.461   7.855  17.080  0.00  0.00    +0.000 A 
ATOM      4  C   UNL     1       4.441   6.852  17.042  0.00  0.00    +0.000 A 
ATOM      5  C   UNL     1       4.579   5.970  18.119  0.00  0.00    +0.000 A 
ATOM      6  C   UNL     1       3.749   6.100  19.247  0.00  0.00    +0.000 A 
ENDROOT
BRANCH   1   8
ATOM      7  O   UNL     1       1.229   6.289  20.883  0.00  0.00    +0.000 OA
ATOM      8  C   UNL     1       1.875   7.247  20.478  0.00  0.00    +0.000 C 
ATOM      9  N   UNL     1       1.822   8.503  21.067  0.00  0.00    +0.000 N 
ATOM     10  H   UNL     1       2.172   9.297  20.545  0.00  0.00    +0.000 HD
BRANCH   9  11
ATOM     11  C   UNL     1       0.920   8.747  22.190  0.00  0.00    +0.000 C 
BRANCH  11  12
ATOM     12  C   UNL     1      -0.419   9.361  21.774  0.00  0.00    +0.000 C 
BRANCH  12  13
ATOM     13  C   UNL     1      -0.458  10.848  21.976  0.00  0.00    +0.000 A 
ATOM     14  C   UNL     1      -1.295  11.428  22.953  0.00  0.00    +0.000 A 
ATOM     15  C   UNL     1      -1.304  12.804  23.092  0.00  0.00    +0.000 A 
ATOM     16  N   UNL     1      -0.556  13.646  22.342  0.00  0.00    +0.000 NA
ATOM     17  C   UNL     1       0.232  13.080  21.406  0.00  0.00    +0.000 A 
ATOM     18  C   UNL     1       0.312  11.714  21.191  0.00  0.00    +0.000 A 
ENDBRANCH  12  13
ENDBRANCH  11  12
ENDBRANCH   9  11
ENDBRANCH   1   8
BRANCH   5  19
ATOM     19  S   UNL     1       5.856   4.696  18.026  0.00  0.00    +0.000 S 
ATOM     20  O   UNL     1       6.334   4.666  16.668  0.00  0.00    +0.000 OA
ATOM     21  O   UNL     1       6.745   4.881  19.146  0.00  0.00    +0.000 OA
BRANCH  19  22
ATOM     22  N   UNL     1       4.966   3.243  18.297  0.00  0.00    +0.000 NA
ATOM     23  C   UNL     1       3.801   3.141  17.369  0.00  0.00    +0.000 C 
ATOM     24  C   UNL     1       2.923   1.985  17.754  0.00  0.00    +0.000 C 
ATOM     25  C   UNL     1       2.322   2.397  19.055  0.00  0.00    +0.000 A 
ATOM     26  C   UNL     1       0.969   2.686  19.203  0.00  0.00    +0.000 A 
ATOM     27  C   UNL     1       0.459   2.913  20.472  0.00  0.00    +0.000 A 
ATOM     28  C   UNL     1       1.294   2.768  21.579  0.00  0.00    +0.000 A 
ATOM     29  C   UNL     1       2.680   2.641  21.404  0.00  0.00    +0.000 A 
ATOM     30  C   UNL     1       3.211   2.611  20.110  0.00  0.00    +0.000 A 
ATOM     31  C   UNL     1       4.675   2.894  19.765  0.00  0.00    +0.000 C 
ENDBRANCH  19  22
ENDBRANCH   5  19
TORSDOF 6
ENDMDL
MODEL 3
REMARK VINA RESULT:      -8.4      1.159      1.497
REMARK  Name = 
REMARK  6 active torsions:
REMARK  status: ('A' for Active; 'I' for Inactive)
REMARK    1  A    between atoms: C_2  and  C_12
REMARK    2  A    between atoms: N_3  and  C_4
REMARK    3  A    between atoms: C_4  and  C_5
REMARK    4  A    between atoms: C_5  and  C_6
REMARK    5  A    between atoms: C_16  and  S_17
REMARK    6  A    between atoms: S_17  and  N_20
REMARK                            x       y       z     vdW  Elec       q    Type
REMARK                         _______ _______ _______ _____ _____    ______ ____
ROOT
ATOM      1  C   UNL     1       2.769   7.099  19.137  0.00  0.00    +0.000 A 
ATOM      2  C   UNL     1       2.720   7.955  18.029  0.00  0.00    +0.000 A 
ATOM      3  C   UNL     1       3.652   7.816  16.994  0.00  0.00    +0.000 A 
ATOM      4  C   UNL     1       4.635   6.816  17.054  0.00  0.00    +0.000 A 
ATOM      5  C   UNL     1       4.689   5.957  18.156  0.00  0.00    +0.000 A 
ATOM      6  C   UNL     1       3.773   6.107  19.212  0.00  0.00    +0.000 A 
ENDROOT
BRANCH   1   8
ATOM      7  O   UNL     1       1.415   6.288  20.888  0.00  0.00    +0.000 OA
ATOM      8  C   UNL     1       1.804   7.270  20.268  0.00  0.00    +0.000 C 
ATOM      9  N   UNL     1       1.369   8.561  20.537  0.00  0.00    +0.000 N 
ATOM     10  H   UNL     1       1.526   9.279  19.842  0.00  0.00    +0.000 HD
BRANCH   9  11
ATOM     11  C   UNL     1       0.356   8.791  21.563  0.00  0.00    +0.000 C 
BRANCH  11  12
ATOM     12  C   UNL     1       0.149  10.271  21.895  0.00  0.00    +0.000 C 
BRANCH  12  13
ATOM     13  C   UNL     1      -0.082  11.109  20.671  0.00  0.00    +0.000 A 
ATOM     14  C   UNL     1      -0.974  10.692  19.661  0.00  0.00    +0.000 A 
ATOM     15  C   UNL     1      -1.142  11.493  18.546  0.00  0.00    +0.000 A 
ATOM     16  N   UNL     1      -0.499  12.667  18.353  0.00  0.00    +0.000 NA
ATOM     17  C   UNL     1       0.358  13.051  19.321  0.00  0.00    +0.000 A 
ATOM     18  C   UNL     1       0.594  12.318  20.474  0.00  0.00    +0.000 A 
ENDBRANCH  12  13
ENDBRANCH  11  12
ENDBRANCH   9  11
ENDBRANCH   1   8
BRANCH   5  19
ATOM     19  S   UNL     1       5.973   4.687  18.191  0.00  0.00    +0.000 S 
ATOM     20  O   UNL     1       6.558   4.633  16.876  0.00  0.00    +0.000 OA
ATOM     21  O   UNL     1       6.769   4.897  19.374  0.00  0.00    +0.000 OA
BRANCH  19  22
ATOM     22  N   UNL     1       5.069   3.236  18.418  0.00  0.00    +0.000 NA
ATOM     23  C   UNL     1       3.958   3.129  17.426  0.00  0.00    +0.000 C 
ATOM     24  C   UNL     1       3.059   1.975  17.765  0.00  0.00    +0.000 C 
ATOM     25  C   UNL     1       2.385   2.395  19.028  0.00  0.00    +0.000 A 
ATOM     26  C   UNL     1       1.026   2.685  19.097  0.00  0.00    +0.000 A 
ATOM     27  C   UNL     1       0.443   2.919  20.333  0.00  0.00    +0.000 A 
ATOM     28  C   UNL     1       1.214   2.780  21.487  0.00  0.00    +0.000 A 
ATOM     29  C   UNL     1       2.607   2.652  21.393  0.00  0.00    +0.000 A 
ATOM     30  C   UNL     1       3.212   2.615  20.131  0.00  0.00    +0.000 A 
ATOM     31  C   UNL     1       4.693   2.895  19.869  0.00  0.00    +0.000 C 
ENDBRANCH  19  22
ENDBRANCH   5  19
TORSDOF 6
ENDMDL
MODEL 4
REMARK VINA RESULT:      -8.2      5.450      7.577
REMARK  Name = 
REMARK  6 active torsions:
REMARK  status: ('A' for Active; 'I' for Inactive)
REMARK    1  A    between atoms: C_2  and  C_12
REMARK    2  A    between atoms: N_3  and  C_4
REMARK    3  A    between atoms: C_4  and  C_5
REMARK    4  A    between atoms: C_5  and  C_6
REMARK    5  A    between atoms: C_16  and  S_17
REMARK    6  A    between atoms: S_17  and  N_20
REMARK                            x       y       z     vdW  Elec       q    Type
REMARK                         _______ _______ _______ _____ _____    ______ ____
ROOT
ATOM      1  C   UNL     1       7.899   7.567  18.201  0.00  0.00    +0.000 A 
ATOM      2  C   UNL     1       8.326   6.741  19.249  0.00  0.00    +0.000 A 
ATOM      3  C   UNL     1       7.960   5.390  19.271  0.00  0.00    +0.000 A 
ATOM      4  C   UNL     1       7.173   4.851  18.242  0.00  0.00    +0.000 A 
ATOM      5  C   UNL     1       6.745   5.669  17.191  0.00  0.00    +0.000 A 
ATOM      6  C   UNL     1       7.086   7.033  17.175  0.00  0.00    +0.000 A 
ENDROOT
BRANCH   1   8
ATOM      7  O   UNL     1       7.720   9.769  17.380  0.00  0.00    +0.000 OA
ATOM      8  C   UNL     1       8.248   9.022  18.194  0.00  0.00    +0.000 C 
ATOM      9  N   UNL     1       9.197   9.448  19.114  0.00  0.00    +0.000 N 
ATOM     10  H   UNL     1       9.769   8.753  19.576  0.00  0.00    +0.000 HD
BRANCH   9  11
ATOM     11  C   UNL     1       9.656  10.835  19.101  0.00  0.00    +0.000 C 
BRANCH  11  12
ATOM     12  C   UNL     1      10.439  11.207  17.840  0.00  0.00    +0.000 C 
BRANCH  12  13
ATOM     13  C   UNL     1      10.682  12.684  17.728  0.00  0.00    +0.000 A 
ATOM     14  C   UNL     1       9.633  13.610  17.902  0.00  0.00    +0.000 A 
ATOM     15  C   UNL     1       9.906  14.960  17.777  0.00  0.00    +0.000 A 
ATOM     16  N   UNL     1      11.129  15.462  17.492  0.00  0.00    +0.000 NA
ATOM     17  C   UNL     1      12.122  14.567  17.319  0.00  0.00    +0.000 A 
ATOM     18  C   UNL     1      11.949  13.196  17.425  0.00  0.00    +0.000 A 
ENDBRANCH  12  13
ENDBRANCH  11  12
ENDBRANCH   9  11
ENDBRANCH   1   8
BRANCH   5  19
ATOM     19  S   UNL     1       5.731   4.932  15.890  0.00  0.00    +0.000 S 
ATOM     20  O   UNL     1       5.859   5.767  14.724  0.00  0.00    +0.000 OA
ATOM     21  O   UNL     1       6.015   3.519  15.856  0.00  0.00    +0.000 OA
BRANCH  19  22
ATOM     22  N   UNL     1       4.128   5.130  16.498  0.00  0.00    +0.000 NA
ATOM     23  C   UNL     1       4.060   6.243  17.492  0.00  0.00    +0.000 C 
ATOM     24  C   UNL     1       2.716   6.266  18.162  0.00  0.00    +0.000 C 
ATOM     25  C   UNL     1       2.698   5.028  18.994  0.00  0.00    +0.000 A 
ATOM     26  C   UNL     1       2.715   5.054  20.385  0.00  0.00    +0.000 A 
ATOM     27  C   UNL     1       2.544   3.871  21.088  0.00  0.00    +0.000 A 
ATOM     28  C   UNL     1       2.278   2.695  20.388  0.00  0.00    +0.000 A 
ATOM     29  C   UNL     1       2.429   2.655  18.994  0.00  0.00    +0.000 A 
ATOM     30  C   UNL     1       2.798   3.816  18.307  0.00  0.00    +0.000 A 
ATOM     31  C   UNL     1       3.394   3.840  16.898  0.00  0.00    +0.000 C 
ENDBRANCH  19  22
ENDBRANCH   5  19
TORSDOF 6
ENDMDL
MODEL 5
REMARK VINA RESULT:      -8.2      4.416      7.858
REMARK  Name = 
REMARK  6 active torsions:
REMARK  status: ('A' for Active; 'I' for Inactive)
REMARK    1  A    between atoms: C_2  and  C_12
REMARK    2  A    between atoms: N_3  and  C_4
REMARK    3  A    between atoms: C_4  and  C_5
REMARK    4  A    between atoms: C_5  and  C_6
REMARK    5  A    between atoms: C_16  and  S_17
REMARK    6  A    between atoms: S_17  and  N_20
REMARK                            x       y       z     vdW  Elec       q    Type
REMARK                         _______ _______ _______ _____ _____    ______ ____
ROOT
ATOM      1  C   UNL     1       6.311   5.524  17.852  0.00  0.00    +0.000 A 
ATOM      2  C   UNL     1       6.454   4.574  16.833  0.00  0.00    +0.000 A 
ATOM      3  C   UNL     1       5.348   3.824  16.414  0.00  0.00    +0.000 A 
ATOM      4  C   UNL     1       4.092   4.023  17.004  0.00  0.00    +0.000 A 
ATOM      5  C   UNL     1       3.941   4.972  18.021  0.00  0.00    +0.000 A 
ATOM      6  C   UNL     1       5.052   5.711  18.465  0.00  0.00    +0.000 A 
ENDROOT
BRANCH   1   8
ATOM      7  O   UNL     1       8.312   5.760  19.077  0.00  0.00    +0.000 OA
ATOM      8  C   UNL     1       7.498   6.298  18.336  0.00  0.00    +0.000 C 
ATOM      9  N   UNL     1       7.596   7.623  17.933  0.00  0.00    +0.000 N 
ATOM     10  H   UNL     1       6.777   8.070  17.539  0.00  0.00    +0.000 HD
BRANCH   9  11
ATOM     11  C   UNL     1       8.675   8.464  18.442  0.00  0.00    +0.000 C 
BRANCH  11  12
ATOM     12  C   UNL     1       8.544   9.935  18.040  0.00  0.00    +0.000 C 
BRANCH  12  13
ATOM     13  C   UNL     1       9.536  10.815  18.744  0.00  0.00    +0.000 A 
ATOM     14  C   UNL     1       9.494  10.985  20.144  0.00  0.00    +0.000 A 
ATOM     15  C   UNL     1      10.422  11.817  20.744  0.00  0.00    +0.000 A 
ATOM     16  N   UNL     1      11.382  12.490  20.070  0.00  0.00    +0.000 NA
ATOM     17  C   UNL     1      11.407  12.327  18.732  0.00  0.00    +0.000 A 
ATOM     18  C   UNL     1      10.522  11.516  18.040  0.00  0.00    +0.000 A 
ENDBRANCH  12  13
ENDBRANCH  11  12
ENDBRANCH   9  11
ENDBRANCH   1   8
BRANCH   5  19
ATOM     19  S   UNL     1       2.304   5.192  18.753  0.00  0.00    +0.000 S 
ATOM     20  O   UNL     1       1.368   5.348  17.669  0.00  0.00    +0.000 OA
ATOM     21  O   UNL     1       2.136   4.183  19.769  0.00  0.00    +0.000 OA
BRANCH  19  22
ATOM     22  N   UNL     1       2.443   6.718  19.545  0.00  0.00    +0.000 NA
ATOM     23  C   UNL     1       1.553   6.789  20.742  0.00  0.00    +0.000 C 
ATOM     24  C   UNL     1       1.528   8.185  21.295  0.00  0.00    +0.000 C 
ATOM     25  C   UNL     1       0.811   8.979  20.256  0.00  0.00    +0.000 A 
ATOM     26  C   UNL     1      -0.452   9.526  20.463  0.00  0.00    +0.000 A 
ATOM     27  C   UNL     1      -0.987  10.377  19.508  0.00  0.00    +0.000 A 
ATOM     28  C   UNL     1      -0.217  10.730  18.400  0.00  0.00    +0.000 A 
ATOM     29  C   UNL     1       0.976  10.046  18.125  0.00  0.00    +0.000 A 
ATOM     30  C   UNL     1       1.412   9.043  18.997  0.00  0.00    +0.000 A 
ATOM     31  C   UNL     1       2.425   7.956  18.634  0.00  0.00    +0.000 C 
ENDBRANCH  19  22
ENDBRANCH   5  19
TORSDOF 6
ENDMDL
MODEL 6
REMARK VINA RESULT:      -8.2      0.947      1.057
REMARK  Name = 
REMARK  6 active torsions:
REMARK  status: ('A' for Active; 'I' for Inactive)
REMARK    1  A    between atoms: C_2  and  C_12
REMARK    2  A    between atoms: N_3  and  C_4
REMARK    3  A    between atoms: C_4  and  C_5
REMARK    4  A    between atoms: C_5  and  C_6
REMARK    5  A    between atoms: C_16  and  S_17
REMARK    6  A    between atoms: S_17  and  N_20
REMARK                            x       y       z     vdW  Elec       q    Type
REMARK                         _______ _______ _______ _____ _____    ______ ____
ROOT
ATOM      1  C   UNL     1       3.183   7.293  18.275  0.00  0.00    +0.000 A 
ATOM      2  C   UNL     1       3.372   7.822  16.992  0.00  0.00    +0.000 A 
ATOM      3  C   UNL     1       4.437   7.377  16.200  0.00  0.00    +0.000 A 
ATOM      4  C   UNL     1       5.317   6.395  16.681  0.00  0.00    +0.000 A 
ATOM      5  C   UNL     1       5.133   5.862  17.961  0.00  0.00    +0.000 A 
ATOM      6  C   UNL     1       4.081   6.322  18.772  0.00  0.00    +0.000 A 
ENDROOT
BRANCH   1   8
ATOM      7  O   UNL     1       1.334   8.682  18.732  0.00  0.00    +0.000 OA
ATOM      8  C   UNL     1       2.073   7.796  19.144  0.00  0.00    +0.000 C 
ATOM      9  N   UNL     1       1.959   7.239  20.410  0.00  0.00    +0.000 N 
ATOM     10  H   UNL     1       2.738   6.707  20.776  0.00  0.00    +0.000 HD
BRANCH   9  11
ATOM     11  C   UNL     1       0.959   7.748  21.345  0.00  0.00    +0.000 C 
BRANCH  11  12
ATOM     12  C   UNL     1       1.399   9.019  22.076  0.00  0.00    +0.000 C 
BRANCH  12  13
ATOM     13  C   UNL     1       0.332  10.076  22.085  0.00  0.00    +0.000 A 
ATOM     14  C   UNL     1       0.225  11.013  21.036  0.00  0.00    +0.000 A 
ATOM     15  C   UNL     1      -0.767  11.974  21.098  0.00  0.00    +0.000 A 
ATOM     16  N   UNL     1      -1.655  12.082  22.112  0.00  0.00    +0.000 NA
ATOM     17  C   UNL     1      -1.538  11.187  23.113  0.00  0.00    +0.000 A 
ATOM     18  C   UNL     1      -0.579  10.187  23.143  0.00  0.00    +0.000 A 
ENDBRANCH  12  13
ENDBRANCH  11  12
ENDBRANCH   9  11
ENDBRANCH   1   8
BRANCH   5  19
ATOM     19  S   UNL     1       6.292   4.602  18.539  0.00  0.00    +0.000 S 
ATOM     20  O   UNL     1       7.234   4.366  17.475  0.00  0.00    +0.000 OA
ATOM     21  O   UNL     1       6.715   4.969  19.868  0.00  0.00    +0.000 OA
BRANCH  19  22
ATOM     22  N   UNL     1       5.296   3.200  18.673  0.00  0.00    +0.000 NA
ATOM     23  C   UNL     1       4.279   3.152  17.581  0.00  0.00    +0.000 C 
ATOM     24  C   UNL     1       3.293   2.047  17.830  0.00  0.00    +0.000 C 
ATOM     25  C   UNL     1       2.527   2.500  19.026  0.00  0.00    +0.000 A 
ATOM     26  C   UNL     1       1.184   2.861  18.970  0.00  0.00    +0.000 A 
ATOM     27  C   UNL     1       0.502   3.124  20.148  0.00  0.00    +0.000 A 
ATOM     28  C   UNL     1       1.154   2.944  21.368  0.00  0.00    +0.000 A 
ATOM     29  C   UNL     1       2.541   2.744  21.403  0.00  0.00    +0.000 A 
ATOM     30  C   UNL     1       3.258   2.676  20.203  0.00  0.00    +0.000 A 
ATOM     31  C   UNL     1       4.770   2.879  20.081  0.00  0.00    +0.000 C 
ENDBRANCH  19  22
ENDBRANCH   5  19
TORSDOF 6
ENDMDL
MODEL 7
REMARK VINA RESULT:      -8.0      4.786      6.246
REMARK  Name = 
REMARK  6 active torsions:
REMARK  status: ('A' for Active; 'I' for Inactive)
REMARK    1  A    between atoms: C_2  and  C_12
REMARK    2  A    between atoms: N_3  and  C_4
REMARK    3  A    between atoms: C_4  and  C_5
REMARK    4  A    between atoms: C_5  and  C_6
REMARK    5  A    between atoms: C_16  and  S_17
REMARK    6  A    between atoms: S_17  and  N_20
REMARK                            x       y       z     vdW  Elec       q    Type
REMARK                         _______ _______ _______ _____ _____    ______ ____
ROOT
ATOM      1  C   UNL     1       7.801   7.515  18.226  0.00  0.00    +0.000 A 
ATOM      2  C   UNL     1       8.367   6.670  19.189  0.00  0.00    +0.000 A 
ATOM      3  C   UNL     1       7.919   5.350  19.315  0.00  0.00    +0.000 A 
ATOM      4  C   UNL     1       6.907   4.862  18.475  0.00  0.00    +0.000 A 
ATOM      5  C   UNL     1       6.338   5.699  17.510  0.00  0.00    +0.000 A 
ATOM      6  C   UNL     1       6.765   7.034  17.394  0.00  0.00    +0.000 A 
ENDROOT
BRANCH   1   8
ATOM      7  O   UNL     1       7.905   9.608  17.147  0.00  0.00    +0.000 OA
ATOM      8  C   UNL     1       8.244   8.940  18.116  0.00  0.00    +0.000 C 
ATOM      9  N   UNL     1       9.061   9.428  19.127  0.00  0.00    +0.000 N 
ATOM     10  H   UNL     1       9.505   8.766  19.752  0.00  0.00    +0.000 HD
BRANCH   9  11
ATOM     11  C   UNL     1       9.609  10.778  19.037  0.00  0.00    +0.000 C 
BRANCH  11  12
ATOM     12  C   UNL     1      10.125  11.318  20.373  0.00  0.00    +0.000 C 
BRANCH  12  13
ATOM     13  C   UNL     1       9.093  12.125  21.106  0.00  0.00    +0.000 A 
ATOM     14  C   UNL     1       8.757  13.430  20.688  0.00  0.00    +0.000 A 
ATOM     15  C   UNL     1       7.809  14.137  21.404  0.00  0.00    +0.000 A 
ATOM     16  N   UNL     1       7.172  13.657  22.497  0.00  0.00    +0.000 NA
ATOM     17  C   UNL     1       7.508  12.413  22.892  0.00  0.00    +0.000 A 
ATOM     18  C   UNL     1       8.444  11.625  22.241  0.00  0.00    +0.000 A 
ENDBRANCH  12  13
ENDBRANCH  11  12
ENDBRANCH   9  11
ENDBRANCH   1   8
BRANCH   5  19
ATOM     19  S   UNL     1       5.036   5.027  16.452  0.00  0.00    +0.000 S 
ATOM     20  O   UNL     1       5.064   5.767  15.217  0.00  0.00    +0.000 OA
ATOM     21  O   UNL     1       5.138   3.590  16.486  0.00  0.00    +0.000 OA
BRANCH  19  22
ATOM     22  N   UNL     1       3.596   5.472  17.292  0.00  0.00    +0.000 NA
ATOM     23  C   UNL     1       3.910   6.191  18.562  0.00  0.00    +0.000 C 
ATOM     24  C   UNL     1       2.664   6.385  19.378  0.00  0.00    +0.000 C 
ATOM     25  C   UNL     1       2.294   5.008  19.816  0.00  0.00    +0.000 A 
ATOM     26  C   UNL     1       2.368   4.594  21.143  0.00  0.00    +0.000 A 
ATOM     27  C   UNL     1       1.865   3.351  21.495  0.00  0.00    +0.000 A 
ATOM     28  C   UNL     1       1.224   2.576  20.528  0.00  0.00    +0.000 A 
ATOM     29  C   UNL     1       1.305   2.931  19.174  0.00  0.00    +0.000 A 
ATOM     30  C   UNL     1       1.990   4.094  18.806  0.00  0.00    +0.000 A 
ATOM     31  C   UNL     1       2.514   4.385  17.398  0.00  0.00    +0.000 C 
ENDBRANCH  19  22
ENDBRANCH   5  19
TORSDOF 6
ENDMDL
MODEL 8
REMARK VINA RESULT:      -7.9      4.830      6.270
REMARK  Name = 
REMARK  6 active torsions:
REMARK  status: ('A' for Active; 'I' for Inactive)
REMARK    1  A    between atoms: C_2  and  C_12
REMARK    2  A    between atoms: N_3  and  C_4
REMARK    3  A    between atoms: C_4  and  C_5
REMARK    4  A    between atoms: C_5  and  C_6
REMARK    5  A    between atoms: C_16  and  S_17
REMARK    6  A    between atoms: S_17  and  N_20
REMARK                            x       y       z     vdW  Elec       q    Type
REMARK                         _______ _______ _______ _____ _____    ______ ____
ROOT
ATOM      1  C   UNL     1       7.985   7.707  18.286  0.00  0.00    +0.000 A 
ATOM      2  C   UNL     1       8.393   6.885  19.344  0.00  0.00    +0.000 A 
ATOM      3  C   UNL     1       8.026   5.534  19.364  0.00  0.00    +0.000 A 
ATOM      4  C   UNL     1       7.256   4.993  18.324  0.00  0.00    +0.000 A 
ATOM      5  C   UNL     1       6.846   5.807  17.263  0.00  0.00    +0.000 A 
ATOM      6  C   UNL     1       7.189   7.171  17.249  0.00  0.00    +0.000 A 
ENDROOT
BRANCH   1   8
ATOM      7  O   UNL     1       7.869   9.896  17.419  0.00  0.00    +0.000 OA
ATOM      8  C   UNL     1       8.336   9.162  18.281  0.00  0.00    +0.000 C 
ATOM      9  N   UNL     1       9.217   9.604  19.258  0.00  0.00    +0.000 N 
ATOM     10  H   UNL     1       9.754   8.916  19.772  0.00  0.00    +0.000 HD
BRANCH   9  11
ATOM     11  C   UNL     1       9.678  10.989  19.256  0.00  0.00    +0.000 C 
BRANCH  11  12
ATOM     12  C   UNL     1      10.102  11.494  20.638  0.00  0.00    +0.000 C 
BRANCH  12  13
ATOM     13  C   UNL     1       8.993  12.208  21.355  0.00  0.00    +0.000 A 
ATOM     14  C   UNL     1       8.322  11.607  22.441  0.00  0.00    +0.000 A 
ATOM     15  C   UNL     1       7.300  12.301  23.061  0.00  0.00    +0.000 A 
ATOM     16  N   UNL     1       6.890  13.536  22.691  0.00  0.00    +0.000 NA
ATOM     17  C   UNL     1       7.533  14.097  21.647  0.00  0.00    +0.000 A 
ATOM     18  C   UNL     1       8.569  13.483  20.962  0.00  0.00    +0.000 A 
ENDBRANCH  12  13
ENDBRANCH  11  12
ENDBRANCH   9  11
ENDBRANCH   1   8
BRANCH   5  19
ATOM     19  S   UNL     1       5.853   5.068  15.948  0.00  0.00    +0.000 S 
ATOM     20  O   UNL     1       6.007   5.895  14.779  0.00  0.00    +0.000 OA
ATOM     21  O   UNL     1       6.133   3.653  15.927  0.00  0.00    +0.000 OA
BRANCH  19  22
ATOM     22  N   UNL     1       4.241   5.276  16.525  0.00  0.00    +0.000 NA
ATOM     23  C   UNL     1       4.177   6.319  17.590  0.00  0.00    +0.000 C 
ATOM     24  C   UNL     1       2.816   6.341  18.224  0.00  0.00    +0.000 C 
ATOM     25  C   UNL     1       2.737   5.050  18.968  0.00  0.00    +0.000 A 
ATOM     26  C   UNL     1       2.714   4.981  20.357  0.00  0.00    +0.000 A 
ATOM     27  C   UNL     1       2.486   3.760  20.972  0.00  0.00    +0.000 A 
ATOM     28  C   UNL     1       2.205   2.642  20.186  0.00  0.00    +0.000 A 
ATOM     29  C   UNL     1       2.395   2.692  18.798  0.00  0.00    +0.000 A 
ATOM     30  C   UNL     1       2.820   3.885  18.203  0.00  0.00    +0.000 A 
ATOM     31  C   UNL     1       3.457   3.986  16.815  0.00  0.00    +0.000 C 
ENDBRANCH  19  22
ENDBRANCH   5  19
TORSDOF 6
ENDMDL
MODEL 9
REMARK VINA RESULT:      -7.9      2.509      4.148
REMARK  Name = 
REMARK  6 active torsions:
REMARK  status: ('A' for Active; 'I' for Inactive)
REMARK    1  A    between atoms: C_2  and  C_12
REMARK    2  A    between atoms: N_3  and  C_4
REMARK    3  A    between atoms: C_4  and  C_5
REMARK    4  A    between atoms: C_5  and  C_6
REMARK    5  A    between atoms: C_16  and  S_17
REMARK    6  A    between atoms: S_17  and  N_20
REMARK                            x       y       z     vdW  Elec       q    Type
REMARK                         _______ _______ _______ _____ _____    ______ ____
ROOT
ATOM      1  C   UNL     1       1.514   8.299  20.402  0.00  0.00    +0.000 A 
ATOM      2  C   UNL     1       1.747   8.797  19.114  0.00  0.00    +0.000 A 
ATOM      3  C   UNL     1       2.169   7.935  18.094  0.00  0.00    +0.000 A 
ATOM      4  C   UNL     1       2.353   6.569  18.352  0.00  0.00    +0.000 A 
ATOM      5  C   UNL     1       2.120   6.063  19.635  0.00  0.00    +0.000 A 
ATOM      6  C   UNL     1       1.721   6.927  20.671  0.00  0.00    +0.000 A 
ENDROOT
BRANCH   1   8
ATOM      7  O   UNL     1       1.752   9.247  22.547  0.00  0.00    +0.000 OA
ATOM      8  C   UNL     1       1.106   9.222  21.507  0.00  0.00    +0.000 C 
ATOM      9  N   UNL     1      -0.028   9.995  21.299  0.00  0.00    +0.000 N 
ATOM     10  H   UNL     1      -0.650   9.747  20.539  0.00  0.00    +0.000 HD
BRANCH   9  11
ATOM     11  C   UNL     1      -0.539  10.848  22.369  0.00  0.00    +0.000 C 
BRANCH  11  12
ATOM     12  C   UNL     1      -1.174  12.146  21.864  0.00  0.00    +0.000 C 
BRANCH  12  13
ATOM     13  C   UNL     1      -1.922  12.878  22.941  0.00  0.00    +0.000 A 
ATOM     14  C   UNL     1      -3.161  12.403  23.419  0.00  0.00    +0.000 A 
ATOM     15  C   UNL     1      -3.816  13.120  24.404  0.00  0.00    +0.000 A 
ATOM     16  N   UNL     1      -3.344  14.265  24.947  0.00  0.00    +0.000 NA
ATOM     17  C   UNL     1      -2.163  14.714  24.476  0.00  0.00    +0.000 A 
ATOM     18  C   UNL     1      -1.432  14.067  23.493  0.00  0.00    +0.000 A 
ENDBRANCH  12  13
ENDBRANCH  11  12
ENDBRANCH   9  11
ENDBRANCH   1   8
BRANCH   5  19
ATOM     19  S   UNL     1       2.372   4.297  19.921  0.00  0.00    +0.000 S 
ATOM     20  O   UNL     1       2.341   4.086  21.345  0.00  0.00    +0.000 OA
ATOM     21  O   UNL     1       1.507   3.577  19.021  0.00  0.00    +0.000 OA
BRANCH  19  22
ATOM     22  N   UNL     1       3.997   4.054  19.394  0.00  0.00    +0.000 NA
ATOM     23  C   UNL     1       4.818   5.287  19.585  0.00  0.00    +0.000 C 
ATOM     24  C   UNL     1       6.162   5.128  18.934  0.00  0.00    +0.000 C 
ATOM     25  C   UNL     1       5.863   5.108  17.473  0.00  0.00    +0.000 A 
ATOM     26  C   UNL     1       6.244   6.132  16.611  0.00  0.00    +0.000 A 
ATOM     27  C   UNL     1       6.065   5.972  15.246  0.00  0.00    +0.000 A 
ATOM     28  C   UNL     1       5.582   4.758  14.759  0.00  0.00    +0.000 A 
ATOM     29  C   UNL     1       5.051   3.806  15.642  0.00  0.00    +0.000 A 
ATOM     30  C   UNL     1       5.056   4.064  17.017  0.00  0.00    +0.000 A 
ATOM     31  C   UNL     1       4.168   3.349  18.039  0.00  0.00    +0.000 C 
ENDBRANCH  19  22
ENDBRANCH   5  19
TORSDOF 6
ENDMDL
