MODEL 1
REMARK VINA RESULT:     -10.2      0.000      0.000
REMARK  Name = 
REMARK  5 active torsions:
REMARK  status: ('A' for Active; 'I' for Inactive)
REMARK    1  A    between atoms: C_2  and  C_3
REMARK    2  A    between atoms: C_9  and  C_10
REMARK    3  A    between atoms: C_10  and  N_11
REMARK    4  A    between atoms: C_18  and  C_19
REMARK    5  A    between atoms: C_22  and  C_23
REMARK                            x       y       z     vdW  Elec       q    Type
REMARK                         _______ _______ _______ _____ _____    ______ ____
ROOT
ATOM      1  N   UNL     1       2.765   4.510  18.895  0.00  0.00    +0.000 N 
ATOM      2  C   UNL     1       2.511   3.240  19.344  0.00  0.00    +0.000 C 
ATOM      3  O   UNL     1       2.464   2.189  18.724  0.00  0.00    +0.000 OA
ATOM      4  C   UNL     1       2.253   3.398  20.785  0.00  0.00    +0.000 C 
ATOM      5  C   UNL     1       1.080   2.784  21.517  0.00  0.00    +0.000 C 
ATOM      6  C   UNL     1       2.450   2.232  21.712  0.00  0.00    +0.000 C 
ATOM      7  N   UNL     1       2.358   4.809  21.096  0.00  0.00    +0.000 NA
ATOM      8  C   UNL     1       2.555   5.394  19.940  0.00  0.00    +0.000 C 
ENDROOT
BRANCH   8   9
ATOM      9  C   UNL     1       2.331   6.883  19.772  0.00  0.00    +0.000 A 
ATOM     10  C   UNL     1       2.435   7.594  18.584  0.00  0.00    +0.000 A 
ATOM     11  C   UNL     1       1.827   8.874  18.471  0.00  0.00    +0.000 A 
ATOM     12  C   UNL     1       1.107   9.516  19.521  0.00  0.00    +0.000 A 
ATOM     13  C   UNL     1       1.168   8.867  20.753  0.00  0.00    +0.000 A 
ATOM     14  C   UNL     1       1.785   7.581  20.874  0.00  0.00    +0.000 A 
BRANCH  12  15
ATOM     15  C   UNL     1       0.292  10.746  19.187  0.00  0.00    +0.000 A 
ATOM     16  N   UNL     1      -1.044  10.546  19.105  0.00  0.00    +0.000 NA
ATOM     17  N   UNL     1      -1.596  11.747  18.991  0.00  0.00    +0.000 N 
ATOM     18  C   UNL     1      -0.708  12.783  18.958  0.00  0.00    +0.000 A 
ATOM     19  C   UNL     1      -0.971  14.162  18.896  0.00  0.00    +0.000 A 
ATOM     20  C   UNL     1       0.116  15.024  18.835  0.00  0.00    +0.000 A 
ATOM     21  C   UNL     1       1.404  14.489  18.839  0.00  0.00    +0.000 A 
ATOM     22  C   UNL     1       1.645  13.096  18.940  0.00  0.00    +0.000 A 
ATOM     23  C   UNL     1       0.559  12.186  19.015  0.00  0.00    +0.000 A 
ATOM     24  H   UNL     1      -2.603  11.808  18.943  0.00  0.00    +0.000 HD
ENDBRANCH  12  15
ENDBRANCH   8   9
BRANCH   1  25
ATOM     25  C   UNL     1       3.074   4.665  17.477  0.00  0.00    +0.000 C 
BRANCH  25  31
ATOM     26  O   UNL     1       7.659   5.455  13.935  0.00  0.00    +0.000 OA
ATOM     27  C   UNL     1       6.704   4.748  14.227  0.00  0.00    +0.000 C 
ATOM     28  N   UNL     1       5.881   4.997  15.292  0.00  0.00    +0.000 N 
ATOM     29  C   UNL     1       5.785   6.293  15.918  0.00  0.00    +0.000 C 
ATOM     30  C   UNL     1       5.266   5.983  17.310  0.00  0.00    +0.000 C 
ATOM     31  C   UNL     1       4.574   4.609  17.196  0.00  0.00    +0.000 C 
ATOM     32  C   UNL     1       4.865   4.119  15.788  0.00  0.00    +0.000 C 
BRANCH  27  33
ATOM     33  C   UNL     1       6.365   3.551  13.393  0.00  0.00    +0.000 C 
ATOM     34  C   UNL     1       5.346   3.687  12.288  0.00  0.00    +0.000 C 
ATOM     35  C   UNL     1       6.786   3.437  11.949  0.00  0.00    +0.000 C 
ENDBRANCH  27  33
ENDBRANCH  25  31
ENDBRANCH   1  25
TORSDOF 5
ENDMDL
MODEL 2
REMARK VINA RESULT:     -10.1      1.277      1.616
REMARK  Name = 
REMARK  5 active torsions:
REMARK  status: ('A' for Active; 'I' for Inactive)
REMARK    1  A    between atoms: C_2  and  C_3
REMARK    2  A    between atoms: C_9  and  C_10
REMARK    3  A    between atoms: C_10  and  N_11
REMARK    4  A    between atoms: C_18  and  C_19
REMARK    5  A    between atoms: C_22  and  C_23
REMARK                            x       y       z     vdW  Elec       q    Type
REMARK                         _______ _______ _______ _____ _____    ______ ____
ROOT
ATOM      1  N   UNL     1       2.752   4.757  18.975  0.00  0.00    +0.000 N 
ATOM      2  C   UNL     1       2.612   3.440  19.329  0.00  0.00    +0.000 C 
ATOM      3  O   UNL     1       2.651   2.438  18.632  0.00  0.00    +0.000 OA
ATOM      4  C   UNL     1       2.356   3.467  20.778  0.00  0.00    +0.000 C 
ATOM      5  C   UNL     1       1.246   2.702  21.466  0.00  0.00    +0.000 C 
ATOM      6  C   UNL     1       2.661   2.257  21.615  0.00  0.00    +0.000 C 
ATOM      7  N   UNL     1       2.341   4.856  21.193  0.00  0.00    +0.000 NA
ATOM      8  C   UNL     1       2.476   5.539  20.083  0.00  0.00    +0.000 C 
ENDROOT
BRANCH   8   9
ATOM      9  C   UNL     1       2.123   7.011  20.028  0.00  0.00    +0.000 A 
ATOM     10  C   UNL     1       2.085   7.798  18.884  0.00  0.00    +0.000 A 
ATOM     11  C   UNL     1       1.370   9.027  18.894  0.00  0.00    +0.000 A 
ATOM     12  C   UNL     1       0.678   9.543  20.029  0.00  0.00    +0.000 A 
ATOM     13  C   UNL     1       0.879   8.830  21.210  0.00  0.00    +0.000 A 
ATOM     14  C   UNL     1       1.603   7.595  21.206  0.00  0.00    +0.000 A 
BRANCH  12  15
ATOM     15  C   UNL     1      -0.254  10.718  19.831  0.00  0.00    +0.000 A 
ATOM     16  N   UNL     1      -0.514  11.034  18.540  0.00  0.00    +0.000 NA
ATOM     17  N   UNL     1      -1.473  11.950  18.566  0.00  0.00    +0.000 N 
ATOM     18  C   UNL     1      -1.879  12.317  19.816  0.00  0.00    +0.000 A 
ATOM     19  C   UNL     1      -2.899  13.214  20.180  0.00  0.00    +0.000 A 
ATOM     20  C   UNL     1      -3.099  13.451  21.533  0.00  0.00    +0.000 A 
ATOM     21  C   UNL     1      -2.290  12.794  22.460  0.00  0.00    +0.000 A 
ATOM     22  C   UNL     1      -1.292  11.865  22.071  0.00  0.00    +0.000 A 
ATOM     23  C   UNL     1      -1.068  11.591  20.697  0.00  0.00    +0.000 A 
ATOM     24  H   UNL     1      -1.827  12.297  17.686  0.00  0.00    +0.000 HD
ENDBRANCH  12  15
ENDBRANCH   8   9
BRANCH   1  25
ATOM     25  C   UNL     1       3.034   5.042  17.572  0.00  0.00    +0.000 C 
BRANCH  25  31
ATOM     26  O   UNL     1       7.494   5.520  13.821  0.00  0.00    +0.000 OA
ATOM     27  C   UNL     1       6.550   4.841  14.205  0.00  0.00    +0.000 C 
ATOM     28  N   UNL     1       5.764   5.182  15.272  0.00  0.00    +0.000 N 
ATOM     29  C   UNL     1       5.687   6.527  15.788  0.00  0.00    +0.000 C 
ATOM     30  C   UNL     1       5.216   6.337  17.218  0.00  0.00    +0.000 C 
ATOM     31  C   UNL     1       4.523   4.960  17.246  0.00  0.00    +0.000 C 
ATOM     32  C   UNL     1       4.766   4.351  15.876  0.00  0.00    +0.000 C 
BRANCH  27  33
ATOM     33  C   UNL     1       6.184   3.578  13.488  0.00  0.00    +0.000 C 
ATOM     34  C   UNL     1       5.195   3.637  12.350  0.00  0.00    +0.000 C 
ATOM     35  C   UNL     1       6.632   3.303  12.074  0.00  0.00    +0.000 C 
ENDBRANCH  27  33
ENDBRANCH  25  31
ENDBRANCH   1  25
TORSDOF 5
ENDMDL
MODEL 3
REMARK VINA RESULT:      -9.6      1.210      1.585
REMARK  Name = 
REMARK  5 active torsions:
REMARK  status: ('A' for Active; 'I' for Inactive)
REMARK    1  A    between atoms: C_2  and  C_3
REMARK    2  A    between atoms: C_9  and  C_10
REMARK    3  A    between atoms: C_10  and  N_11
REMARK    4  A    between atoms: C_18  and  C_19
REMARK    5  A    between atoms: C_22  and  C_23
REMARK                            x       y       z     vdW  Elec       q    Type
REMARK                         _______ _______ _______ _____ _____    ______ ____
ROOT
ATOM      1  N   UNL     1       2.722   4.539  18.849  0.00  0.00    +0.000 N 
ATOM      2  C   UNL     1       2.706   3.279  19.390  0.00  0.00    +0.000 C 
ATOM      3  O   UNL     1       2.895   2.199  18.853  0.00  0.00    +0.000 OA
ATOM      4  C   UNL     1       2.361   3.485  20.806  0.00  0.00    +0.000 C 
ATOM      5  C   UNL     1       1.302   2.703  21.552  0.00  0.00    +0.000 C 
ATOM      6  C   UNL     1       2.745   2.452  21.828  0.00  0.00    +0.000 C 
ATOM      7  N   UNL     1       2.171   4.907  21.007  0.00  0.00    +0.000 NA
ATOM      8  C   UNL     1       2.297   5.436  19.815  0.00  0.00    +0.000 C 
ENDROOT
BRANCH   8   9
ATOM      9  C   UNL     1       1.789   6.833  19.525  0.00  0.00    +0.000 A 
ATOM     10  C   UNL     1       1.295   7.732  20.460  0.00  0.00    +0.000 A 
ATOM     11  C   UNL     1       1.227   9.116  20.144  0.00  0.00    +0.000 A 
ATOM     12  C   UNL     1       1.626   9.674  18.894  0.00  0.00    +0.000 A 
ATOM     13  C   UNL     1       1.949   8.737  17.912  0.00  0.00    +0.000 A 
ATOM     14  C   UNL     1       2.012   7.342  18.224  0.00  0.00    +0.000 A 
BRANCH  12  15
ATOM     15  C   UNL     1       1.751  11.178  18.784  0.00  0.00    +0.000 A 
ATOM     16  N   UNL     1       2.498  11.617  17.744  0.00  0.00    +0.000 NA
ATOM     17  N   UNL     1       2.343  12.935  17.703  0.00  0.00    +0.000 N 
ATOM     18  C   UNL     1       1.546  13.446  18.685  0.00  0.00    +0.000 A 
ATOM     19  C   UNL     1       1.146  14.780  18.885  0.00  0.00    +0.000 A 
ATOM     20  C   UNL     1       0.353  15.057  19.990  0.00  0.00    +0.000 A 
ATOM     21  C   UNL     1      -0.008  14.013  20.841  0.00  0.00    +0.000 A 
ATOM     22  C   UNL     1       0.376  12.670  20.599  0.00  0.00    +0.000 A 
ATOM     23  C   UNL     1       1.177  12.348  19.473  0.00  0.00    +0.000 A 
ATOM     24  H   UNL     1       2.807  13.448  16.968  0.00  0.00    +0.000 HD
ENDBRANCH  12  15
ENDBRANCH   8   9
BRANCH   1  25
ATOM     25  C   UNL     1       3.055   4.651  17.433  0.00  0.00    +0.000 C 
BRANCH  25  31
ATOM     26  O   UNL     1       7.697   5.511  13.984  0.00  0.00    +0.000 OA
ATOM     27  C   UNL     1       6.746   4.791  14.254  0.00  0.00    +0.000 C 
ATOM     28  N   UNL     1       5.899   5.026  15.304  0.00  0.00    +0.000 N 
ATOM     29  C   UNL     1       5.774   6.319  15.932  0.00  0.00    +0.000 C 
ATOM     30  C   UNL     1       5.232   5.997  17.313  0.00  0.00    +0.000 C 
ATOM     31  C   UNL     1       4.560   4.615  17.181  0.00  0.00    +0.000 C 
ATOM     32  C   UNL     1       4.885   4.134  15.778  0.00  0.00    +0.000 C 
BRANCH  27  33
ATOM     33  C   UNL     1       6.438   3.593  13.410  0.00  0.00    +0.000 C 
ATOM     34  C   UNL     1       5.386   3.701  12.333  0.00  0.00    +0.000 C 
ATOM     35  C   UNL     1       6.827   3.519  11.954  0.00  0.00    +0.000 C 
ENDBRANCH  27  33
ENDBRANCH  25  31
ENDBRANCH   1  25
TORSDOF 5
ENDMDL
MODEL 4
REMARK VINA RESULT:      -9.5      4.101     10.412
REMARK  Name = 
REMARK  5 active torsions:
REMARK  status: ('A' for Active; 'I' for Inactive)
REMARK    1  A    between atoms: C_2  and  C_3
REMARK    2  A    between atoms: C_9  and  C_10
REMARK    3  A    between atoms: C_10  and  N_11
REMARK    4  A    between atoms: C_18  and  C_19
REMARK    5  A    between atoms: C_22  and  C_23
REMARK                            x       y       z     vdW  Elec       q    Type
REMARK                         _______ _______ _______ _____ _____    ______ ____
ROOT
ATOM      1  N   UNL     1      -0.261  12.178  19.048  0.00  0.00    +0.000 N 
ATOM      2  C   UNL     1      -0.116  13.443  19.559  0.00  0.00    +0.000 C 
ATOM      3  O   UNL     1      -0.550  14.505  19.143  0.00  0.00    +0.000 OA
ATOM      4  C   UNL     1       0.738  13.270  20.745  0.00  0.00    +0.000 C 
ATOM      5  C   UNL     1       1.952  14.119  21.056  0.00  0.00    +0.000 C 
ATOM      6  C   UNL     1       0.701  14.290  21.848  0.00  0.00    +0.000 C 
ATOM      7  N   UNL     1       1.069  11.863  20.845  0.00  0.00    +0.000 NA
ATOM      8  C   UNL     1       0.541  11.317  19.778  0.00  0.00    +0.000 C 
ENDROOT
BRANCH   8   9
ATOM      9  C   UNL     1       0.983   9.948  19.304  0.00  0.00    +0.000 A 
ATOM     10  C   UNL     1       1.482   9.643  18.044  0.00  0.00    +0.000 A 
ATOM     11  C   UNL     1       2.219   8.443  17.848  0.00  0.00    +0.000 A 
ATOM     12  C   UNL     1       2.486   7.489  18.872  0.00  0.00    +0.000 A 
ATOM     13  C   UNL     1       1.827   7.725  20.078  0.00  0.00    +0.000 A 
ATOM     14  C   UNL     1       1.077   8.928  20.279  0.00  0.00    +0.000 A 
BRANCH  12  15
ATOM     15  C   UNL     1       3.498   6.399  18.595  0.00  0.00    +0.000 A 
ATOM     16  N   UNL     1       3.585   5.440  19.546  0.00  0.00    +0.000 NA
ATOM     17  N   UNL     1       4.374   4.494  19.052  0.00  0.00    +0.000 N 
ATOM     18  C   UNL     1       4.871   4.757  17.808  0.00  0.00    +0.000 A 
ATOM     19  C   UNL     1       5.683   3.944  16.998  0.00  0.00    +0.000 A 
ATOM     20  C   UNL     1       6.093   4.456  15.775  0.00  0.00    +0.000 A 
ATOM     21  C   UNL     1       5.684   5.738  15.408  0.00  0.00    +0.000 A 
ATOM     22  C   UNL     1       4.834   6.525  16.225  0.00  0.00    +0.000 A 
ATOM     23  C   UNL     1       4.387   6.029  17.477  0.00  0.00    +0.000 A 
ATOM     24  H   UNL     1       4.540   3.670  19.611  0.00  0.00    +0.000 HD
ENDBRANCH  12  15
ENDBRANCH   8   9
BRANCH   1  25
ATOM     25  C   UNL     1      -1.086  12.035  17.853  0.00  0.00    +0.000 C 
BRANCH  25  31
ATOM     26  O   UNL     1      -6.792  10.801  18.191  0.00  0.00    +0.000 OA
ATOM     27  C   UNL     1      -5.813  11.271  18.756  0.00  0.00    +0.000 C 
ATOM     28  N   UNL     1      -4.558  11.271  18.210  0.00  0.00    +0.000 N 
ATOM     29  C   UNL     1      -4.320  11.112  16.797  0.00  0.00    +0.000 C 
ATOM     30  C   UNL     1      -2.891  10.607  16.727  0.00  0.00    +0.000 C 
ATOM     31  C   UNL     1      -2.232  11.045  18.050  0.00  0.00    +0.000 C 
ATOM     32  C   UNL     1      -3.351  11.640  18.887  0.00  0.00    +0.000 C 
BRANCH  27  33
ATOM     33  C   UNL     1      -5.951  11.908  20.105  0.00  0.00    +0.000 C 
ATOM     34  C   UNL     1      -6.757  13.176  20.241  0.00  0.00    +0.000 C 
ATOM     35  C   UNL     1      -7.255  11.904  20.862  0.00  0.00    +0.000 C 
ENDBRANCH  27  33
ENDBRANCH  25  31
ENDBRANCH   1  25
TORSDOF 5
ENDMDL
MODEL 5
REMARK VINA RESULT:      -9.4      4.049      9.689
REMARK  Name = 
REMARK  5 active torsions:
REMARK  status: ('A' for Active; 'I' for Inactive)
REMARK    1  A    between atoms: C_2  and  C_3
REMARK    2  A    between atoms: C_9  and  C_10
REMARK    3  A    between atoms: C_10  and  N_11
REMARK    4  A    between atoms: C_18  and  C_19
REMARK    5  A    between atoms: C_22  and  C_23
REMARK                            x       y       z     vdW  Elec       q    Type
REMARK                         _______ _______ _______ _____ _____    ______ ____
ROOT
ATOM      1  N   UNL     1      -0.349  12.580  21.182  0.00  0.00    +0.000 N 
ATOM      2  C   UNL     1      -0.076  13.916  21.332  0.00  0.00    +0.000 C 
ATOM      3  O   UNL     1      -0.843  14.856  21.466  0.00  0.00    +0.000 OA
ATOM      4  C   UNL     1       1.391  14.008  21.258  0.00  0.00    +0.000 C 
ATOM      5  C   UNL     1       2.143  15.004  20.403  0.00  0.00    +0.000 C 
ATOM      6  C   UNL     1       2.099  15.178  21.882  0.00  0.00    +0.000 C 
ATOM      7  N   UNL     1       1.903  12.671  21.041  0.00  0.00    +0.000 NA
ATOM      8  C   UNL     1       0.837  11.920  20.908  0.00  0.00    +0.000 C 
ENDROOT
BRANCH   8   9
ATOM      9  C   UNL     1       0.928  10.542  20.287  0.00  0.00    +0.000 A 
ATOM     10  C   UNL     1       1.176  10.265  18.948  0.00  0.00    +0.000 A 
ATOM     11  C   UNL     1       1.626   8.972  18.565  0.00  0.00    +0.000 A 
ATOM     12  C   UNL     1       1.838   7.895  19.474  0.00  0.00    +0.000 A 
ATOM     13  C   UNL     1       1.414   8.139  20.780  0.00  0.00    +0.000 A 
ATOM     14  C   UNL     1       0.953   9.437  21.169  0.00  0.00    +0.000 A 
BRANCH  12  15
ATOM     15  C   UNL     1       2.565   6.665  18.976  0.00  0.00    +0.000 A 
ATOM     16  N   UNL     1       2.169   5.497  19.533  0.00  0.00    +0.000 NA
ATOM     17  N   UNL     1       2.776   4.533  18.853  0.00  0.00    +0.000 N 
ATOM     18  C   UNL     1       3.606   4.969  17.862  0.00  0.00    +0.000 A 
ATOM     19  C   UNL     1       4.346   4.209  16.939  0.00  0.00    +0.000 A 
ATOM     20  C   UNL     1       5.155   4.892  16.041  0.00  0.00    +0.000 A 
ATOM     21  C   UNL     1       5.195   6.285  16.094  0.00  0.00    +0.000 A 
ATOM     22  C   UNL     1       4.412   7.032  17.009  0.00  0.00    +0.000 A 
ATOM     23  C   UNL     1       3.565   6.368  17.933  0.00  0.00    +0.000 A 
ATOM     24  H   UNL     1       2.582   3.575  19.106  0.00  0.00    +0.000 HD
ENDBRANCH  12  15
ENDBRANCH   8   9
BRANCH   1  25
ATOM     25  C   UNL     1      -1.750  12.178  21.229  0.00  0.00    +0.000 C 
BRANCH  25  31
ATOM     26  O   UNL     1      -5.172  11.527  16.533  0.00  0.00    +0.000 OA
ATOM     27  C   UNL     1      -4.035  11.475  16.983  0.00  0.00    +0.000 C 
ATOM     28  N   UNL     1      -3.721  11.812  18.272  0.00  0.00    +0.000 N 
ATOM     29  C   UNL     1      -4.703  11.860  19.328  0.00  0.00    +0.000 C 
ATOM     30  C   UNL     1      -4.080  12.789  20.355  0.00  0.00    +0.000 C 
ATOM     31  C   UNL     1      -2.564  12.758  20.075  0.00  0.00    +0.000 C 
ATOM     32  C   UNL     1      -2.398  11.943  18.804  0.00  0.00    +0.000 C 
BRANCH  27  33
ATOM     33  C   UNL     1      -2.901  11.002  16.126  0.00  0.00    +0.000 C 
ATOM     34  C   UNL     1      -2.628   9.522  16.015  0.00  0.00    +0.000 C 
ATOM     35  C   UNL     1      -3.132  10.280  14.822  0.00  0.00    +0.000 C 
ENDBRANCH  27  33
ENDBRANCH  25  31
ENDBRANCH   1  25
TORSDOF 5
ENDMDL
MODEL 6
REMARK VINA RESULT:      -9.4      1.403      2.017
REMARK  Name = 
REMARK  5 active torsions:
REMARK  status: ('A' for Active; 'I' for Inactive)
REMARK    1  A    between atoms: C_2  and  C_3
REMARK    2  A    between atoms: C_9  and  C_10
REMARK    3  A    between atoms: C_10  and  N_11
REMARK    4  A    between atoms: C_18  and  C_19
REMARK    5  A    between atoms: C_22  and  C_23
REMARK                            x       y       z     vdW  Elec       q    Type
REMARK                         _______ _______ _______ _____ _____    ______ ____
ROOT
ATOM      1  N   UNL     1       2.983   4.316  18.901  0.00  0.00    +0.000 N 
ATOM      2  C   UNL     1       2.860   3.050  19.412  0.00  0.00    +0.000 C 
ATOM      3  O   UNL     1       2.910   1.972  18.841  0.00  0.00    +0.000 OA
ATOM      4  C   UNL     1       2.605   3.249  20.848  0.00  0.00    +0.000 C 
ATOM      5  C   UNL     1       1.506   2.558  21.626  0.00  0.00    +0.000 C 
ATOM      6  C   UNL     1       2.926   2.152  21.824  0.00  0.00    +0.000 C 
ATOM      7  N   UNL     1       2.574   4.677  21.092  0.00  0.00    +0.000 NA
ATOM      8  C   UNL     1       2.699   5.223  19.908  0.00  0.00    +0.000 C 
ENDROOT
BRANCH   8   9
ATOM      9  C   UNL     1       2.327   6.673  19.677  0.00  0.00    +0.000 A 
ATOM     10  C   UNL     1       2.439   7.361  18.475  0.00  0.00    +0.000 A 
ATOM     11  C   UNL     1       1.705   8.564  18.279  0.00  0.00    +0.000 A 
ATOM     12  C   UNL     1       0.845   9.147  19.254  0.00  0.00    +0.000 A 
ATOM     13  C   UNL     1       0.888   8.541  20.509  0.00  0.00    +0.000 A 
ATOM     14  C   UNL     1       1.630   7.335  20.714  0.00  0.00    +0.000 A 
BRANCH  12  15
ATOM     15  C   UNL     1      -0.072  10.271  18.825  0.00  0.00    +0.000 A 
ATOM     16  N   UNL     1       0.507  11.494  18.764  0.00  0.00    +0.000 NA
ATOM     17  N   UNL     1      -0.385  12.302  18.203  0.00  0.00    +0.000 N 
ATOM     18  C   UNL     1      -1.576  11.711  17.895  0.00  0.00    +0.000 A 
ATOM     19  C   UNL     1      -2.693  12.274  17.254  0.00  0.00    +0.000 A 
ATOM     20  C   UNL     1      -3.813  11.470  17.085  0.00  0.00    +0.000 A 
ATOM     21  C   UNL     1      -3.778  10.156  17.551  0.00  0.00    +0.000 A 
ATOM     22  C   UNL     1      -2.626   9.600  18.162  0.00  0.00    +0.000 A 
ATOM     23  C   UNL     1      -1.460  10.388  18.341  0.00  0.00    +0.000 A 
ATOM     24  H   UNL     1      -0.124  13.264  18.045  0.00  0.00    +0.000 HD
ENDBRANCH  12  15
ENDBRANCH   8   9
BRANCH   1  25
ATOM     25  C   UNL     1       3.259   4.434  17.474  0.00  0.00    +0.000 C 
BRANCH  25  31
ATOM     26  O   UNL     1       7.746   5.512  13.883  0.00  0.00    +0.000 OA
ATOM     27  C   UNL     1       6.825   4.759  14.168  0.00  0.00    +0.000 C 
ATOM     28  N   UNL     1       6.012   4.944  15.254  0.00  0.00    +0.000 N 
ATOM     29  C   UNL     1       5.876   6.215  15.921  0.00  0.00    +0.000 C 
ATOM     30  C   UNL     1       5.394   5.842  17.311  0.00  0.00    +0.000 C 
ATOM     31  C   UNL     1       4.755   4.447  17.166  0.00  0.00    +0.000 C 
ATOM     32  C   UNL     1       5.040   4.011  15.739  0.00  0.00    +0.000 C 
BRANCH  27  33
ATOM     33  C   UNL     1       6.518   3.575  13.303  0.00  0.00    +0.000 C 
ATOM     34  C   UNL     1       5.459   3.698  12.235  0.00  0.00    +0.000 C 
ATOM     35  C   UNL     1       6.898   3.531  11.844  0.00  0.00    +0.000 C 
ENDBRANCH  27  33
ENDBRANCH  25  31
ENDBRANCH   1  25
TORSDOF 5
ENDMDL
MODEL 7
REMARK VINA RESULT:      -9.2      4.296     10.569
REMARK  Name = 
REMARK  5 active torsions:
REMARK  status: ('A' for Active; 'I' for Inactive)
REMARK    1  A    between atoms: C_2  and  C_3
REMARK    2  A    between atoms: C_9  and  C_10
REMARK    3  A    between atoms: C_10  and  N_11
REMARK    4  A    between atoms: C_18  and  C_19
REMARK    5  A    between atoms: C_22  and  C_23
REMARK                            x       y       z     vdW  Elec       q    Type
REMARK                         _______ _______ _______ _____ _____    ______ ____
ROOT
ATOM      1  N   UNL     1      -0.013  12.397  19.272  0.00  0.00    +0.000 N 
ATOM      2  C   UNL     1       0.349  13.675  19.616  0.00  0.00    +0.000 C 
ATOM      3  O   UNL     1      -0.030  14.741  19.157  0.00  0.00    +0.000 OA
ATOM      4  C   UNL     1       1.362  13.506  20.670  0.00  0.00    +0.000 C 
ATOM      5  C   UNL     1       2.695  14.222  20.698  0.00  0.00    +0.000 C 
ATOM      6  C   UNL     1       1.617  14.617  21.648  0.00  0.00    +0.000 C 
ATOM      7  N   UNL     1       1.551  12.083  20.870  0.00  0.00    +0.000 NA
ATOM      8  C   UNL     1       0.800  11.513  19.961  0.00  0.00    +0.000 C 
ENDROOT
BRANCH   8   9
ATOM      9  C   UNL     1       1.007  10.062  19.577  0.00  0.00    +0.000 A 
ATOM     10  C   UNL     1       1.437   9.600  18.340  0.00  0.00    +0.000 A 
ATOM     11  C   UNL     1       1.967   8.286  18.221  0.00  0.00    +0.000 A 
ATOM     12  C   UNL     1       2.085   7.368  19.305  0.00  0.00    +0.000 A 
ATOM     13  C   UNL     1       1.486   7.786  20.493  0.00  0.00    +0.000 A 
ATOM     14  C   UNL     1       0.944   9.105  20.616  0.00  0.00    +0.000 A 
BRANCH  12  15
ATOM     15  C   UNL     1       2.903   6.112  19.099  0.00  0.00    +0.000 A 
ATOM     16  N   UNL     1       4.226   6.240  19.354  0.00  0.00    +0.000 NA
ATOM     17  N   UNL     1       4.738   5.017  19.299  0.00  0.00    +0.000 N 
ATOM     18  C   UNL     1       3.842   4.037  18.987  0.00  0.00    +0.000 A 
ATOM     19  C   UNL     1       4.053   2.650  18.902  0.00  0.00    +0.000 A 
ATOM     20  C   UNL     1       2.979   1.855  18.526  0.00  0.00    +0.000 A 
ATOM     21  C   UNL     1       1.752   2.461  18.255  0.00  0.00    +0.000 A 
ATOM     22  C   UNL     1       1.553   3.859  18.384  0.00  0.00    +0.000 A 
ATOM     23  C   UNL     1       2.626   4.700  18.776  0.00  0.00    +0.000 A 
ATOM     24  H   UNL     1       5.723   4.902  19.491  0.00  0.00    +0.000 HD
ENDBRANCH  12  15
ENDBRANCH   8   9
BRANCH   1  25
ATOM     25  C   UNL     1      -1.033  12.250  18.240  0.00  0.00    +0.000 C 
BRANCH  25  31
ATOM     26  O   UNL     1      -6.663  10.671  18.265  0.00  0.00    +0.000 OA
ATOM     27  C   UNL     1      -5.811  11.421  18.722  0.00  0.00    +0.000 C 
ATOM     28  N   UNL     1      -4.484  11.337  18.397  0.00  0.00    +0.000 N 
ATOM     29  C   UNL     1      -4.010  10.665  17.212  0.00  0.00    +0.000 C 
ATOM     30  C   UNL     1      -2.570  10.321  17.546  0.00  0.00    +0.000 C 
ATOM     31  C   UNL     1      -2.156  11.304  18.658  0.00  0.00    +0.000 C 
ATOM     32  C   UNL     1      -3.421  12.061  19.027  0.00  0.00    +0.000 C 
BRANCH  27  33
ATOM     33  C   UNL     1      -6.194  12.515  19.670  0.00  0.00    +0.000 C 
ATOM     34  C   UNL     1      -7.431  12.355  20.519  0.00  0.00    +0.000 C 
ATOM     35  C   UNL     1      -6.077  12.356  21.165  0.00  0.00    +0.000 C 
ENDBRANCH  27  33
ENDBRANCH  25  31
ENDBRANCH   1  25
TORSDOF 5
ENDMDL
MODEL 8
REMARK VINA RESULT:      -9.2      1.353      1.743
REMARK  Name = 
REMARK  5 active torsions:
REMARK  status: ('A' for Active; 'I' for Inactive)
REMARK    1  A    between atoms: C_2  and  C_3
REMARK    2  A    between atoms: C_9  and  C_10
REMARK    3  A    between atoms: C_10  and  N_11
REMARK    4  A    between atoms: C_18  and  C_19
REMARK    5  A    between atoms: C_22  and  C_23
REMARK                            x       y       z     vdW  Elec       q    Type
REMARK                         _______ _______ _______ _____ _____    ______ ____
ROOT
ATOM      1  N   UNL     1       2.730   5.297  19.087  0.00  0.00    +0.000 N 
ATOM      2  C   UNL     1       2.765   3.954  19.365  0.00  0.00    +0.000 C 
ATOM      3  O   UNL     1       3.063   3.017  18.641  0.00  0.00    +0.000 OA
ATOM      4  C   UNL     1       2.314   3.850  20.762  0.00  0.00    +0.000 C 
ATOM      5  C   UNL     1       1.265   2.876  21.252  0.00  0.00    +0.000 C 
ATOM      6  C   UNL     1       2.700   2.653  21.585  0.00  0.00    +0.000 C 
ATOM      7  N   UNL     1       2.013   5.189  21.226  0.00  0.00    +0.000 NA
ATOM      8  C   UNL     1       2.181   5.954  20.175  0.00  0.00    +0.000 C 
ENDROOT
BRANCH   8   9
ATOM      9  C   UNL     1       1.599   7.351  20.129  0.00  0.00    +0.000 A 
ATOM     10  C   UNL     1       1.071   8.051  21.206  0.00  0.00    +0.000 A 
ATOM     11  C   UNL     1       0.928   9.464  21.129  0.00  0.00    +0.000 A 
ATOM     12  C   UNL     1       1.282  10.245  19.991  0.00  0.00    +0.000 A 
ATOM     13  C   UNL     1       1.639   9.507  18.863  0.00  0.00    +0.000 A 
ATOM     14  C   UNL     1       1.778   8.085  18.933  0.00  0.00    +0.000 A 
BRANCH  12  15
ATOM     15  C   UNL     1       1.328  11.751  20.137  0.00  0.00    +0.000 A 
ATOM     16  N   UNL     1       0.734  12.238  21.252  0.00  0.00    +0.000 NA
ATOM     17  N   UNL     1       1.030  13.531  21.298  0.00  0.00    +0.000 N 
ATOM     18  C   UNL     1       1.780  13.983  20.252  0.00  0.00    +0.000 A 
ATOM     19  C   UNL     1       2.298  15.272  20.035  0.00  0.00    +0.000 A 
ATOM     20  C   UNL     1       3.007  15.494  18.863  0.00  0.00    +0.000 A 
ATOM     21  C   UNL     1       3.173  14.441  17.964  0.00  0.00    +0.000 A 
ATOM     22  C   UNL     1       2.674  13.140  18.221  0.00  0.00    +0.000 A 
ATOM     23  C   UNL     1       1.954  12.873  19.414  0.00  0.00    +0.000 A 
ATOM     24  H   UNL     1       0.695  14.070  22.083  0.00  0.00    +0.000 HD
ENDBRANCH  12  15
ENDBRANCH   8   9
BRANCH   1  25
ATOM     25  C   UNL     1       3.147   5.711  17.752  0.00  0.00    +0.000 C 
BRANCH  25  31
ATOM     26  O   UNL     1       7.746   5.471  14.149  0.00  0.00    +0.000 OA
ATOM     27  C   UNL     1       6.698   4.947  14.504  0.00  0.00    +0.000 C 
ATOM     28  N   UNL     1       5.939   5.413  15.543  0.00  0.00    +0.000 N 
ATOM     29  C   UNL     1       6.051   6.759  16.049  0.00  0.00    +0.000 C 
ATOM     30  C   UNL     1       5.511   6.657  17.464  0.00  0.00    +0.000 C 
ATOM     31  C   UNL     1       4.617   5.401  17.476  0.00  0.00    +0.000 C 
ATOM     32  C   UNL     1       4.808   4.749  16.117  0.00  0.00    +0.000 C 
BRANCH  27  33
ATOM     33  C   UNL     1       6.168   3.746  13.781  0.00  0.00    +0.000 C 
ATOM     34  C   UNL     1       5.125   3.934  12.708  0.00  0.00    +0.000 C 
ATOM     35  C   UNL     1       6.503   3.471  12.337  0.00  0.00    +0.000 C 
ENDBRANCH  27  33
ENDBRANCH  25  31
ENDBRANCH   1  25
TORSDOF 5
ENDMDL
MODEL 9
REMARK VINA RESULT:      -9.1      4.086     10.777
REMARK  Name = 
REMARK  5 active torsions:
REMARK  status: ('A' for Active; 'I' for Inactive)
REMARK    1  A    between atoms: C_2  and  C_3
REMARK    2  A    between atoms: C_9  and  C_10
REMARK    3  A    between atoms: C_10  and  N_11
REMARK    4  A    between atoms: C_18  and  C_19
REMARK    5  A    between atoms: C_22  and  C_23
REMARK                            x       y       z     vdW  Elec       q    Type
REMARK                         _______ _______ _______ _____ _____    ______ ____
ROOT
ATOM      1  N   UNL     1      -0.057  12.768  18.998  0.00  0.00    +0.000 N 
ATOM      2  C   UNL     1       0.317  14.073  19.190  0.00  0.00    +0.000 C 
ATOM      3  O   UNL     1      -0.222  15.101  18.810  0.00  0.00    +0.000 OA
ATOM      4  C   UNL     1       1.576  13.994  19.948  0.00  0.00    +0.000 C 
ATOM      5  C   UNL     1       2.833  14.763  19.602  0.00  0.00    +0.000 C 
ATOM      6  C   UNL     1       2.019  15.160  20.786  0.00  0.00    +0.000 C 
ATOM      7  N   UNL     1       1.882  12.591  20.142  0.00  0.00    +0.000 NA
ATOM      8  C   UNL     1       0.951  11.949  19.481  0.00  0.00    +0.000 C 
ENDROOT
BRANCH   8   9
ATOM      9  C   UNL     1       1.124  10.492  19.107  0.00  0.00    +0.000 A 
ATOM     10  C   UNL     1       1.473  10.008  17.853  0.00  0.00    +0.000 A 
ATOM     11  C   UNL     1       1.987   8.688  17.722  0.00  0.00    +0.000 A 
ATOM     12  C   UNL     1       2.165   7.786  18.811  0.00  0.00    +0.000 A 
ATOM     13  C   UNL     1       1.644   8.226  20.027  0.00  0.00    +0.000 A 
ATOM     14  C   UNL     1       1.120   9.550  20.162  0.00  0.00    +0.000 A 
BRANCH  12  15
ATOM     15  C   UNL     1       2.961   6.521  18.574  0.00  0.00    +0.000 A 
ATOM     16  N   UNL     1       2.648   5.484  19.387  0.00  0.00    +0.000 NA
ATOM     17  N   UNL     1       3.305   4.431  18.918  0.00  0.00    +0.000 N 
ATOM     18  C   UNL     1       4.089   4.684  17.831  0.00  0.00    +0.000 A 
ATOM     19  C   UNL     1       4.861   3.783  17.076  0.00  0.00    +0.000 A 
ATOM     20  C   UNL     1       5.610   4.296  16.027  0.00  0.00    +0.000 A 
ATOM     21  C   UNL     1       5.563   5.666  15.769  0.00  0.00    +0.000 A 
ATOM     22  C   UNL     1       4.749   6.550  16.520  0.00  0.00    +0.000 A 
ATOM     23  C   UNL     1       3.961   6.059  17.594  0.00  0.00    +0.000 A 
ATOM     24  H   UNL     1       3.176   3.543  19.381  0.00  0.00    +0.000 HD
ENDBRANCH  12  15
ENDBRANCH   8   9
BRANCH   1  25
ATOM     25  C   UNL     1      -1.302  12.532  18.275  0.00  0.00    +0.000 C 
BRANCH  25  31
ATOM     26  O   UNL     1      -6.042  12.341  21.693  0.00  0.00    +0.000 OA
ATOM     27  C   UNL     1      -4.846  12.588  21.619  0.00  0.00    +0.000 C 
ATOM     28  N   UNL     1      -4.107  12.394  20.483  0.00  0.00    +0.000 N 
ATOM     29  C   UNL     1      -4.702  12.282  19.174  0.00  0.00    +0.000 C 
ATOM     30  C   UNL     1      -3.658  11.529  18.368  0.00  0.00    +0.000 C 
ATOM     31  C   UNL     1      -2.323  11.758  19.105  0.00  0.00    +0.000 C 
ATOM     32  C   UNL     1      -2.682  12.494  20.384  0.00  0.00    +0.000 C 
BRANCH  27  33
ATOM     33  C   UNL     1      -4.114  13.156  22.797  0.00  0.00    +0.000 C 
ATOM     34  C   UNL     1      -4.597  12.832  24.189  0.00  0.00    +0.000 C 
ATOM     35  C   UNL     1      -3.281  12.294  23.711  0.00  0.00    +0.000 C 
ENDBRANCH  27  33
ENDBRANCH  25  31
ENDBRANCH   1  25
TORSDOF 5
ENDMDL
