MODEL 1
REMARK VINA RESULT:      -8.3      0.000      0.000
REMARK  Name = 
REMARK  7 active torsions:
REMARK  status: ('A' for Active; 'I' for Inactive)
REMARK    1  A    between atoms: C_1  and  N_2
REMARK    2  A    between atoms: N_2  and  C_3
REMARK    3  A    between atoms: C_3  and  C_4
REMARK    4  A    between atoms: C_4  and  C_5
REMARK    5  A    between atoms: C_12  and  C_13
REMARK    6  A    between atoms: C_18  and  C_19
REMARK    7  A    between atoms: C_19  and  C_21
REMARK                            x       y       z     vdW  Elec       q    Type
REMARK                         _______ _______ _______ _____ _____    ______ ____
ROOT
ATOM      1  C   UNL     1       0.125   9.391  21.769  0.00  0.00    +0.000 C 
ATOM      2  N   UNL     1       0.905   9.489  20.539  0.00  0.00    +0.000 N 
ATOM      3  C   UNL     1       1.396   8.296  20.071  0.00  0.00    +0.000 A 
ATOM      4  N   UNL     1       1.178   7.143  20.660  0.00  0.00    +0.000 NA
ATOM      5  C   UNL     1       1.931   6.127  20.089  0.00  0.00    +0.000 A 
ATOM      6  C   UNL     1       2.724   6.505  19.026  0.00  0.00    +0.000 A 
ATOM      7  S   UNL     1       2.362   8.150  18.652  0.00  0.00    +0.000 S 
ENDROOT
BRANCH   5   8
ATOM      8  C   UNL     1       1.840   4.750  20.657  0.00  0.00    +0.000 A 
ATOM      9  C   UNL     1       0.999   3.759  20.181  0.00  0.00    +0.000 A 
ATOM     10  C   UNL     1       1.258   2.599  20.948  0.00  0.00    +0.000 A 
ATOM     11  C   UNL     1       2.185   2.972  21.892  0.00  0.00    +0.000 A 
ATOM     12  O   UNL     1       2.558   4.264  21.711  0.00  0.00    +0.000 OA
ENDBRANCH   5   8
BRANCH   6  13
ATOM     13  C   UNL     1       3.598   5.729  18.159  0.00  0.00    +0.000 C 
ATOM     14  O   UNL     1       3.177   4.940  17.313  0.00  0.00    +0.000 OA
BRANCH  13  15
ATOM     15  C   UNL     1       5.080   5.927  18.217  0.00  0.00    +0.000 A 
ATOM     16  C   UNL     1       5.683   6.789  17.286  0.00  0.00    +0.000 A 
ATOM     17  C   UNL     1       7.051   7.066  17.366  0.00  0.00    +0.000 A 
ATOM     18  C   UNL     1       7.824   6.491  18.375  0.00  0.00    +0.000 A 
ATOM     19  C   UNL     1       7.243   5.608  19.282  0.00  0.00    +0.000 A 
ATOM     20  C   UNL     1       5.882   5.305  19.185  0.00  0.00    +0.000 A 
ENDBRANCH  13  15
ENDBRANCH   6  13
BRANCH   2  21
ATOM     21  C   UNL     1       0.714  10.608  19.606  0.00  0.00    +0.000 C 
BRANCH  21  22
ATOM     22  C   UNL     1      -0.661  11.290  19.616  0.00  0.00    +0.000 C 
BRANCH  22  23
ATOM     23  C   UNL     1      -1.584  10.877  18.501  0.00  0.00    +0.000 A 
ATOM     24  C   UNL     1      -1.390   9.959  17.486  0.00  0.00    +0.000 A 
ATOM     25  C   UNL     1      -2.536   9.814  16.653  0.00  0.00    +0.000 A 
ATOM     26  C   UNL     1      -3.568  10.632  17.048  0.00  0.00    +0.000 A 
ATOM     27  S   UNL     1      -3.155  11.568  18.416  0.00  0.00    +0.000 S 
ENDBRANCH  22  23
ENDBRANCH  21  22
ENDBRANCH   2  21
TORSDOF 6
ENDMDL
MODEL 2
REMARK VINA RESULT:      -7.7      0.657      1.257
REMARK  Name = 
REMARK  7 active torsions:
REMARK  status: ('A' for Active; 'I' for Inactive)
REMARK    1  A    between atoms: C_1  and  N_2
REMARK    2  A    between atoms: N_2  and  C_3
REMARK    3  A    between atoms: C_3  and  C_4
REMARK    4  A    between atoms: C_4  and  C_5
REMARK    5  A    between atoms: C_12  and  C_13
REMARK    6  A    between atoms: C_18  and  C_19
REMARK    7  A    between atoms: C_19  and  C_21
REMARK                            x       y       z     vdW  Elec       q    Type
REMARK                         _______ _______ _______ _____ _____    ______ ____
ROOT
ATOM      1  C   UNL     1       0.172   9.636  21.589  0.00  0.00    +0.000 C 
ATOM      2  N   UNL     1       0.951   9.680  20.354  0.00  0.00    +0.000 N 
ATOM      3  C   UNL     1       1.425   8.465  19.927  0.00  0.00    +0.000 A 
ATOM      4  N   UNL     1       1.193   7.337  20.556  0.00  0.00    +0.000 NA
ATOM      5  C   UNL     1       1.931   6.291  20.019  0.00  0.00    +0.000 A 
ATOM      6  C   UNL     1       2.727   6.622  18.943  0.00  0.00    +0.000 A 
ATOM      7  S   UNL     1       2.385   8.257  18.512  0.00  0.00    +0.000 S 
ENDROOT
BRANCH   5   8
ATOM      8  C   UNL     1       1.823   4.936  20.635  0.00  0.00    +0.000 A 
ATOM      9  C   UNL     1       0.937   3.956  20.223  0.00  0.00    +0.000 A 
ATOM     10  C   UNL     1       1.193   2.814  21.017  0.00  0.00    +0.000 A 
ATOM     11  C   UNL     1       2.164   3.189  21.915  0.00  0.00    +0.000 A 
ATOM     12  O   UNL     1       2.566   4.463  21.678  0.00  0.00    +0.000 OA
ENDBRANCH   5   8
BRANCH   6  13
ATOM     13  C   UNL     1       3.588   5.804  18.101  0.00  0.00    +0.000 C 
ATOM     14  O   UNL     1       3.154   4.991  17.285  0.00  0.00    +0.000 OA
BRANCH  13  15
ATOM     15  C   UNL     1       5.072   5.985  18.149  0.00  0.00    +0.000 A 
ATOM     16  C   UNL     1       5.788   5.424  19.219  0.00  0.00    +0.000 A 
ATOM     17  C   UNL     1       7.183   5.497  19.249  0.00  0.00    +0.000 A 
ATOM     18  C   UNL     1       7.874   6.125  18.212  0.00  0.00    +0.000 A 
ATOM     19  C   UNL     1       7.173   6.715  17.164  0.00  0.00    +0.000 A 
ATOM     20  C   UNL     1       5.776   6.671  17.146  0.00  0.00    +0.000 A 
ENDBRANCH  13  15
ENDBRANCH   6  13
BRANCH   2  21
ATOM     21  C   UNL     1       0.773  10.769  19.383  0.00  0.00    +0.000 C 
BRANCH  21  22
ATOM     22  C   UNL     1      -0.470  11.653  19.556  0.00  0.00    +0.000 C 
BRANCH  22  23
ATOM     23  C   UNL     1      -1.660  11.248  18.727  0.00  0.00    +0.000 A 
ATOM     24  C   UNL     1      -2.954  11.731  18.745  0.00  0.00    +0.000 A 
ATOM     25  C   UNL     1      -3.781  11.116  17.761  0.00  0.00    +0.000 A 
ATOM     26  C   UNL     1      -3.096  10.175  17.027  0.00  0.00    +0.000 A 
ATOM     27  S   UNL     1      -1.468  10.036  17.526  0.00  0.00    +0.000 S 
ENDBRANCH  22  23
ENDBRANCH  21  22
ENDBRANCH   2  21
TORSDOF 6
ENDMDL
MODEL 3
REMARK VINA RESULT:      -7.6      2.455      7.588
REMARK  Name = 
REMARK  7 active torsions:
REMARK  status: ('A' for Active; 'I' for Inactive)
REMARK    1  A    between atoms: C_1  and  N_2
REMARK    2  A    between atoms: N_2  and  C_3
REMARK    3  A    between atoms: C_3  and  C_4
REMARK    4  A    between atoms: C_4  and  C_5
REMARK    5  A    between atoms: C_12  and  C_13
REMARK    6  A    between atoms: C_18  and  C_19
REMARK    7  A    between atoms: C_19  and  C_21
REMARK                            x       y       z     vdW  Elec       q    Type
REMARK                         _______ _______ _______ _____ _____    ______ ____
ROOT
ATOM      1  C   UNL     1       2.735   4.111  19.741  0.00  0.00    +0.000 C 
ATOM      2  N   UNL     1       2.964   5.072  18.666  0.00  0.00    +0.000 N 
ATOM      3  C   UNL     1       2.557   6.353  18.941  0.00  0.00    +0.000 A 
ATOM      4  N   UNL     1       2.016   6.711  20.082  0.00  0.00    +0.000 NA
ATOM      5  C   UNL     1       1.534   8.011  20.034  0.00  0.00    +0.000 A 
ATOM      6  C   UNL     1       1.730   8.670  18.838  0.00  0.00    +0.000 A 
ATOM      7  S   UNL     1       2.700   7.661  17.829  0.00  0.00    +0.000 S 
ENDROOT
BRANCH   5   8
ATOM      8  C   UNL     1       0.850   8.576  21.234  0.00  0.00    +0.000 A 
ATOM      9  C   UNL     1       1.503   9.116  22.328  0.00  0.00    +0.000 A 
ATOM     10  C   UNL     1       0.503   9.587  23.210  0.00  0.00    +0.000 A 
ATOM     11  C   UNL     1      -0.698   9.241  22.638  0.00  0.00    +0.000 A 
ATOM     12  O   UNL     1      -0.499   8.647  21.433  0.00  0.00    +0.000 OA
ENDBRANCH   5   8
BRANCH   6  13
ATOM     13  C   UNL     1       1.414  10.031  18.431  0.00  0.00    +0.000 C 
ATOM     14  O   UNL     1       2.261  10.823  18.017  0.00  0.00    +0.000 OA
BRANCH  13  15
ATOM     15  C   UNL     1      -0.006  10.502  18.430  0.00  0.00    +0.000 A 
ATOM     16  C   UNL     1      -0.947   9.810  17.650  0.00  0.00    +0.000 A 
ATOM     17  C   UNL     1      -2.298  10.168  17.694  0.00  0.00    +0.000 A 
ATOM     18  C   UNL     1      -2.719  11.213  18.517  0.00  0.00    +0.000 A 
ATOM     19  C   UNL     1      -1.789  11.928  19.268  0.00  0.00    +0.000 A 
ATOM     20  C   UNL     1      -0.434  11.593  19.202  0.00  0.00    +0.000 A 
ENDBRANCH  13  15
ENDBRANCH   6  13
BRANCH   2  21
ATOM     21  C   UNL     1       4.007   4.846  17.656  0.00  0.00    +0.000 C 
BRANCH  21  22
ATOM     22  C   UNL     1       5.403   4.472  18.174  0.00  0.00    +0.000 C 
BRANCH  22  23
ATOM     23  C   UNL     1       6.398   5.603  18.195  0.00  0.00    +0.000 A 
ATOM     24  C   UNL     1       7.496   5.799  19.011  0.00  0.00    +0.000 A 
ATOM     25  C   UNL     1       8.221   6.978  18.677  0.00  0.00    +0.000 A 
ATOM     26  C   UNL     1       7.652   7.653  17.623  0.00  0.00    +0.000 A 
ATOM     27  S   UNL     1       6.250   6.868  17.043  0.00  0.00    +0.000 S 
ENDBRANCH  22  23
ENDBRANCH  21  22
ENDBRANCH   2  21
TORSDOF 6
ENDMDL
MODEL 4
REMARK VINA RESULT:      -7.5      1.973      2.662
REMARK  Name = 
REMARK  7 active torsions:
REMARK  status: ('A' for Active; 'I' for Inactive)
REMARK    1  A    between atoms: C_1  and  N_2
REMARK    2  A    between atoms: N_2  and  C_3
REMARK    3  A    between atoms: C_3  and  C_4
REMARK    4  A    between atoms: C_4  and  C_5
REMARK    5  A    between atoms: C_12  and  C_13
REMARK    6  A    between atoms: C_18  and  C_19
REMARK    7  A    between atoms: C_19  and  C_21
REMARK                            x       y       z     vdW  Elec       q    Type
REMARK                         _______ _______ _______ _____ _____    ______ ____
ROOT
ATOM      1  C   UNL     1       0.116   9.730  20.963  0.00  0.00    +0.000 C 
ATOM      2  N   UNL     1       0.986   9.707  19.790  0.00  0.00    +0.000 N 
ATOM      3  C   UNL     1       1.504   8.475  19.480  0.00  0.00    +0.000 A 
ATOM      4  N   UNL     1       1.237   7.386  20.162  0.00  0.00    +0.000 NA
ATOM      5  C   UNL     1       2.025   6.320  19.751  0.00  0.00    +0.000 A 
ATOM      6  C   UNL     1       2.896   6.593  18.718  0.00  0.00    +0.000 A 
ATOM      7  S   UNL     1       2.571   8.192  18.158  0.00  0.00    +0.000 S 
ENDROOT
BRANCH   5   8
ATOM      8  C   UNL     1       1.885   5.006  20.444  0.00  0.00    +0.000 A 
ATOM      9  C   UNL     1       1.013   4.003  20.056  0.00  0.00    +0.000 A 
ATOM     10  C   UNL     1       1.229   2.912  20.929  0.00  0.00    +0.000 A 
ATOM     11  C   UNL     1       2.165   3.339  21.842  0.00  0.00    +0.000 A 
ATOM     12  O   UNL     1       2.582   4.596  21.544  0.00  0.00    +0.000 OA
ENDBRANCH   5   8
BRANCH   6  13
ATOM     13  C   UNL     1       3.829   5.737  17.999  0.00  0.00    +0.000 C 
ATOM     14  O   UNL     1       3.467   4.867  17.206  0.00  0.00    +0.000 OA
BRANCH  13  15
ATOM     15  C   UNL     1       5.303   5.942  18.147  0.00  0.00    +0.000 A 
ATOM     16  C   UNL     1       5.960   6.795  17.246  0.00  0.00    +0.000 A 
ATOM     17  C   UNL     1       7.319   7.079  17.409  0.00  0.00    +0.000 A 
ATOM     18  C   UNL     1       8.029   6.520  18.471  0.00  0.00    +0.000 A 
ATOM     19  C   UNL     1       7.395   5.645  19.351  0.00  0.00    +0.000 A 
ATOM     20  C   UNL     1       6.045   5.334  19.173  0.00  0.00    +0.000 A 
ENDBRANCH  13  15
ENDBRANCH   6  13
BRANCH   2  21
ATOM     21  C   UNL     1       0.871  10.729  18.740  0.00  0.00    +0.000 C 
BRANCH  21  22
ATOM     22  C   UNL     1       0.385  12.118  19.175  0.00  0.00    +0.000 C 
BRANCH  22  23
ATOM     23  C   UNL     1       1.320  13.251  18.847  0.00  0.00    +0.000 A 
ATOM     24  C   UNL     1       2.557  13.227  18.231  0.00  0.00    +0.000 A 
ATOM     25  C   UNL     1       3.106  14.529  18.055  0.00  0.00    +0.000 A 
ATOM     26  C   UNL     1       2.279  15.509  18.550  0.00  0.00    +0.000 A 
ATOM     27  S   UNL     1       0.849  14.860  19.224  0.00  0.00    +0.000 S 
ENDBRANCH  22  23
ENDBRANCH  21  22
ENDBRANCH   2  21
TORSDOF 6
ENDMDL
MODEL 5
REMARK VINA RESULT:      -7.5      1.308      1.400
REMARK  Name = 
REMARK  7 active torsions:
REMARK  status: ('A' for Active; 'I' for Inactive)
REMARK    1  A    between atoms: C_1  and  N_2
REMARK    2  A    between atoms: N_2  and  C_3
REMARK    3  A    between atoms: C_3  and  C_4
REMARK    4  A    between atoms: C_4  and  C_5
REMARK    5  A    between atoms: C_12  and  C_13
REMARK    6  A    between atoms: C_18  and  C_19
REMARK    7  A    between atoms: C_19  and  C_21
REMARK                            x       y       z     vdW  Elec       q    Type
REMARK                         _______ _______ _______ _____ _____    ______ ____
ROOT
ATOM      1  C   UNL     1       1.150   9.087  21.426  0.00  0.00    +0.000 C 
ATOM      2  N   UNL     1       1.609   8.965  20.045  0.00  0.00    +0.000 N 
ATOM      3  C   UNL     1       1.867   7.681  19.634  0.00  0.00    +0.000 A 
ATOM      4  N   UNL     1       1.705   6.629  20.403  0.00  0.00    +0.000 NA
ATOM      5  C   UNL     1       2.204   5.480  19.808  0.00  0.00    +0.000 A 
ATOM      6  C   UNL     1       2.740   5.651  18.550  0.00  0.00    +0.000 A 
ATOM      7  S   UNL     1       2.437   7.277  18.060  0.00  0.00    +0.000 S 
ENDROOT
BRANCH   5   8
ATOM      8  C   UNL     1       2.141   4.190  20.556  0.00  0.00    +0.000 A 
ATOM      9  C   UNL     1       3.220   3.350  20.766  0.00  0.00    +0.000 A 
ATOM     10  C   UNL     1       2.756   2.276  21.561  0.00  0.00    +0.000 A 
ATOM     11  C   UNL     1       1.407   2.486  21.725  0.00  0.00    +0.000 A 
ATOM     12  O   UNL     1       1.030   3.651  21.139  0.00  0.00    +0.000 OA
ENDBRANCH   5   8
BRANCH   6  13
ATOM     13  C   UNL     1       3.305   4.693  17.610  0.00  0.00    +0.000 C 
ATOM     14  O   UNL     1       2.616   3.933  16.929  0.00  0.00    +0.000 OA
BRANCH  13  15
ATOM     15  C   UNL     1       4.782   4.652  17.379  0.00  0.00    +0.000 A 
ATOM     16  C   UNL     1       5.257   4.367  16.088  0.00  0.00    +0.000 A 
ATOM     17  C   UNL     1       6.627   4.407  15.816  0.00  0.00    +0.000 A 
ATOM     18  C   UNL     1       7.532   4.736  16.826  0.00  0.00    +0.000 A 
ATOM     19  C   UNL     1       7.075   4.986  18.118  0.00  0.00    +0.000 A 
ATOM     20  C   UNL     1       5.709   4.916  18.400  0.00  0.00    +0.000 A 
ENDBRANCH  13  15
ENDBRANCH   6  13
BRANCH   2  21
ATOM     21  C   UNL     1       1.288   9.993  19.045  0.00  0.00    +0.000 C 
BRANCH  21  22
ATOM     22  C   UNL     1       0.139  10.952  19.383  0.00  0.00    +0.000 C 
BRANCH  22  23
ATOM     23  C   UNL     1      -1.099  10.784  18.541  0.00  0.00    +0.000 A 
ATOM     24  C   UNL     1      -1.364   9.882  17.529  0.00  0.00    +0.000 A 
ATOM     25  C   UNL     1      -2.684  10.013  17.011  0.00  0.00    +0.000 A 
ATOM     26  C   UNL     1      -3.386  11.017  17.635  0.00  0.00    +0.000 A 
ATOM     27  S   UNL     1      -2.455  11.797  18.837  0.00  0.00    +0.000 S 
ENDBRANCH  22  23
ENDBRANCH  21  22
ENDBRANCH   2  21
TORSDOF 6
ENDMDL
MODEL 6
REMARK VINA RESULT:      -7.5      1.644      2.373
REMARK  Name = 
REMARK  7 active torsions:
REMARK  status: ('A' for Active; 'I' for Inactive)
REMARK    1  A    between atoms: C_1  and  N_2
REMARK    2  A    between atoms: N_2  and  C_3
REMARK    3  A    between atoms: C_3  and  C_4
REMARK    4  A    between atoms: C_4  and  C_5
REMARK    5  A    between atoms: C_12  and  C_13
REMARK    6  A    between atoms: C_18  and  C_19
REMARK    7  A    between atoms: C_19  and  C_21
REMARK                            x       y       z     vdW  Elec       q    Type
REMARK                         _______ _______ _______ _____ _____    ______ ____
ROOT
ATOM      1  C   UNL     1       0.159   9.528  22.112  0.00  0.00    +0.000 C 
ATOM      2  N   UNL     1       0.875   9.675  20.848  0.00  0.00    +0.000 N 
ATOM      3  C   UNL     1       1.305   8.498  20.289  0.00  0.00    +0.000 A 
ATOM      4  N   UNL     1       1.086   7.320  20.824  0.00  0.00    +0.000 NA
ATOM      5  C   UNL     1       1.777   6.319  20.157  0.00  0.00    +0.000 A 
ATOM      6  C   UNL     1       2.523   6.736  19.075  0.00  0.00    +0.000 A 
ATOM      7  S   UNL     1       2.189   8.408  18.813  0.00  0.00    +0.000 S 
ENDROOT
BRANCH   5   8
ATOM      8  C   UNL     1       1.676   4.915  20.652  0.00  0.00    +0.000 A 
ATOM      9  C   UNL     1       2.517   4.354  21.597  0.00  0.00    +0.000 A 
ATOM     10  C   UNL     1       2.053   3.038  21.829  0.00  0.00    +0.000 A 
ATOM     11  C   UNL     1       1.006   2.849  20.959  0.00  0.00    +0.000 A 
ATOM     12  O   UNL     1       0.757   3.985  20.258  0.00  0.00    +0.000 OA
ENDBRANCH   5   8
BRANCH   6  13
ATOM     13  C   UNL     1       3.326   5.988  18.119  0.00  0.00    +0.000 C 
ATOM     14  O   UNL     1       4.041   6.528  17.274  0.00  0.00    +0.000 OA
BRANCH  13  15
ATOM     15  C   UNL     1       3.371   4.494  18.184  0.00  0.00    +0.000 A 
ATOM     16  C   UNL     1       2.382   3.759  17.511  0.00  0.00    +0.000 A 
ATOM     17  C   UNL     1       2.443   2.363  17.476  0.00  0.00    +0.000 A 
ATOM     18  C   UNL     1       3.491   1.692  18.107  0.00  0.00    +0.000 A 
ATOM     19  C   UNL     1       4.458   2.410  18.807  0.00  0.00    +0.000 A 
ATOM     20  C   UNL     1       4.382   3.804  18.870  0.00  0.00    +0.000 A 
ENDBRANCH  13  15
ENDBRANCH   6  13
BRANCH   2  21
ATOM     21  C   UNL     1       0.666  10.850  19.991  0.00  0.00    +0.000 C 
BRANCH  21  22
ATOM     22  C   UNL     1      -0.769  11.383  19.883  0.00  0.00    +0.000 C 
BRANCH  22  23
ATOM     23  C   UNL     1      -1.519  10.947  18.652  0.00  0.00    +0.000 A 
ATOM     24  C   UNL     1      -1.130  10.098  17.634  0.00  0.00    +0.000 A 
ATOM     25  C   UNL     1      -2.155   9.898  16.666  0.00  0.00    +0.000 A 
ATOM     26  C   UNL     1      -3.294  10.608  16.967  0.00  0.00    +0.000 A 
ATOM     27  S   UNL     1      -3.124  11.510  18.408  0.00  0.00    +0.000 S 
ENDBRANCH  22  23
ENDBRANCH  21  22
ENDBRANCH   2  21
TORSDOF 6
ENDMDL
MODEL 7
REMARK VINA RESULT:      -7.4      2.621      7.390
REMARK  Name = 
REMARK  7 active torsions:
REMARK  status: ('A' for Active; 'I' for Inactive)
REMARK    1  A    between atoms: C_1  and  N_2
REMARK    2  A    between atoms: N_2  and  C_3
REMARK    3  A    between atoms: C_3  and  C_4
REMARK    4  A    between atoms: C_4  and  C_5
REMARK    5  A    between atoms: C_12  and  C_13
REMARK    6  A    between atoms: C_18  and  C_19
REMARK    7  A    between atoms: C_19  and  C_21
REMARK                            x       y       z     vdW  Elec       q    Type
REMARK                         _______ _______ _______ _____ _____    ______ ____
ROOT
ATOM      1  C   UNL     1       2.124   3.405  20.765  0.00  0.00    +0.000 C 
ATOM      2  N   UNL     1       2.503   4.089  19.532  0.00  0.00    +0.000 N 
ATOM      3  C   UNL     1       2.311   5.448  19.543  0.00  0.00    +0.000 A 
ATOM      4  N   UNL     1       1.839   6.103  20.578  0.00  0.00    +0.000 NA
ATOM      5  C   UNL     1       1.575   7.429  20.267  0.00  0.00    +0.000 A 
ATOM      6  C   UNL     1       1.872   7.802  18.973  0.00  0.00    +0.000 A 
ATOM      7  S   UNL     1       2.662   6.474  18.205  0.00  0.00    +0.000 S 
ENDROOT
BRANCH   5   8
ATOM      8  C   UNL     1       0.995   8.318  21.315  0.00  0.00    +0.000 A 
ATOM      9  C   UNL     1      -0.358   8.436  21.584  0.00  0.00    +0.000 A 
ATOM     10  C   UNL     1      -0.482   9.326  22.676  0.00  0.00    +0.000 A 
ATOM     11  C   UNL     1       0.793   9.756  22.959  0.00  0.00    +0.000 A 
ATOM     12  O   UNL     1       1.694   9.136  22.155  0.00  0.00    +0.000 OA
ENDBRANCH   5   8
BRANCH   6  13
ATOM     13  C   UNL     1       1.780   9.091  18.302  0.00  0.00    +0.000 C 
ATOM     14  O   UNL     1       2.638   9.504  17.521  0.00  0.00    +0.000 OA
BRANCH  13  15
ATOM     15  C   UNL     1       0.569   9.948  18.488  0.00  0.00    +0.000 A 
ATOM     16  C   UNL     1       0.686  11.132  19.234  0.00  0.00    +0.000 A 
ATOM     17  C   UNL     1      -0.403  12.000  19.353  0.00  0.00    +0.000 A 
ATOM     18  C   UNL     1      -1.612  11.697  18.727  0.00  0.00    +0.000 A 
ATOM     19  C   UNL     1      -1.750  10.509  18.013  0.00  0.00    +0.000 A 
ATOM     20  C   UNL     1      -0.673   9.624  17.918  0.00  0.00    +0.000 A 
ENDBRANCH  13  15
ENDBRANCH   6  13
BRANCH   2  21
ATOM     21  C   UNL     1       3.493   3.506  18.615  0.00  0.00    +0.000 C 
BRANCH  21  22
ATOM     22  C   UNL     1       4.925   4.052  18.705  0.00  0.00    +0.000 C 
BRANCH  22  23
ATOM     23  C   UNL     1       5.600   4.289  17.380  0.00  0.00    +0.000 A 
ATOM     24  C   UNL     1       5.083   4.226  16.100  0.00  0.00    +0.000 A 
ATOM     25  C   UNL     1       6.041   4.572  15.105  0.00  0.00    +0.000 A 
ATOM     26  C   UNL     1       7.264   4.880  15.652  0.00  0.00    +0.000 A 
ATOM     27  S   UNL     1       7.255   4.750  17.355  0.00  0.00    +0.000 S 
ENDBRANCH  22  23
ENDBRANCH  21  22
ENDBRANCH   2  21
TORSDOF 6
ENDMDL
MODEL 8
REMARK VINA RESULT:      -7.4      1.041      1.396
REMARK  Name = 
REMARK  7 active torsions:
REMARK  status: ('A' for Active; 'I' for Inactive)
REMARK    1  A    between atoms: C_1  and  N_2
REMARK    2  A    between atoms: N_2  and  C_3
REMARK    3  A    between atoms: C_3  and  C_4
REMARK    4  A    between atoms: C_4  and  C_5
REMARK    5  A    between atoms: C_12  and  C_13
REMARK    6  A    between atoms: C_18  and  C_19
REMARK    7  A    between atoms: C_19  and  C_21
REMARK                            x       y       z     vdW  Elec       q    Type
REMARK                         _______ _______ _______ _____ _____    ______ ____
ROOT
ATOM      1  C   UNL     1       0.068   9.089  21.187  0.00  0.00    +0.000 C 
ATOM      2  N   UNL     1       0.942   9.266  20.030  0.00  0.00    +0.000 N 
ATOM      3  C   UNL     1       1.562   8.122  19.594  0.00  0.00    +0.000 A 
ATOM      4  N   UNL     1       1.384   6.946  20.151  0.00  0.00    +0.000 NA
ATOM      5  C   UNL     1       2.259   6.000  19.637  0.00  0.00    +0.000 A 
ATOM      6  C   UNL     1       3.109   6.455  18.651  0.00  0.00    +0.000 A 
ATOM      7  S   UNL     1       2.654   8.074  18.263  0.00  0.00    +0.000 S 
ENDROOT
BRANCH   5   8
ATOM      8  C   UNL     1       2.227   4.611  20.181  0.00  0.00    +0.000 A 
ATOM      9  C   UNL     1       2.368   4.290  21.520  0.00  0.00    +0.000 A 
ATOM     10  C   UNL     1       2.220   2.887  21.622  0.00  0.00    +0.000 A 
ATOM     11  C   UNL     1       2.072   2.429  20.334  0.00  0.00    +0.000 A 
ATOM     12  O   UNL     1       2.054   3.466  19.458  0.00  0.00    +0.000 OA
ENDBRANCH   5   8
BRANCH   6  13
ATOM     13  C   UNL     1       4.112   5.763  17.856  0.00  0.00    +0.000 C 
ATOM     14  O   UNL     1       3.827   4.984  16.946  0.00  0.00    +0.000 OA
BRANCH  13  15
ATOM     15  C   UNL     1       5.565   6.041  18.074  0.00  0.00    +0.000 A 
ATOM     16  C   UNL     1       6.191   7.022  17.288  0.00  0.00    +0.000 A 
ATOM     17  C   UNL     1       7.524   7.369  17.525  0.00  0.00    +0.000 A 
ATOM     18  C   UNL     1       8.239   6.746  18.547  0.00  0.00    +0.000 A 
ATOM     19  C   UNL     1       7.639   5.747  19.310  0.00  0.00    +0.000 A 
ATOM     20  C   UNL     1       6.317   5.375  19.055  0.00  0.00    +0.000 A 
ENDBRANCH  13  15
ENDBRANCH   6  13
BRANCH   2  21
ATOM     21  C   UNL     1       0.745  10.383  19.095  0.00  0.00    +0.000 C 
BRANCH  21  22
ATOM     22  C   UNL     1      -0.435  10.270  18.120  0.00  0.00    +0.000 C 
BRANCH  22  23
ATOM     23  C   UNL     1      -1.693  10.972  18.558  0.00  0.00    +0.000 A 
ATOM     24  C   UNL     1      -1.882  11.898  19.566  0.00  0.00    +0.000 A 
ATOM     25  C   UNL     1      -3.225  12.369  19.630  0.00  0.00    +0.000 A 
ATOM     26  C   UNL     1      -4.024  11.783  18.677  0.00  0.00    +0.000 A 
ATOM     27  S   UNL     1      -3.157  10.670  17.713  0.00  0.00    +0.000 S 
ENDBRANCH  22  23
ENDBRANCH  21  22
ENDBRANCH   2  21
TORSDOF 6
ENDMDL
MODEL 9
REMARK VINA RESULT:      -7.4      1.076      1.205
REMARK  Name = 
REMARK  7 active torsions:
REMARK  status: ('A' for Active; 'I' for Inactive)
REMARK    1  A    between atoms: C_1  and  N_2
REMARK    2  A    between atoms: N_2  and  C_3
REMARK    3  A    between atoms: C_3  and  C_4
REMARK    4  A    between atoms: C_4  and  C_5
REMARK    5  A    between atoms: C_12  and  C_13
REMARK    6  A    between atoms: C_18  and  C_19
REMARK    7  A    between atoms: C_19  and  C_21
REMARK                            x       y       z     vdW  Elec       q    Type
REMARK                         _______ _______ _______ _____ _____    ______ ____
ROOT
ATOM      1  C   UNL     1       1.035   9.179  21.634  0.00  0.00    +0.000 C 
ATOM      2  N   UNL     1       1.437   9.127  20.231  0.00  0.00    +0.000 N 
ATOM      3  C   UNL     1       1.742   7.873  19.765  0.00  0.00    +0.000 A 
ATOM      4  N   UNL     1       1.669   6.789  20.502  0.00  0.00    +0.000 NA
ATOM      5  C   UNL     1       2.200   5.688  19.845  0.00  0.00    +0.000 A 
ATOM      6  C   UNL     1       2.669   5.929  18.572  0.00  0.00    +0.000 A 
ATOM      7  S   UNL     1       2.261   7.552  18.154  0.00  0.00    +0.000 S 
ENDROOT
BRANCH   5   8
ATOM      8  C   UNL     1       2.236   4.373  20.549  0.00  0.00    +0.000 A 
ATOM      9  C   UNL     1       1.117   3.680  20.976  0.00  0.00    +0.000 A 
ATOM     10  C   UNL     1       1.576   2.466  21.537  0.00  0.00    +0.000 A 
ATOM     11  C   UNL     1       2.949   2.523  21.487  0.00  0.00    +0.000 A 
ATOM     12  O   UNL     1       3.357   3.662  20.872  0.00  0.00    +0.000 OA
ENDBRANCH   5   8
BRANCH   6  13
ATOM     13  C   UNL     1       3.240   5.035  17.575  0.00  0.00    +0.000 C 
ATOM     14  O   UNL     1       2.591   4.149  17.017  0.00  0.00    +0.000 OA
BRANCH  13  15
ATOM     15  C   UNL     1       4.655   5.216  17.127  0.00  0.00    +0.000 A 
ATOM     16  C   UNL     1       5.319   6.411  17.451  0.00  0.00    +0.000 A 
ATOM     17  C   UNL     1       6.668   6.578  17.126  0.00  0.00    +0.000 A 
ATOM     18  C   UNL     1       7.364   5.556  16.481  0.00  0.00    +0.000 A 
ATOM     19  C   UNL     1       6.707   4.381  16.124  0.00  0.00    +0.000 A 
ATOM     20  C   UNL     1       5.351   4.223  16.420  0.00  0.00    +0.000 A 
ENDBRANCH  13  15
ENDBRANCH   6  13
BRANCH   2  21
ATOM     21  C   UNL     1       1.020  10.170  19.284  0.00  0.00    +0.000 C 
BRANCH  21  22
ATOM     22  C   UNL     1      -0.293  10.901  19.594  0.00  0.00    +0.000 C 
BRANCH  22  23
ATOM     23  C   UNL     1      -1.355  10.782  18.532  0.00  0.00    +0.000 A 
ATOM     24  C   UNL     1      -1.406   9.960  17.422  0.00  0.00    +0.000 A 
ATOM     25  C   UNL     1      -2.615  10.112  16.685  0.00  0.00    +0.000 A 
ATOM     26  C   UNL     1      -3.448  11.051  17.247  0.00  0.00    +0.000 A 
ATOM     27  S   UNL     1      -2.772  11.745  18.655  0.00  0.00    +0.000 S 
ENDBRANCH  22  23
ENDBRANCH  21  22
ENDBRANCH   2  21
TORSDOF 6
ENDMDL
