MODEL 1
REMARK VINA RESULT:      -7.3      0.000      0.000
REMARK  Name = 
REMARK  9 active torsions:
REMARK  status: ('A' for Active; 'I' for Inactive)
REMARK    1  A    between atoms: C_1  and  C_2
REMARK    2  A    between atoms: C_2  and  C_3
REMARK    3  A    between atoms: C_2  and  N_4
REMARK    4  A    between atoms: N_4  and  C_5
REMARK    5  A    between atoms: C_5  and  C_6
REMARK    6  A    between atoms: C_6  and  O_7
REMARK    7  A    between atoms: C_6  and  C_8
REMARK    8  A    between atoms: C_8  and  O_9
REMARK    9  A    between atoms: O_9  and  C_10
REMARK                            x       y       z     vdW  Elec       q    Type
REMARK                         _______ _______ _______ _____ _____    ______ ____
ROOT
ATOM      1  O   UNL     1       4.248   4.306  16.745  0.00  0.00    +0.000 OA
ENDROOT
BRANCH   1   2
ATOM      2  C   UNL     1       3.646   5.119  17.679  0.00  0.00    +0.000 A 
ATOM      3  C   UNL     1       3.764   6.513  17.646  0.00  0.00    +0.000 A 
ATOM      4  C   UNL     1       3.091   7.293  18.580  0.00  0.00    +0.000 A 
ATOM      5  C   UNL     1       2.288   6.694  19.550  0.00  0.00    +0.000 A 
ATOM      6 CL   UNL     1       1.490   7.762  20.656  0.00  0.00    +0.000 Cl
ATOM      7  C   UNL     1       2.140   5.288  19.609  0.00  0.00    +0.000 A 
ATOM      8  C   UNL     1       1.329   4.636  20.575  0.00  0.00    +0.000 A 
ATOM      9  C   UNL     1       1.203   3.248  20.616  0.00  0.00    +0.000 A 
ATOM     10  C   UNL     1       1.889   2.470  19.694  0.00  0.00    +0.000 A 
ATOM     11  C   UNL     1       2.691   3.083  18.729  0.00  0.00    +0.000 A 
ATOM     12  C   UNL     1       2.834   4.490  18.661  0.00  0.00    +0.000 A 
ENDBRANCH   1   2
BRANCH   1  13
ATOM     13  C   UNL     1       4.883   4.967  15.638  0.00  0.00    +0.000 C 
BRANCH  13  14
ATOM     14  C   UNL     1       6.284   4.376  15.435  0.00  0.00    +0.000 C 
BRANCH  14  15
ATOM     15  O   UNL     1       6.207   2.942  15.428  0.00  0.00    +0.000 OA
ATOM     16  H   UNL     1       7.125   2.617  15.433  0.00  0.00    +0.000 HD
ENDBRANCH  14  15
BRANCH  14  17
ATOM     17  C   UNL     1       7.243   4.844  16.540  0.00  0.00    +0.000 C 
BRANCH  17  18
ATOM     18  N   UNL     1       7.492   6.286  16.434  0.00  0.00    +0.000 NA
ATOM     19  H   UNL     1       8.460   6.420  16.123  0.00  0.00    +0.000 HD
BRANCH  18  21
ATOM     20  C   UNL     1       7.787   6.132  18.844  0.00  0.00    +0.000 C 
ATOM     21  C   UNL     1       7.262   6.999  17.697  0.00  0.00    +0.000 C 
ATOM     22  C   UNL     1       7.975   8.354  17.719  0.00  0.00    +0.000 C 
ENDBRANCH  18  21
ENDBRANCH  17  18
ENDBRANCH  14  17
ENDBRANCH  13  14
ENDBRANCH   1  13
TORSDOF 7
ENDMDL
MODEL 2
REMARK VINA RESULT:      -7.2      1.424      2.674
REMARK  Name = 
REMARK  9 active torsions:
REMARK  status: ('A' for Active; 'I' for Inactive)
REMARK    1  A    between atoms: C_1  and  C_2
REMARK    2  A    between atoms: C_2  and  C_3
REMARK    3  A    between atoms: C_2  and  N_4
REMARK    4  A    between atoms: N_4  and  C_5
REMARK    5  A    between atoms: C_5  and  C_6
REMARK    6  A    between atoms: C_6  and  O_7
REMARK    7  A    between atoms: C_6  and  C_8
REMARK    8  A    between atoms: C_8  and  O_9
REMARK    9  A    between atoms: O_9  and  C_10
REMARK                            x       y       z     vdW  Elec       q    Type
REMARK                         _______ _______ _______ _____ _____    ______ ____
ROOT
ATOM      1  O   UNL     1       3.943   4.047  16.466  0.00  0.00    +0.000 OA
ENDROOT
BRANCH   1   2
ATOM      2  C   UNL     1       3.266   3.721  17.619  0.00  0.00    +0.000 A 
ATOM      3  C   UNL     1       3.038   2.394  18.004  0.00  0.00    +0.000 A 
ATOM      4  C   UNL     1       2.397   2.116  19.206  0.00  0.00    +0.000 A 
ATOM      5  C   UNL     1       1.982   3.155  20.039  0.00  0.00    +0.000 A 
ATOM      6 CL   UNL     1       1.201   2.693  21.515  0.00  0.00    +0.000 Cl
ATOM      7  C   UNL     1       2.200   4.507  19.685  0.00  0.00    +0.000 A 
ATOM      8  C   UNL     1       1.800   5.595  20.505  0.00  0.00    +0.000 A 
ATOM      9  C   UNL     1       2.022   6.920  20.131  0.00  0.00    +0.000 A 
ATOM     10  C   UNL     1       2.647   7.196  18.924  0.00  0.00    +0.000 A 
ATOM     11  C   UNL     1       3.056   6.146  18.098  0.00  0.00    +0.000 A 
ATOM     12  C   UNL     1       2.848   4.792  18.454  0.00  0.00    +0.000 A 
ENDBRANCH   1   2
BRANCH   1  13
ATOM     13  C   UNL     1       5.233   3.439  16.289  0.00  0.00    +0.000 C 
BRANCH  13  14
ATOM     14  C   UNL     1       6.052   4.274  15.297  0.00  0.00    +0.000 C 
BRANCH  14  15
ATOM     15  O   UNL     1       6.334   3.492  14.126  0.00  0.00    +0.000 OA
ATOM     16  H   UNL     1       7.208   3.781  13.806  0.00  0.00    +0.000 HD
ENDBRANCH  14  15
BRANCH  14  17
ATOM     17  C   UNL     1       7.364   4.754  15.935  0.00  0.00    +0.000 C 
BRANCH  17  18
ATOM     18  N   UNL     1       7.387   6.217  16.034  0.00  0.00    +0.000 NA
ATOM     19  H   UNL     1       8.314   6.542  15.738  0.00  0.00    +0.000 HD
BRANCH  18  21
ATOM     20  C   UNL     1       7.597   5.669  18.395  0.00  0.00    +0.000 C 
ATOM     21  C   UNL     1       7.089   6.703  17.387  0.00  0.00    +0.000 C 
ATOM     22  C   UNL     1       7.759   8.052  17.664  0.00  0.00    +0.000 C 
ENDBRANCH  18  21
ENDBRANCH  17  18
ENDBRANCH  14  17
ENDBRANCH  13  14
ENDBRANCH   1  13
TORSDOF 7
ENDMDL
MODEL 3
REMARK VINA RESULT:      -7.2      1.577      2.900
REMARK  Name = 
REMARK  9 active torsions:
REMARK  status: ('A' for Active; 'I' for Inactive)
REMARK    1  A    between atoms: C_1  and  C_2
REMARK    2  A    between atoms: C_2  and  C_3
REMARK    3  A    between atoms: C_2  and  N_4
REMARK    4  A    between atoms: N_4  and  C_5
REMARK    5  A    between atoms: C_5  and  C_6
REMARK    6  A    between atoms: C_6  and  O_7
REMARK    7  A    between atoms: C_6  and  C_8
REMARK    8  A    between atoms: C_8  and  O_9
REMARK    9  A    between atoms: O_9  and  C_10
REMARK                            x       y       z     vdW  Elec       q    Type
REMARK                         _______ _______ _______ _____ _____    ______ ____
ROOT
ATOM      1  O   UNL     1       3.679   3.909  16.392  0.00  0.00    +0.000 OA
ENDROOT
BRANCH   1   2
ATOM      2  C   UNL     1       3.070   3.606  17.590  0.00  0.00    +0.000 A 
ATOM      3  C   UNL     1       2.851   2.288  18.006  0.00  0.00    +0.000 A 
ATOM      4  C   UNL     1       2.283   2.033  19.249  0.00  0.00    +0.000 A 
ATOM      5  C   UNL     1       1.932   3.087  20.092  0.00  0.00    +0.000 A 
ATOM      6 CL   UNL     1       1.239   2.654  21.619  0.00  0.00    +0.000 Cl
ATOM      7  C   UNL     1       2.144   4.432  19.707  0.00  0.00    +0.000 A 
ATOM      8  C   UNL     1       1.808   5.536  20.535  0.00  0.00    +0.000 A 
ATOM      9  C   UNL     1       2.022   6.853  20.130  0.00  0.00    +0.000 A 
ATOM     10  C   UNL     1       2.574   7.105  18.883  0.00  0.00    +0.000 A 
ATOM     11  C   UNL     1       2.919   6.040  18.048  0.00  0.00    +0.000 A 
ATOM     12  C   UNL     1       2.717   4.694  18.434  0.00  0.00    +0.000 A 
ENDBRANCH   1   2
BRANCH   1  13
ATOM     13  C   UNL     1       5.091   3.657  16.312  0.00  0.00    +0.000 C 
BRANCH  13  14
ATOM     14  C   UNL     1       5.727   4.656  15.338  0.00  0.00    +0.000 C 
BRANCH  14  15
ATOM     15  O   UNL     1       5.781   4.082  14.023  0.00  0.00    +0.000 OA
ATOM     16  H   UNL     1       6.720   4.070  13.766  0.00  0.00    +0.000 HD
ENDBRANCH  14  15
BRANCH  14  17
ATOM     17  C   UNL     1       7.140   5.047  15.798  0.00  0.00    +0.000 C 
BRANCH  17  18
ATOM     18  N   UNL     1       7.438   4.461  17.110  0.00  0.00    +0.000 NA
ATOM     19  H   UNL     1       6.706   3.778  17.328  0.00  0.00    +0.000 HD
BRANCH  18  21
ATOM     20  C   UNL     1       7.500   6.856  17.535  0.00  0.00    +0.000 C 
ATOM     21  C   UNL     1       7.527   5.467  18.177  0.00  0.00    +0.000 C 
ATOM     22  C   UNL     1       6.366   5.343  19.168  0.00  0.00    +0.000 C 
ENDBRANCH  18  21
ENDBRANCH  17  18
ENDBRANCH  14  17
ENDBRANCH  13  14
ENDBRANCH   1  13
TORSDOF 7
ENDMDL
MODEL 4
REMARK VINA RESULT:      -7.2      0.737      1.150
REMARK  Name = 
REMARK  9 active torsions:
REMARK  status: ('A' for Active; 'I' for Inactive)
REMARK    1  A    between atoms: C_1  and  C_2
REMARK    2  A    between atoms: C_2  and  C_3
REMARK    3  A    between atoms: C_2  and  N_4
REMARK    4  A    between atoms: N_4  and  C_5
REMARK    5  A    between atoms: C_5  and  C_6
REMARK    6  A    between atoms: C_6  and  O_7
REMARK    7  A    between atoms: C_6  and  C_8
REMARK    8  A    between atoms: C_8  and  O_9
REMARK    9  A    between atoms: O_9  and  C_10
REMARK                            x       y       z     vdW  Elec       q    Type
REMARK                         _______ _______ _______ _____ _____    ______ ____
ROOT
ATOM      1  O   UNL     1       3.897   4.654  16.656  0.00  0.00    +0.000 OA
ENDROOT
BRANCH   1   2
ATOM      2  C   UNL     1       3.339   5.353  17.703  0.00  0.00    +0.000 A 
ATOM      3  C   UNL     1       3.406   6.748  17.793  0.00  0.00    +0.000 A 
ATOM      4  C   UNL     1       2.779   7.411  18.842  0.00  0.00    +0.000 A 
ATOM      5  C   UNL     1       2.074   6.693  19.807  0.00  0.00    +0.000 A 
ATOM      6 CL   UNL     1       1.325   7.622  21.064  0.00  0.00    +0.000 Cl
ATOM      7  C   UNL     1       1.980   5.282  19.745  0.00  0.00    +0.000 A 
ATOM      8  C   UNL     1       1.269   4.512  20.703  0.00  0.00    +0.000 A 
ATOM      9  C   UNL     1       1.196   3.122  20.622  0.00  0.00    +0.000 A 
ATOM     10  C   UNL     1       1.836   2.461  19.584  0.00  0.00    +0.000 A 
ATOM     11  C   UNL     1       2.540   3.192  18.625  0.00  0.00    +0.000 A 
ATOM     12  C   UNL     1       2.628   4.604  18.679  0.00  0.00    +0.000 A 
ENDBRANCH   1   2
BRANCH   1  13
ATOM     13  C   UNL     1       4.915   5.335  15.905  0.00  0.00    +0.000 C 
BRANCH  13  14
ATOM     14  C   UNL     1       6.069   4.365  15.626  0.00  0.00    +0.000 C 
BRANCH  14  15
ATOM     15  O   UNL     1       5.816   3.111  16.278  0.00  0.00    +0.000 OA
ATOM     16  H   UNL     1       5.059   2.709  15.816  0.00  0.00    +0.000 HD
ENDBRANCH  14  15
BRANCH  14  17
ATOM     17  C   UNL     1       7.406   4.947  16.111  0.00  0.00    +0.000 C 
BRANCH  17  18
ATOM     18  N   UNL     1       7.741   4.434  17.444  0.00  0.00    +0.000 NA
ATOM     19  H   UNL     1       7.100   3.663  17.659  0.00  0.00    +0.000 HD
BRANCH  18  21
ATOM     20  C   UNL     1       7.636   6.837  17.812  0.00  0.00    +0.000 C 
ATOM     21  C   UNL     1       7.664   5.464  18.488  0.00  0.00    +0.000 C 
ATOM     22  C   UNL     1       6.411   5.300  19.352  0.00  0.00    +0.000 C 
ENDBRANCH  18  21
ENDBRANCH  17  18
ENDBRANCH  14  17
ENDBRANCH  13  14
ENDBRANCH   1  13
TORSDOF 7
ENDMDL
MODEL 5
REMARK VINA RESULT:      -7.2      2.033      3.259
REMARK  Name = 
REMARK  9 active torsions:
REMARK  status: ('A' for Active; 'I' for Inactive)
REMARK    1  A    between atoms: C_1  and  C_2
REMARK    2  A    between atoms: C_2  and  C_3
REMARK    3  A    between atoms: C_2  and  N_4
REMARK    4  A    between atoms: N_4  and  C_5
REMARK    5  A    between atoms: C_5  and  C_6
REMARK    6  A    between atoms: C_6  and  O_7
REMARK    7  A    between atoms: C_6  and  C_8
REMARK    8  A    between atoms: C_8  and  O_9
REMARK    9  A    between atoms: O_9  and  C_10
REMARK                            x       y       z     vdW  Elec       q    Type
REMARK                         _______ _______ _______ _____ _____    ______ ____
ROOT
ATOM      1  O   UNL     1       4.791   4.574  16.256  0.00  0.00    +0.000 OA
ENDROOT
BRANCH   1   2
ATOM      2  C   UNL     1       4.062   5.138  17.279  0.00  0.00    +0.000 A 
ATOM      3  C   UNL     1       4.216   6.476  17.660  0.00  0.00    +0.000 A 
ATOM      4  C   UNL     1       3.417   7.013  18.663  0.00  0.00    +0.000 A 
ATOM      5  C   UNL     1       2.453   6.227  19.291  0.00  0.00    +0.000 A 
ATOM      6 CL   UNL     1       1.509   7.001  20.521  0.00  0.00    +0.000 Cl
ATOM      7  C   UNL     1       2.264   4.872  18.929  0.00  0.00    +0.000 A 
ATOM      8  C   UNL     1       1.291   4.037  19.538  0.00  0.00    +0.000 A 
ATOM      9  C   UNL     1       1.129   2.702  19.166  0.00  0.00    +0.000 A 
ATOM     10  C   UNL     1       1.939   2.164  18.176  0.00  0.00    +0.000 A 
ATOM     11  C   UNL     1       2.902   2.962  17.556  0.00  0.00    +0.000 A 
ATOM     12  C   UNL     1       3.086   4.320  17.910  0.00  0.00    +0.000 A 
ENDBRANCH   1   2
BRANCH   1  13
ATOM     13  C   UNL     1       6.098   4.085  16.598  0.00  0.00    +0.000 C 
BRANCH  13  14
ATOM     14  C   UNL     1       7.141   4.767  15.705  0.00  0.00    +0.000 C 
BRANCH  14  15
ATOM     15  O   UNL     1       7.382   6.102  16.176  0.00  0.00    +0.000 OA
ATOM     16  H   UNL     1       8.161   6.428  15.693  0.00  0.00    +0.000 HD
ENDBRANCH  14  15
BRANCH  14  17
ATOM     17  C   UNL     1       6.672   4.804  14.243  0.00  0.00    +0.000 C 
BRANCH  17  18
ATOM     18  N   UNL     1       6.093   3.515  13.851  0.00  0.00    +0.000 NA
ATOM     19  H   UNL     1       6.544   2.780  14.408  0.00  0.00    +0.000 HD
BRANCH  18  21
ATOM     20  C   UNL     1       4.863   3.275  11.765  0.00  0.00    +0.000 C 
ATOM     21  C   UNL     1       6.246   3.231  12.418  0.00  0.00    +0.000 C 
ATOM     22  C   UNL     1       7.161   4.252  11.735  0.00  0.00    +0.000 C 
ENDBRANCH  18  21
ENDBRANCH  17  18
ENDBRANCH  14  17
ENDBRANCH  13  14
ENDBRANCH   1  13
TORSDOF 7
ENDMDL
MODEL 6
REMARK VINA RESULT:      -7.1      2.324      3.673
REMARK  Name = 
REMARK  9 active torsions:
REMARK  status: ('A' for Active; 'I' for Inactive)
REMARK    1  A    between atoms: C_1  and  C_2
REMARK    2  A    between atoms: C_2  and  C_3
REMARK    3  A    between atoms: C_2  and  N_4
REMARK    4  A    between atoms: N_4  and  C_5
REMARK    5  A    between atoms: C_5  and  C_6
REMARK    6  A    between atoms: C_6  and  O_7
REMARK    7  A    between atoms: C_6  and  C_8
REMARK    8  A    between atoms: C_8  and  O_9
REMARK    9  A    between atoms: O_9  and  C_10
REMARK                            x       y       z     vdW  Elec       q    Type
REMARK                         _______ _______ _______ _____ _____    ______ ____
ROOT
ATOM      1  O   UNL     1       4.757   5.039  16.093  0.00  0.00    +0.000 OA
ENDROOT
BRANCH   1   2
ATOM      2  C   UNL     1       4.021   5.426  17.191  0.00  0.00    +0.000 A 
ATOM      3  C   UNL     1       4.053   6.733  17.691  0.00  0.00    +0.000 A 
ATOM      4  C   UNL     1       3.250   7.088  18.769  0.00  0.00    +0.000 A 
ATOM      5  C   UNL     1       2.402   6.148  19.354  0.00  0.00    +0.000 A 
ATOM      6 CL   UNL     1       1.441   6.702  20.685  0.00  0.00    +0.000 Cl
ATOM      7  C   UNL     1       2.339   4.820  18.871  0.00  0.00    +0.000 A 
ATOM      8  C   UNL     1       1.487   3.833  19.433  0.00  0.00    +0.000 A 
ATOM      9  C   UNL     1       1.446   2.528  18.941  0.00  0.00    +0.000 A 
ATOM     10  C   UNL     1       2.261   2.172  17.876  0.00  0.00    +0.000 A 
ATOM     11  C   UNL     1       3.106   3.122  17.301  0.00  0.00    +0.000 A 
ATOM     12  C   UNL     1       3.165   4.454  17.775  0.00  0.00    +0.000 A 
ENDBRANCH   1   2
BRANCH   1  13
ATOM     13  C   UNL     1       6.152   5.383  16.105  0.00  0.00    +0.000 C 
BRANCH  13  14
ATOM     14  C   UNL     1       6.858   4.664  14.949  0.00  0.00    +0.000 C 
BRANCH  14  15
ATOM     15  O   UNL     1       7.784   5.561  14.316  0.00  0.00    +0.000 OA
ATOM     16  H   UNL     1       8.533   5.662  14.930  0.00  0.00    +0.000 HD
ENDBRANCH  14  15
BRANCH  14  17
ATOM     17  C   UNL     1       5.841   4.149  13.920  0.00  0.00    +0.000 C 
BRANCH  17  18
ATOM     18  N   UNL     1       6.407   3.039  13.144  0.00  0.00    +0.000 NA
ATOM     19  H   UNL     1       7.426   3.150  13.126  0.00  0.00    +0.000 HD
BRANCH  18  21
ATOM     20  C   UNL     1       6.044   1.539  11.263  0.00  0.00    +0.000 C 
ATOM     21  C   UNL     1       5.879   2.972  11.775  0.00  0.00    +0.000 C 
ATOM     22  C   UNL     1       4.399   3.362  11.720  0.00  0.00    +0.000 C 
ENDBRANCH  18  21
ENDBRANCH  17  18
ENDBRANCH  14  17
ENDBRANCH  13  14
ENDBRANCH   1  13
TORSDOF 7
ENDMDL
MODEL 7
REMARK VINA RESULT:      -7.0      1.958      3.192
REMARK  Name = 
REMARK  9 active torsions:
REMARK  status: ('A' for Active; 'I' for Inactive)
REMARK    1  A    between atoms: C_1  and  C_2
REMARK    2  A    between atoms: C_2  and  C_3
REMARK    3  A    between atoms: C_2  and  N_4
REMARK    4  A    between atoms: N_4  and  C_5
REMARK    5  A    between atoms: C_5  and  C_6
REMARK    6  A    between atoms: C_6  and  O_7
REMARK    7  A    between atoms: C_6  and  C_8
REMARK    8  A    between atoms: C_8  and  O_9
REMARK    9  A    between atoms: O_9  and  C_10
REMARK                            x       y       z     vdW  Elec       q    Type
REMARK                         _______ _______ _______ _____ _____    ______ ____
ROOT
ATOM      1  O   UNL     1       4.596   5.120  16.872  0.00  0.00    +0.000 OA
ENDROOT
BRANCH   1   2
ATOM      2  C   UNL     1       3.844   5.737  17.846  0.00  0.00    +0.000 A 
ATOM      3  C   UNL     1       3.463   7.081  17.760  0.00  0.00    +0.000 A 
ATOM      4  C   UNL     1       2.657   7.643  18.742  0.00  0.00    +0.000 A 
ATOM      5  C   UNL     1       2.215   6.872  19.817  0.00  0.00    +0.000 A 
ATOM      6 CL   UNL     1       1.209   7.673  20.978  0.00  0.00    +0.000 Cl
ATOM      7  C   UNL     1       2.575   5.509  19.934  0.00  0.00    +0.000 A 
ATOM      8  C   UNL     1       2.144   4.685  21.008  0.00  0.00    +0.000 A 
ATOM      9  C   UNL     1       2.517   3.345  21.103  0.00  0.00    +0.000 A 
ATOM     10  C   UNL     1       3.336   2.790  20.130  0.00  0.00    +0.000 A 
ATOM     11  C   UNL     1       3.772   3.574  19.061  0.00  0.00    +0.000 A 
ATOM     12  C   UNL     1       3.406   4.936  18.935  0.00  0.00    +0.000 A 
ENDBRANCH   1   2
BRANCH   1  13
ATOM     13  C   UNL     1       5.723   5.859  16.372  0.00  0.00    +0.000 C 
BRANCH  13  14
ATOM     14  C   UNL     1       6.772   4.877  15.838  0.00  0.00    +0.000 C 
BRANCH  14  15
ATOM     15  O   UNL     1       7.671   5.564  14.953  0.00  0.00    +0.000 OA
ATOM     16  H   UNL     1       7.946   4.914  14.282  0.00  0.00    +0.000 HD
ENDBRANCH  14  15
BRANCH  14  17
ATOM     17  C   UNL     1       6.104   3.707  15.100  0.00  0.00    +0.000 C 
BRANCH  17  18
ATOM     18  N   UNL     1       5.461   4.172  13.866  0.00  0.00    +0.000 NA
ATOM     19  H   UNL     1       4.446   4.152  14.008  0.00  0.00    +0.000 HD
BRANCH  18  21
ATOM     20  C   UNL     1       4.640   3.359  11.725  0.00  0.00    +0.000 C 
ATOM     21  C   UNL     1       5.824   3.364  12.694  0.00  0.00    +0.000 C 
ATOM     22  C   UNL     1       7.058   3.926  11.981  0.00  0.00    +0.000 C 
ENDBRANCH  18  21
ENDBRANCH  17  18
ENDBRANCH  14  17
ENDBRANCH  13  14
ENDBRANCH   1  13
TORSDOF 7
ENDMDL
MODEL 8
REMARK VINA RESULT:      -7.0      2.257      4.058
REMARK  Name = 
REMARK  9 active torsions:
REMARK  status: ('A' for Active; 'I' for Inactive)
REMARK    1  A    between atoms: C_1  and  C_2
REMARK    2  A    between atoms: C_2  and  C_3
REMARK    3  A    between atoms: C_2  and  N_4
REMARK    4  A    between atoms: N_4  and  C_5
REMARK    5  A    between atoms: C_5  and  C_6
REMARK    6  A    between atoms: C_6  and  O_7
REMARK    7  A    between atoms: C_6  and  C_8
REMARK    8  A    between atoms: C_8  and  O_9
REMARK    9  A    between atoms: O_9  and  C_10
REMARK                            x       y       z     vdW  Elec       q    Type
REMARK                         _______ _______ _______ _____ _____    ______ ____
ROOT
ATOM      1  O   UNL     1       4.299   4.214  16.562  0.00  0.00    +0.000 OA
ENDROOT
BRANCH   1   2
ATOM      2  C   UNL     1       3.618   3.809  17.687  0.00  0.00    +0.000 A 
ATOM      3  C   UNL     1       3.538   2.465  18.071  0.00  0.00    +0.000 A 
ATOM      4  C   UNL     1       2.885   2.112  19.246  0.00  0.00    +0.000 A 
ATOM      5  C   UNL     1       2.312   3.093  20.055  0.00  0.00    +0.000 A 
ATOM      6 CL   UNL     1       1.531   2.541  21.500  0.00  0.00    +0.000 Cl
ATOM      7  C   UNL     1       2.379   4.462  19.702  0.00  0.00    +0.000 A 
ATOM      8  C   UNL     1       1.815   5.493  20.498  0.00  0.00    +0.000 A 
ATOM      9  C   UNL     1       1.890   6.835  20.126  0.00  0.00    +0.000 A 
ATOM     10  C   UNL     1       2.528   7.184  18.944  0.00  0.00    +0.000 A 
ATOM     11  C   UNL     1       3.096   6.191  18.143  0.00  0.00    +0.000 A 
ATOM     12  C   UNL     1       3.039   4.822  18.497  0.00  0.00    +0.000 A 
ENDBRANCH   1   2
BRANCH   1  13
ATOM     13  C   UNL     1       5.547   4.892  16.780  0.00  0.00    +0.000 C 
BRANCH  13  14
ATOM     14  C   UNL     1       6.657   4.166  16.011  0.00  0.00    +0.000 C 
BRANCH  14  15
ATOM     15  O   UNL     1       7.927   4.436  16.624  0.00  0.00    +0.000 OA
ATOM     16  H   UNL     1       8.321   3.570  16.834  0.00  0.00    +0.000 HD
ENDBRANCH  14  15
BRANCH  14  17
ATOM     17  C   UNL     1       6.683   4.604  14.539  0.00  0.00    +0.000 C 
BRANCH  17  18
ATOM     18  N   UNL     1       5.466   4.165  13.846  0.00  0.00    +0.000 NA
ATOM     19  H   UNL     1       4.881   3.660  14.519  0.00  0.00    +0.000 HD
BRANCH  18  21
ATOM     20  C   UNL     1       4.533   3.352  11.751  0.00  0.00    +0.000 C 
ATOM     21  C   UNL     1       5.748   3.315  12.682  0.00  0.00    +0.000 C 
ATOM     22  C   UNL     1       6.986   3.794  11.918  0.00  0.00    +0.000 C 
ENDBRANCH  18  21
ENDBRANCH  17  18
ENDBRANCH  14  17
ENDBRANCH  13  14
ENDBRANCH   1  13
TORSDOF 7
ENDMDL
MODEL 9
REMARK VINA RESULT:      -7.0      2.485      4.398
REMARK  Name = 
REMARK  9 active torsions:
REMARK  status: ('A' for Active; 'I' for Inactive)
REMARK    1  A    between atoms: C_1  and  C_2
REMARK    2  A    between atoms: C_2  and  C_3
REMARK    3  A    between atoms: C_2  and  N_4
REMARK    4  A    between atoms: N_4  and  C_5
REMARK    5  A    between atoms: C_5  and  C_6
REMARK    6  A    between atoms: C_6  and  O_7
REMARK    7  A    between atoms: C_6  and  C_8
REMARK    8  A    between atoms: C_8  and  O_9
REMARK    9  A    between atoms: O_9  and  C_10
REMARK                            x       y       z     vdW  Elec       q    Type
REMARK                         _______ _______ _______ _____ _____    ______ ____
ROOT
ATOM      1  O   UNL     1       4.656   3.927  16.261  0.00  0.00    +0.000 OA
ENDROOT
BRANCH   1   2
ATOM      2  C   UNL     1       3.845   3.674  17.345  0.00  0.00    +0.000 A 
ATOM      3  C   UNL     1       3.575   2.375  17.792  0.00  0.00    +0.000 A 
ATOM      4  C   UNL     1       2.794   2.175  18.924  0.00  0.00    +0.000 A 
ATOM      5  C   UNL     1       2.281   3.264  19.628  0.00  0.00    +0.000 A 
ATOM      6 CL   UNL     1       1.329   2.897  21.029  0.00  0.00    +0.000 Cl
ATOM      7  C   UNL     1       2.539   4.591  19.210  0.00  0.00    +0.000 A 
ATOM      8  C   UNL     1       2.042   5.729  19.898  0.00  0.00    +0.000 A 
ATOM      9  C   UNL     1       2.306   7.027  19.462  0.00  0.00    +0.000 A 
ATOM     10  C   UNL     1       3.072   7.225  18.322  0.00  0.00    +0.000 A 
ATOM     11  C   UNL     1       3.577   6.125  17.626  0.00  0.00    +0.000 A 
ATOM     12  C   UNL     1       3.329   4.796  18.047  0.00  0.00    +0.000 A 
ENDBRANCH   1   2
BRANCH   1  13
ATOM     13  C   UNL     1       6.046   4.154  16.544  0.00  0.00    +0.000 C 
BRANCH  13  14
ATOM     14  C   UNL     1       6.800   4.367  15.225  0.00  0.00    +0.000 C 
BRANCH  14  15
ATOM     15  O   UNL     1       7.295   5.713  15.163  0.00  0.00    +0.000 OA
ATOM     16  H   UNL     1       7.974   5.789  15.857  0.00  0.00    +0.000 HD
ENDBRANCH  14  15
BRANCH  14  17
ATOM     17  C   UNL     1       5.888   4.089  14.020  0.00  0.00    +0.000 C 
BRANCH  17  18
ATOM     18  N   UNL     1       6.493   3.091  13.131  0.00  0.00    +0.000 NA
ATOM     19  H   UNL     1       7.489   3.316  13.030  0.00  0.00    +0.000 HD
BRANCH  18  21
ATOM     20  C   UNL     1       5.934   1.599  11.292  0.00  0.00    +0.000 C 
ATOM     21  C   UNL     1       5.850   3.036  11.812  0.00  0.00    +0.000 C 
ATOM     22  C   UNL     1       4.381   3.464  11.881  0.00  0.00    +0.000 C 
ENDBRANCH  18  21
ENDBRANCH  17  18
ENDBRANCH  14  17
ENDBRANCH  13  14
ENDBRANCH   1  13
TORSDOF 7
ENDMDL
