MODEL 1
REMARK VINA RESULT:      -7.2      0.000      0.000
REMARK  Name = 
REMARK  8 active torsions:
REMARK  status: ('A' for Active; 'I' for Inactive)
REMARK    1  A    between atoms: C_1  and  C_2
REMARK    2  A    between atoms: C_9  and  C_10
REMARK    3  A    between atoms: C_10  and  C_11
REMARK    4  A    between atoms: C_15  and  C_16
REMARK    5  A    between atoms: C_16  and  C_17
REMARK    6  A    between atoms: N_22  and  C_23
REMARK    7  A    between atoms: C_26  and  C_27
REMARK    8  A    between atoms: C_31  and  C_32
REMARK                            x       y       z     vdW  Elec       q    Type
REMARK                         _______ _______ _______ _____ _____    ______ ____
ROOT
ATOM      1  C   UNL     1      -6.881  12.257  18.423  0.00  0.00    +0.000 C 
ATOM      2  C   UNL     1      -7.058  12.997  17.075  0.00  0.00    +0.000 C 
ATOM      3  C   UNL     1      -6.875  14.520  17.092  0.00  0.00    +0.000 C 
ATOM      4  C   UNL     1      -7.591  15.148  18.282  0.00  0.00    +0.000 C 
ATOM      5  C   UNL     1      -7.179  14.460  19.583  0.00  0.00    +0.000 C 
ATOM      6  N   UNL     1      -7.536  13.025  19.508  0.00  0.00    +0.000 NA
ATOM      7  H   UNL     1      -8.546  12.966  19.359  0.00  0.00    +0.000 HD
ENDROOT
BRANCH   1   8
ATOM      8  C   UNL     1      -5.509  11.773  18.986  0.00  0.00    +0.000 C 
BRANCH   8  17
ATOM      9  C   UNL     1       1.188   9.603  19.701  0.00  0.00    +0.000 C 
ATOM     10  C   UNL     1       0.229  10.001  18.600  0.00  0.00    +0.000 C 
ATOM     11  O   UNL     1       0.282   9.386  17.538  0.00  0.00    +0.000 OA
ATOM     12  N   UNL     1      -0.664  11.040  18.881  0.00  0.00    +0.000 N 
ATOM     13  C   UNL     1      -0.457  11.904  20.042  0.00  0.00    +0.000 C 
ATOM     14  C   UNL     1      -1.727  11.976  20.849  0.00  0.00    +0.000 C 
ATOM     15  C   UNL     1      -2.800  12.603  19.989  0.00  0.00    +0.000 C 
ATOM     16  C   UNL     1      -2.986  11.912  18.656  0.00  0.00    +0.000 C 
ATOM     17  C   UNL     1      -4.226  11.628  18.182  0.00  0.00    +0.000 C 
ATOM     18  C   UNL     1      -4.416  10.872  16.877  0.00  0.00    +0.000 C 
ATOM     19  C   UNL     1      -3.220  10.955  15.930  0.00  0.00    +0.000 C 
ATOM     20  C   UNL     1      -3.415  10.006  14.741  0.00  0.00    +0.000 C 
ATOM     21  C   UNL     1      -1.950  10.601  16.698  0.00  0.00    +0.000 C 
ATOM     22  C   UNL     1      -1.685  11.534  17.900  0.00  0.00    +0.000 C 
ENDBRANCH   8  17
ENDBRANCH   1   8
BRANCH   5  23
ATOM     23  C   UNL     1      -5.707  14.819  19.965  0.00  0.00    +0.000 C 
BRANCH  23  24
ATOM     24  C   UNL     1      -5.574  15.348  21.389  0.00  0.00    +0.000 C 
ATOM     25  C   UNL     1      -5.362  14.614  22.512  0.00  0.00    +0.000 C 
ATOM     26  C   UNL     1      -5.317  13.101  22.591  0.00  0.00    +0.000 C 
ATOM     27  C   UNL     1      -4.073  12.630  23.335  0.00  0.00    +0.000 C 
ATOM     28  C   UNL     1      -3.979  13.308  24.703  0.00  0.00    +0.000 C 
ATOM     29  N   UNL     1      -3.991  14.775  24.622  0.00  0.00    +0.000 NA
ATOM     30  C   UNL     1      -2.721  15.279  24.096  0.00  0.00    +0.000 C 
ATOM     31  C   UNL     1      -5.192  15.262  23.894  0.00  0.00    +0.000 C 
ATOM     32  C   UNL     1      -5.286  16.806  23.900  0.00  0.00    +0.000 C 
ATOM     33  C   UNL     1      -6.226  17.355  22.828  0.00  0.00    +0.000 C 
ATOM     34  C   UNL     1      -7.695  17.017  23.084  0.00  0.00    +0.000 C 
ATOM     35  C   UNL     1      -5.750  16.852  21.466  0.00  0.00    +0.000 C 
ENDBRANCH  23  24
ENDBRANCH   5  23
TORSDOF 4
ENDMDL
MODEL 2
REMARK VINA RESULT:      -7.2      3.806      7.101
REMARK  Name = 
REMARK  8 active torsions:
REMARK  status: ('A' for Active; 'I' for Inactive)
REMARK    1  A    between atoms: C_1  and  C_2
REMARK    2  A    between atoms: C_9  and  C_10
REMARK    3  A    between atoms: C_10  and  C_11
REMARK    4  A    between atoms: C_15  and  C_16
REMARK    5  A    between atoms: C_16  and  C_17
REMARK    6  A    between atoms: N_22  and  C_23
REMARK    7  A    between atoms: C_26  and  C_27
REMARK    8  A    between atoms: C_31  and  C_32
REMARK                            x       y       z     vdW  Elec       q    Type
REMARK                         _______ _______ _______ _____ _____    ______ ____
ROOT
ATOM      1  C   UNL     1       1.421  10.046  17.786  0.00  0.00    +0.000 C 
ATOM      2  C   UNL     1       2.144  11.413  17.852  0.00  0.00    +0.000 C 
ATOM      3  C   UNL     1       1.473  12.511  18.688  0.00  0.00    +0.000 C 
ATOM      4  C   UNL     1      -0.024  12.576  18.413  0.00  0.00    +0.000 C 
ATOM      5  C   UNL     1      -0.662  11.197  18.577  0.00  0.00    +0.000 C 
ATOM      6  N   UNL     1      -0.037  10.256  17.620  0.00  0.00    +0.000 NA
ATOM      7  H   UNL     1      -0.188  10.627  16.679  0.00  0.00    +0.000 HD
ENDROOT
BRANCH   1   8
ATOM      8  C   UNL     1       1.589   8.912  18.843  0.00  0.00    +0.000 C 
BRANCH   8  17
ATOM      9  C   UNL     1       1.605   1.841  19.135  0.00  0.00    +0.000 C 
ATOM     10  C   UNL     1       2.533   2.969  18.738  0.00  0.00    +0.000 C 
ATOM     11  O   UNL     1       3.266   2.799  17.767  0.00  0.00    +0.000 OA
ATOM     12  N   UNL     1       2.477   4.137  19.506  0.00  0.00    +0.000 N 
ATOM     13  C   UNL     1       1.807   4.141  20.805  0.00  0.00    +0.000 C 
ATOM     14  C   UNL     1       0.828   5.285  20.863  0.00  0.00    +0.000 C 
ATOM     15  C   UNL     1       1.601   6.577  20.736  0.00  0.00    +0.000 C 
ATOM     16  C   UNL     1       2.496   6.627  19.517  0.00  0.00    +0.000 C 
ATOM     17  C   UNL     1       2.541   7.730  18.727  0.00  0.00    +0.000 C 
ATOM     18  C   UNL     1       3.384   7.760  17.463  0.00  0.00    +0.000 C 
ATOM     19  C   UNL     1       4.531   6.751  17.457  0.00  0.00    +0.000 C 
ATOM     20  C   UNL     1       5.197   6.709  16.076  0.00  0.00    +0.000 C 
ATOM     21  C   UNL     1       3.987   5.375  17.834  0.00  0.00    +0.000 C 
ATOM     22  C   UNL     1       3.320   5.345  19.226  0.00  0.00    +0.000 C 
ENDBRANCH   8  17
ENDBRANCH   1   8
BRANCH   5  23
ATOM     23  C   UNL     1      -0.706  10.775  20.081  0.00  0.00    +0.000 C 
BRANCH  23  24
ATOM     24  C   UNL     1      -1.118  11.916  21.006  0.00  0.00    +0.000 C 
ATOM     25  C   UNL     1      -2.295  12.593  20.986  0.00  0.00    +0.000 C 
ATOM     26  C   UNL     1      -3.403  12.423  19.965  0.00  0.00    +0.000 C 
ATOM     27  C   UNL     1      -4.752  12.235  20.651  0.00  0.00    +0.000 C 
ATOM     28  C   UNL     1      -5.012  13.373  21.639  0.00  0.00    +0.000 C 
ATOM     29  N   UNL     1      -3.952  13.516  22.646  0.00  0.00    +0.000 NA
ATOM     30  C   UNL     1      -4.010  12.428  23.624  0.00  0.00    +0.000 C 
ATOM     31  C   UNL     1      -2.623  13.695  22.005  0.00  0.00    +0.000 C 
ATOM     32  C   UNL     1      -1.511  13.966  23.044  0.00  0.00    +0.000 C 
ATOM     33  C   UNL     1      -0.105  13.725  22.497  0.00  0.00    +0.000 C 
ATOM     34  C   UNL     1       0.306  14.736  21.425  0.00  0.00    +0.000 C 
ATOM     35  C   UNL     1      -0.025  12.286  21.989  0.00  0.00    +0.000 C 
ENDBRANCH  23  24
ENDBRANCH   5  23
TORSDOF 4
ENDMDL
MODEL 3
REMARK VINA RESULT:      -7.2      5.380      8.513
REMARK  Name = 
REMARK  8 active torsions:
REMARK  status: ('A' for Active; 'I' for Inactive)
REMARK    1  A    between atoms: C_1  and  C_2
REMARK    2  A    between atoms: C_9  and  C_10
REMARK    3  A    between atoms: C_10  and  C_11
REMARK    4  A    between atoms: C_15  and  C_16
REMARK    5  A    between atoms: C_16  and  C_17
REMARK    6  A    between atoms: N_22  and  C_23
REMARK    7  A    between atoms: C_26  and  C_27
REMARK    8  A    between atoms: C_31  and  C_32
REMARK                            x       y       z     vdW  Elec       q    Type
REMARK                         _______ _______ _______ _____ _____    ______ ____
ROOT
ATOM      1  C   UNL     1       0.880   8.747  21.432  0.00  0.00    +0.000 C 
ATOM      2  C   UNL     1      -0.654   8.953  21.463  0.00  0.00    +0.000 C 
ATOM      3  C   UNL     1      -1.173  10.345  21.082  0.00  0.00    +0.000 C 
ATOM      4  C   UNL     1      -0.353  11.441  21.751  0.00  0.00    +0.000 C 
ATOM      5  C   UNL     1       1.138  11.241  21.479  0.00  0.00    +0.000 C 
ATOM      6  N   UNL     1       1.558   9.927  22.018  0.00  0.00    +0.000 NA
ATOM      7  H   UNL     1       1.359   9.929  23.021  0.00  0.00    +0.000 HD
ENDROOT
BRANCH   1   8
ATOM      8  C   UNL     1       1.688   8.357  20.156  0.00  0.00    +0.000 C 
BRANCH   8  17
ATOM      9  C   UNL     1       7.175   4.702  17.585  0.00  0.00    +0.000 C 
ATOM     10  C   UNL     1       5.817   4.441  18.198  0.00  0.00    +0.000 C 
ATOM     11  O   UNL     1       5.700   3.479  18.954  0.00  0.00    +0.000 OA
ATOM     12  N   UNL     1       4.789   5.330  17.866  0.00  0.00    +0.000 N 
ATOM     13  C   UNL     1       4.937   6.251  16.741  0.00  0.00    +0.000 C 
ATOM     14  C   UNL     1       4.606   7.651  17.190  0.00  0.00    +0.000 C 
ATOM     15  C   UNL     1       3.159   7.679  17.625  0.00  0.00    +0.000 C 
ATOM     16  C   UNL     1       2.821   6.631  18.662  0.00  0.00    +0.000 C 
ATOM     17  C   UNL     1       2.076   6.942  19.754  0.00  0.00    +0.000 C 
ATOM     18  C   UNL     1       1.792   5.911  20.834  0.00  0.00    +0.000 C 
ATOM     19  C   UNL     1       1.909   4.464  20.358  0.00  0.00    +0.000 C 
ATOM     20  C   UNL     1       1.808   3.502  21.547  0.00  0.00    +0.000 C 
ATOM     21  C   UNL     1       3.239   4.284  19.631  0.00  0.00    +0.000 C 
ATOM     22  C   UNL     1       3.395   5.213  18.408  0.00  0.00    +0.000 C 
ENDBRANCH   8  17
ENDBRANCH   1   8
BRANCH   5  23
ATOM     23  C   UNL     1       1.482  11.551  19.986  0.00  0.00    +0.000 C 
BRANCH  23  24
ATOM     24  C   UNL     1       1.317  13.026  19.632  0.00  0.00    +0.000 C 
ATOM     25  C   UNL     1       2.099  14.054  20.052  0.00  0.00    +0.000 C 
ATOM     26  C   UNL     1       3.239  13.957  21.047  0.00  0.00    +0.000 C 
ATOM     27  C   UNL     1       4.495  14.630  20.505  0.00  0.00    +0.000 C 
ATOM     28  C   UNL     1       4.190  16.065  20.076  0.00  0.00    +0.000 C 
ATOM     29  N   UNL     1       3.106  16.154  19.088  0.00  0.00    +0.000 NA
ATOM     30  C   UNL     1       3.553  15.678  17.778  0.00  0.00    +0.000 C 
ATOM     31  C   UNL     1       1.869  15.500  19.589  0.00  0.00    +0.000 C 
ATOM     32  C   UNL     1       0.681  15.685  18.615  0.00  0.00    +0.000 C 
ATOM     33  C   UNL     1      -0.456  14.694  18.858  0.00  0.00    +0.000 C 
ATOM     34  C   UNL     1      -1.184  14.924  20.182  0.00  0.00    +0.000 C 
ATOM     35  C   UNL     1       0.109  13.278  18.751  0.00  0.00    +0.000 C 
ENDBRANCH  23  24
ENDBRANCH   5  23
TORSDOF 4
ENDMDL
MODEL 4
REMARK VINA RESULT:      -7.0      3.997      7.442
REMARK  Name = 
REMARK  8 active torsions:
REMARK  status: ('A' for Active; 'I' for Inactive)
REMARK    1  A    between atoms: C_1  and  C_2
REMARK    2  A    between atoms: C_9  and  C_10
REMARK    3  A    between atoms: C_10  and  C_11
REMARK    4  A    between atoms: C_15  and  C_16
REMARK    5  A    between atoms: C_16  and  C_17
REMARK    6  A    between atoms: N_22  and  C_23
REMARK    7  A    between atoms: C_26  and  C_27
REMARK    8  A    between atoms: C_31  and  C_32
REMARK                            x       y       z     vdW  Elec       q    Type
REMARK                         _______ _______ _______ _____ _____    ______ ____
ROOT
ATOM      1  C   UNL     1       1.599   9.646  18.118  0.00  0.00    +0.000 C 
ATOM      2  C   UNL     1       2.376  10.985  18.145  0.00  0.00    +0.000 C 
ATOM      3  C   UNL     1       1.683  12.173  18.825  0.00  0.00    +0.000 C 
ATOM      4  C   UNL     1       0.222  12.273  18.404  0.00  0.00    +0.000 C 
ATOM      5  C   UNL     1      -0.492  10.938  18.613  0.00  0.00    +0.000 C 
ATOM      6  N   UNL     1       0.175   9.898  17.797  0.00  0.00    +0.000 NA
ATOM      7  H   UNL     1       0.128  10.196  16.821  0.00  0.00    +0.000 HD
ENDROOT
BRANCH   1   8
ATOM      8  C   UNL     1       1.618   8.597  19.271  0.00  0.00    +0.000 C 
BRANCH   8  17
ATOM      9  C   UNL     1       7.393   4.773  17.822  0.00  0.00    +0.000 C 
ATOM     10  C   UNL     1       5.990   4.566  18.349  0.00  0.00    +0.000 C 
ATOM     11  O   UNL     1       5.824   3.735  19.239  0.00  0.00    +0.000 OA
ATOM     12  N   UNL     1       4.978   5.352  17.787  0.00  0.00    +0.000 N 
ATOM     13  C   UNL     1       5.210   6.084  16.544  0.00  0.00    +0.000 C 
ATOM     14  C   UNL     1       4.810   7.525  16.726  0.00  0.00    +0.000 C 
ATOM     15  C   UNL     1       3.328   7.571  17.023  0.00  0.00    +0.000 C 
ATOM     16  C   UNL     1       2.918   6.693  18.184  0.00  0.00    +0.000 C 
ATOM     17  C   UNL     1       2.071   7.150  19.142  0.00  0.00    +0.000 C 
ATOM     18  C   UNL     1       1.710   6.297  20.347  0.00  0.00    +0.000 C 
ATOM     19  C   UNL     1       1.901   4.797  20.127  0.00  0.00    +0.000 C 
ATOM     20  C   UNL     1       1.711   4.037  21.445  0.00  0.00    +0.000 C 
ATOM     21  C   UNL     1       3.295   4.550  19.558  0.00  0.00    +0.000 C 
ATOM     22  C   UNL     1       3.543   5.274  18.217  0.00  0.00    +0.000 C 
ENDBRANCH   8  17
ENDBRANCH   1   8
BRANCH   5  23
ATOM     23  C   UNL     1      -0.693  10.643  20.135  0.00  0.00    +0.000 C 
BRANCH  23  24
ATOM     24  C   UNL     1      -1.172  11.861  20.919  0.00  0.00    +0.000 C 
ATOM     25  C   UNL     1      -2.308  12.572  20.700  0.00  0.00    +0.000 C 
ATOM     26  C   UNL     1      -3.285  12.361  19.560  0.00  0.00    +0.000 C 
ATOM     27  C   UNL     1      -4.716  12.268  20.077  0.00  0.00    +0.000 C 
ATOM     28  C   UNL     1      -5.052  13.483  20.942  0.00  0.00    +0.000 C 
ATOM     29  N   UNL     1      -4.122  13.667  22.065  0.00  0.00    +0.000 NA
ATOM     30  C   UNL     1      -4.347  12.657  23.100  0.00  0.00    +0.000 C 
ATOM     31  C   UNL     1      -2.717  13.756  21.589  0.00  0.00    +0.000 C 
ATOM     32  C   UNL     1      -1.734  14.068  22.742  0.00  0.00    +0.000 C 
ATOM     33  C   UNL     1      -0.281  13.743  22.397  0.00  0.00    +0.000 C 
ATOM     34  C   UNL     1       0.302  14.658  21.320  0.00  0.00    +0.000 C 
ATOM     35  C   UNL     1      -0.197  12.268  22.006  0.00  0.00    +0.000 C 
ENDBRANCH  23  24
ENDBRANCH   5  23
TORSDOF 4
ENDMDL
MODEL 5
REMARK VINA RESULT:      -6.8      2.369      5.748
REMARK  Name = 
REMARK  8 active torsions:
REMARK  status: ('A' for Active; 'I' for Inactive)
REMARK    1  A    between atoms: C_1  and  C_2
REMARK    2  A    between atoms: C_9  and  C_10
REMARK    3  A    between atoms: C_10  and  C_11
REMARK    4  A    between atoms: C_15  and  C_16
REMARK    5  A    between atoms: C_16  and  C_17
REMARK    6  A    between atoms: N_22  and  C_23
REMARK    7  A    between atoms: C_26  and  C_27
REMARK    8  A    between atoms: C_31  and  C_32
REMARK                            x       y       z     vdW  Elec       q    Type
REMARK                         _______ _______ _______ _____ _____    ______ ____
ROOT
ATOM      1  C   UNL     1       0.100  11.274  19.229  0.00  0.00    +0.000 C 
ATOM      2  C   UNL     1       0.027   9.745  19.464  0.00  0.00    +0.000 C 
ATOM      3  C   UNL     1      -0.130   9.276  20.915  0.00  0.00    +0.000 C 
ATOM      4  C   UNL     1       0.807  10.035  21.846  0.00  0.00    +0.000 C 
ATOM      5  C   UNL     1       0.642  11.544  21.662  0.00  0.00    +0.000 C 
ATOM      6  N   UNL     1       0.960  11.900  20.261  0.00  0.00    +0.000 NA
ATOM      7  H   UNL     1       1.922  11.606  20.079  0.00  0.00    +0.000 HD
ENDROOT
BRANCH   1   8
ATOM      8  C   UNL     1      -1.145  12.199  19.066  0.00  0.00    +0.000 C 
BRANCH   8  17
ATOM      9  C   UNL     1      -7.695  14.672  18.041  0.00  0.00    +0.000 C 
ATOM     10  C   UNL     1      -6.834  13.507  17.605  0.00  0.00    +0.000 C 
ATOM     11  O   UNL     1      -6.946  13.108  16.448  0.00  0.00    +0.000 OA
ATOM     12  N   UNL     1      -5.958  12.974  18.556  0.00  0.00    +0.000 N 
ATOM     13  C   UNL     1      -6.106  13.307  19.972  0.00  0.00    +0.000 C 
ATOM     14  C   UNL     1      -4.782  13.771  20.521  0.00  0.00    +0.000 C 
ATOM     15  C   UNL     1      -3.797  12.630  20.412  0.00  0.00    +0.000 C 
ATOM     16  C   UNL     1      -3.689  12.056  19.016  0.00  0.00    +0.000 C 
ATOM     17  C   UNL     1      -2.479  11.785  18.463  0.00  0.00    +0.000 C 
ATOM     18  C   UNL     1      -2.362  11.275  17.036  0.00  0.00    +0.000 C 
ATOM     19  C   UNL     1      -3.627  10.599  16.512  0.00  0.00    +0.000 C 
ATOM     20  C   UNL     1      -3.491  10.301  15.014  0.00  0.00    +0.000 C 
ATOM     21  C   UNL     1      -4.825  11.509  16.772  0.00  0.00    +0.000 C 
ATOM     22  C   UNL     1      -5.029  11.832  18.268  0.00  0.00    +0.000 C 
ENDBRANCH   8  17
ENDBRANCH   1   8
BRANCH   5  23
ATOM     23  C   UNL     1      -0.726  12.032  22.239  0.00  0.00    +0.000 C 
BRANCH  23  24
ATOM     24  C   UNL     1      -0.772  13.540  22.465  0.00  0.00    +0.000 C 
ATOM     25  C   UNL     1      -1.752  14.235  23.098  0.00  0.00    +0.000 C 
ATOM     26  C   UNL     1      -3.056  13.665  23.619  0.00  0.00    +0.000 C 
ATOM     27  C   UNL     1      -3.298  14.089  25.063  0.00  0.00    +0.000 C 
ATOM     28  C   UNL     1      -3.210  15.609  25.196  0.00  0.00    +0.000 C 
ATOM     29  N   UNL     1      -1.933  16.158  24.719  0.00  0.00    +0.000 NA
ATOM     30  C   UNL     1      -0.849  15.844  25.652  0.00  0.00    +0.000 C 
ATOM     31  C   UNL     1      -1.668  15.754  23.313  0.00  0.00    +0.000 C 
ATOM     32  C   UNL     1      -0.388  16.417  22.753  0.00  0.00    +0.000 C 
ATOM     33  C   UNL     1       0.155  15.718  21.507  0.00  0.00    +0.000 C 
ATOM     34  C   UNL     1      -0.755  15.867  20.287  0.00  0.00    +0.000 C 
ATOM     35  C   UNL     1       0.417  14.253  21.853  0.00  0.00    +0.000 C 
ENDBRANCH  23  24
ENDBRANCH   5  23
TORSDOF 4
ENDMDL
MODEL 6
REMARK VINA RESULT:      -6.7      4.722      8.230
REMARK  Name = 
REMARK  8 active torsions:
REMARK  status: ('A' for Active; 'I' for Inactive)
REMARK    1  A    between atoms: C_1  and  C_2
REMARK    2  A    between atoms: C_9  and  C_10
REMARK    3  A    between atoms: C_10  and  C_11
REMARK    4  A    between atoms: C_15  and  C_16
REMARK    5  A    between atoms: C_16  and  C_17
REMARK    6  A    between atoms: N_22  and  C_23
REMARK    7  A    between atoms: C_26  and  C_27
REMARK    8  A    between atoms: C_31  and  C_32
REMARK                            x       y       z     vdW  Elec       q    Type
REMARK                         _______ _______ _______ _____ _____    ______ ____
ROOT
ATOM      1  C   UNL     1       0.948   8.515  21.762  0.00  0.00    +0.000 C 
ATOM      2  C   UNL     1      -0.572   8.648  22.027  0.00  0.00    +0.000 C 
ATOM      3  C   UNL     1      -1.198  10.027  21.785  0.00  0.00    +0.000 C 
ATOM      4  C   UNL     1      -0.334  11.136  22.371  0.00  0.00    +0.000 C 
ATOM      5  C   UNL     1       1.107  11.015  21.874  0.00  0.00    +0.000 C 
ATOM      6  N   UNL     1       1.656   9.704  22.291  0.00  0.00    +0.000 NA
ATOM      7  H   UNL     1       1.609   9.661  23.311  0.00  0.00    +0.000 HD
ENDROOT
BRANCH   1   8
ATOM      8  C   UNL     1       1.572   8.209  20.365  0.00  0.00    +0.000 C 
BRANCH   8  17
ATOM      9  C   UNL     1       7.051   4.768  17.499  0.00  0.00    +0.000 C 
ATOM     10  C   UNL     1       5.695   4.459  18.095  0.00  0.00    +0.000 C 
ATOM     11  O   UNL     1       5.581   3.442  18.775  0.00  0.00    +0.000 OA
ATOM     12  N   UNL     1       4.665   5.370  17.837  0.00  0.00    +0.000 N 
ATOM     13  C   UNL     1       4.809   6.375  16.785  0.00  0.00    +0.000 C 
ATOM     14  C   UNL     1       4.479   7.736  17.342  0.00  0.00    +0.000 C 
ATOM     15  C   UNL     1       3.033   7.729  17.783  0.00  0.00    +0.000 C 
ATOM     16  C   UNL     1       2.699   6.604  18.738  0.00  0.00    +0.000 C 
ATOM     17  C   UNL     1       1.959   6.830  19.854  0.00  0.00    +0.000 C 
ATOM     18  C   UNL     1       1.680   5.718  20.852  0.00  0.00    +0.000 C 
ATOM     19  C   UNL     1       1.795   4.313  20.265  0.00  0.00    +0.000 C 
ATOM     20  C   UNL     1       1.700   3.262  21.378  0.00  0.00    +0.000 C 
ATOM     21  C   UNL     1       3.123   4.190  19.522  0.00  0.00    +0.000 C 
ATOM     22  C   UNL     1       3.273   5.210  18.373  0.00  0.00    +0.000 C 
ENDBRANCH   8  17
ENDBRANCH   1   8
BRANCH   5  23
ATOM     23  C   UNL     1       1.211  11.394  20.362  0.00  0.00    +0.000 C 
BRANCH  23  24
ATOM     24  C   UNL     1       1.304  12.899  20.131  0.00  0.00    +0.000 C 
ATOM     25  C   UNL     1       0.271  13.748  19.891  0.00  0.00    +0.000 C 
ATOM     26  C   UNL     1      -1.180  13.354  19.699  0.00  0.00    +0.000 C 
ATOM     27  C   UNL     1      -2.095  14.194  20.583  0.00  0.00    +0.000 C 
ATOM     28  C   UNL     1      -1.840  15.684  20.353  0.00  0.00    +0.000 C 
ATOM     29  N   UNL     1      -0.439  16.070  20.570  0.00  0.00    +0.000 NA
ATOM     30  C   UNL     1      -0.110  16.061  21.997  0.00  0.00    +0.000 C 
ATOM     31  C   UNL     1       0.477  15.261  19.724  0.00  0.00    +0.000 C 
ATOM     32  C   UNL     1       1.946  15.731  19.849  0.00  0.00    +0.000 C 
ATOM     33  C   UNL     1       2.953  14.691  19.361  0.00  0.00    +0.000 C 
ATOM     34  C   UNL     1       2.895  14.457  17.851  0.00  0.00    +0.000 C 
ATOM     35  C   UNL     1       2.734  13.401  20.151  0.00  0.00    +0.000 C 
ENDBRANCH  23  24
ENDBRANCH   5  23
TORSDOF 4
ENDMDL
MODEL 7
REMARK VINA RESULT:      -6.7      2.876      8.077
REMARK  Name = 
REMARK  8 active torsions:
REMARK  status: ('A' for Active; 'I' for Inactive)
REMARK    1  A    between atoms: C_1  and  C_2
REMARK    2  A    between atoms: C_9  and  C_10
REMARK    3  A    between atoms: C_10  and  C_11
REMARK    4  A    between atoms: C_15  and  C_16
REMARK    5  A    between atoms: C_16  and  C_17
REMARK    6  A    between atoms: N_22  and  C_23
REMARK    7  A    between atoms: C_26  and  C_27
REMARK    8  A    between atoms: C_31  and  C_32
REMARK                            x       y       z     vdW  Elec       q    Type
REMARK                         _______ _______ _______ _____ _____    ______ ____
ROOT
ATOM      1  C   UNL     1       0.561  15.920  21.338  0.00  0.00    +0.000 C 
ATOM      2  C   UNL     1       1.198  17.019  20.452  0.00  0.00    +0.000 C 
ATOM      3  C   UNL     1       1.503  16.643  18.997  0.00  0.00    +0.000 C 
ATOM      4  C   UNL     1       2.158  15.271  18.907  0.00  0.00    +0.000 C 
ATOM      5  C   UNL     1       1.327  14.228  19.654  0.00  0.00    +0.000 C 
ATOM      6  N   UNL     1       1.222  14.620  21.078  0.00  0.00    +0.000 NA
ATOM      7  H   UNL     1       2.171  14.677  21.452  0.00  0.00    +0.000 HD
ENDROOT
BRANCH   1   8
ATOM      8  C   UNL     1      -0.970  15.634  21.417  0.00  0.00    +0.000 C 
BRANCH   8  17
ATOM      9  C   UNL     1      -7.400  13.802  23.736  0.00  0.00    +0.000 C 
ATOM     10  C   UNL     1      -5.970  13.318  23.838  0.00  0.00    +0.000 C 
ATOM     11  O   UNL     1      -5.769  12.106  23.838  0.00  0.00    +0.000 OA
ATOM     12  N   UNL     1      -4.972  14.296  23.911  0.00  0.00    +0.000 N 
ATOM     13  C   UNL     1      -5.315  15.687  24.206  0.00  0.00    +0.000 C 
ATOM     14  C   UNL     1      -4.686  16.589  23.177  0.00  0.00    +0.000 C 
ATOM     15  C   UNL     1      -3.184  16.450  23.279  0.00  0.00    +0.000 C 
ATOM     16  C   UNL     1      -2.704  15.018  23.181  0.00  0.00    +0.000 C 
ATOM     17  C   UNL     1      -1.642  14.688  22.402  0.00  0.00    +0.000 C 
ATOM     18  C   UNL     1      -1.198  13.243  22.245  0.00  0.00    +0.000 C 
ATOM     19  C   UNL     1      -1.638  12.331  23.389  0.00  0.00    +0.000 C 
ATOM     20  C   UNL     1      -1.328  10.868  23.053  0.00  0.00    +0.000 C 
ATOM     21  C   UNL     1      -3.133  12.521  23.632  0.00  0.00    +0.000 C 
ATOM     22  C   UNL     1      -3.510  13.974  23.996  0.00  0.00    +0.000 C 
ENDBRANCH   8  17
ENDBRANCH   1   8
BRANCH   5  23
ATOM     23  C   UNL     1      -0.001  13.917  18.890  0.00  0.00    +0.000 C 
BRANCH  23  24
ATOM     24  C   UNL     1      -0.233  12.424  18.683  0.00  0.00    +0.000 C 
ATOM     25  C   UNL     1      -1.418  11.767  18.773  0.00  0.00    +0.000 C 
ATOM     26  C   UNL     1      -2.741  12.370  19.202  0.00  0.00    +0.000 C 
ATOM     27  C   UNL     1      -3.845  12.025  18.210  0.00  0.00    +0.000 C 
ATOM     28  C   UNL     1      -3.915  10.514  17.991  0.00  0.00    +0.000 C 
ATOM     29  N   UNL     1      -2.640   9.936  17.544  0.00  0.00    +0.000 NA
ATOM     30  C   UNL     1      -2.363  10.295  16.152  0.00  0.00    +0.000 C 
ATOM     31  C   UNL     1      -1.542  10.262  18.492  0.00  0.00    +0.000 C 
ATOM     32  C   UNL     1      -0.217   9.565  18.104  0.00  0.00    +0.000 C 
ATOM     33  C   UNL     1       1.008  10.194  18.765  0.00  0.00    +0.000 C 
ATOM     34  C   UNL     1       1.052   9.983  20.279  0.00  0.00    +0.000 C 
ATOM     35  C   UNL     1       1.052  11.674  18.390  0.00  0.00    +0.000 C 
ENDBRANCH  23  24
ENDBRANCH   5  23
TORSDOF 4
ENDMDL
MODEL 8
REMARK VINA RESULT:      -6.7      9.949     13.300
REMARK  Name = 
REMARK  8 active torsions:
REMARK  status: ('A' for Active; 'I' for Inactive)
REMARK    1  A    between atoms: C_1  and  C_2
REMARK    2  A    between atoms: C_9  and  C_10
REMARK    3  A    between atoms: C_10  and  C_11
REMARK    4  A    between atoms: C_15  and  C_16
REMARK    5  A    between atoms: C_16  and  C_17
REMARK    6  A    between atoms: N_22  and  C_23
REMARK    7  A    between atoms: C_26  and  C_27
REMARK    8  A    between atoms: C_31  and  C_32
REMARK                            x       y       z     vdW  Elec       q    Type
REMARK                         _______ _______ _______ _____ _____    ______ ____
ROOT
ATOM      1  C   UNL     1       8.242  12.762  24.131  0.00  0.00    +0.000 C 
ATOM      2  C   UNL     1       7.598  11.474  24.700  0.00  0.00    +0.000 C 
ATOM      3  C   UNL     1       6.086  11.509  24.951  0.00  0.00    +0.000 C 
ATOM      4  C   UNL     1       5.670  12.805  25.637  0.00  0.00    +0.000 C 
ATOM      5  C   UNL     1       6.198  14.015  24.867  0.00  0.00    +0.000 C 
ATOM      6  N   UNL     1       7.676  13.950  24.814  0.00  0.00    +0.000 NA
ATOM      7  H   UNL     1       8.019  13.943  25.776  0.00  0.00    +0.000 HD
ENDROOT
BRANCH   1   8
ATOM      8  C   UNL     1       8.312  13.112  22.613  0.00  0.00    +0.000 C 
BRANCH   8  17
ATOM      9  C   UNL     1      11.486  13.469  16.298  0.00  0.00    +0.000 C 
ATOM     10  C   UNL     1      11.510  14.187  17.630  0.00  0.00    +0.000 C 
ATOM     11  O   UNL     1      11.656  15.408  17.625  0.00  0.00    +0.000 OA
ATOM     12  N   UNL     1      11.350  13.404  18.777  0.00  0.00    +0.000 N 
ATOM     13  C   UNL     1      11.484  11.950  18.709  0.00  0.00    +0.000 C 
ATOM     14  C   UNL     1      10.284  11.302  19.349  0.00  0.00    +0.000 C 
ATOM     15  C   UNL     1      10.255  11.698  20.808  0.00  0.00    +0.000 C 
ATOM     16  C   UNL     1      10.307  13.193  21.029  0.00  0.00    +0.000 C 
ATOM     17  C   UNL     1       9.478  13.799  21.918  0.00  0.00    +0.000 C 
ATOM     18  C   UNL     1       9.478  15.308  22.093  0.00  0.00    +0.000 C 
ATOM     19  C   UNL     1      10.773  15.986  21.650  0.00  0.00    +0.000 C 
ATOM     20  C   UNL     1      10.611  17.510  21.670  0.00  0.00    +0.000 C 
ATOM     21  C   UNL     1      11.136  15.502  20.248  0.00  0.00    +0.000 C 
ATOM     22  C   UNL     1      11.333  13.973  20.165  0.00  0.00    +0.000 C 
ENDBRANCH   8  17
ENDBRANCH   1   8
BRANCH   5  23
ATOM     23  C   UNL     1       5.434  14.196  23.516  0.00  0.00    +0.000 C 
BRANCH  23  24
ATOM     24  C   UNL     1       5.515  15.619  22.972  0.00  0.00    +0.000 C 
ATOM     25  C   UNL     1       5.744  15.983  21.684  0.00  0.00    +0.000 C 
ATOM     26  C   UNL     1       6.072  15.047  20.538  0.00  0.00    +0.000 C 
ATOM     27  C   UNL     1       5.178  15.325  19.334  0.00  0.00    +0.000 C 
ATOM     28  C   UNL     1       5.249  16.802  18.945  0.00  0.00    +0.000 C 
ATOM     29  N   UNL     1       4.900  17.707  20.049  0.00  0.00    +0.000 NA
ATOM     30  C   UNL     1       3.462  17.672  20.318  0.00  0.00    +0.000 C 
ATOM     31  C   UNL     1       5.754  17.454  21.240  0.00  0.00    +0.000 C 
ATOM     32  C   UNL     1       5.485  18.473  22.371  0.00  0.00    +0.000 C 
ATOM     33  C   UNL     1       5.998  18.008  23.733  0.00  0.00    +0.000 C 
ATOM     34  C   UNL     1       7.523  17.946  23.814  0.00  0.00    +0.000 C 
ATOM     35  C   UNL     1       5.349  16.663  24.058  0.00  0.00    +0.000 C 
ENDBRANCH  23  24
ENDBRANCH   5  23
TORSDOF 4
ENDMDL
MODEL 9
REMARK VINA RESULT:      -6.7      2.090      5.377
REMARK  Name = 
REMARK  8 active torsions:
REMARK  status: ('A' for Active; 'I' for Inactive)
REMARK    1  A    between atoms: C_1  and  C_2
REMARK    2  A    between atoms: C_9  and  C_10
REMARK    3  A    between atoms: C_10  and  C_11
REMARK    4  A    between atoms: C_15  and  C_16
REMARK    5  A    between atoms: C_16  and  C_17
REMARK    6  A    between atoms: N_22  and  C_23
REMARK    7  A    between atoms: C_26  and  C_27
REMARK    8  A    between atoms: C_31  and  C_32
REMARK                            x       y       z     vdW  Elec       q    Type
REMARK                         _______ _______ _______ _____ _____    ______ ____
ROOT
ATOM      1  C   UNL     1      -1.216  15.421  23.596  0.00  0.00    +0.000 C 
ATOM      2  C   UNL     1      -1.638  15.562  25.079  0.00  0.00    +0.000 C 
ATOM      3  C   UNL     1      -3.051  15.091  25.443  0.00  0.00    +0.000 C 
ATOM      4  C   UNL     1      -4.074  15.575  24.424  0.00  0.00    +0.000 C 
ATOM      5  C   UNL     1      -3.643  15.198  23.007  0.00  0.00    +0.000 C 
ATOM      6  N   UNL     1      -2.335  15.827  22.714  0.00  0.00    +0.000 NA
ATOM      7  H   UNL     1      -2.451  16.838  22.811  0.00  0.00    +0.000 HD
ENDROOT
BRANCH   1   8
ATOM      8  C   UNL     1      -0.608  14.125  22.975  0.00  0.00    +0.000 C 
BRANCH   8  17
ATOM      9  C   UNL     1      -2.335   9.832  17.622  0.00  0.00    +0.000 C 
ATOM     10  C   UNL     1      -1.608  11.139  17.847  0.00  0.00    +0.000 C 
ATOM     11  O   UNL     1      -1.738  12.025  17.005  0.00  0.00    +0.000 OA
ATOM     12  N   UNL     1      -0.844  11.249  19.014  0.00  0.00    +0.000 N 
ATOM     13  C   UNL     1      -0.506  10.060  19.794  0.00  0.00    +0.000 C 
ATOM     14  C   UNL     1      -0.867  10.287  21.240  0.00  0.00    +0.000 C 
ATOM     15  C   UNL     1      -0.036  11.436  21.760  0.00  0.00    +0.000 C 
ATOM     16  C   UNL     1      -0.146  12.690  20.920  0.00  0.00    +0.000 C 
ATOM     17  C   UNL     1      -0.314  13.907  21.499  0.00  0.00    +0.000 C 
ATOM     18  C   UNL     1      -0.495  15.160  20.658  0.00  0.00    +0.000 C 
ATOM     19  C   UNL     1       0.057  15.042  19.239  0.00  0.00    +0.000 C 
ATOM     20  C   UNL     1      -0.346  16.264  18.406  0.00  0.00    +0.000 C 
ATOM     21  C   UNL     1      -0.472  13.759  18.602  0.00  0.00    +0.000 C 
ATOM     22  C   UNL     1      -0.082  12.486  19.384  0.00  0.00    +0.000 C 
ENDBRANCH   8  17
ENDBRANCH   1   8
BRANCH   5  23
ATOM     23  C   UNL     1      -3.772  13.659  22.773  0.00  0.00    +0.000 C 
BRANCH  23  24
ATOM     24  C   UNL     1      -5.219  13.200  22.617  0.00  0.00    +0.000 C 
ATOM     25  C   UNL     1      -5.983  13.292  21.498  0.00  0.00    +0.000 C 
ATOM     26  C   UNL     1      -5.586  13.968  20.201  0.00  0.00    +0.000 C 
ATOM     27  C   UNL     1      -5.843  13.053  19.009  0.00  0.00    +0.000 C 
ATOM     28  C   UNL     1      -7.291  12.562  19.013  0.00  0.00    +0.000 C 
ATOM     29  N   UNL     1      -7.665  11.880  20.260  0.00  0.00    +0.000 NA
ATOM     30  C   UNL     1      -7.039  10.558  20.340  0.00  0.00    +0.000 C 
ATOM     31  C   UNL     1      -7.419  12.748  21.441  0.00  0.00    +0.000 C 
ATOM     32  C   UNL     1      -7.916  12.095  22.752  0.00  0.00    +0.000 C 
ATOM     33  C   UNL     1      -7.310  12.727  24.005  0.00  0.00    +0.000 C 
ATOM     34  C   UNL     1      -7.784  14.160  24.247  0.00  0.00    +0.000 C 
ATOM     35  C   UNL     1      -5.788  12.635  23.903  0.00  0.00    +0.000 C 
ENDBRANCH  23  24
ENDBRANCH   5  23
TORSDOF 4
ENDMDL
