MODEL 1
REMARK VINA RESULT:      -7.0      0.000      0.000
REMARK  Name = 
REMARK  10 active torsions:
REMARK  status: ('A' for Active; 'I' for Inactive)
REMARK    1  A    between atoms: C_2  and  C_3
REMARK    2  A    between atoms: C_3  and  C_4
REMARK    3  A    between atoms: C_4  and  C_5
REMARK    4  A    between atoms: C_5  and  C_6
REMARK    5  A    between atoms: C_6  and  C_7
REMARK    6  A    between atoms: C_7  and  C_8
REMARK    7  A    between atoms: C_8  and  C_9
REMARK    8  A    between atoms: C_9  and  C_10
REMARK    9  A    between atoms: C_10  and  C_11
REMARK   10  A    between atoms: N_13  and  C_14
REMARK                            x       y       z     vdW  Elec       q    Type
REMARK                         _______ _______ _______ _____ _____    ______ ____
ROOT
ATOM      1  C   UNL     1       4.696   5.535  17.390  0.00  0.00    +0.000 C 
ATOM      2  O   UNL     1       5.064   6.522  18.017  0.00  0.00    +0.000 OA
ATOM      3  N   UNL     1       3.945   4.531  17.951  0.00  0.00    +0.000 N 
ATOM      4  H   UNL     1       3.795   3.672  17.428  0.00  0.00    +0.000 HD
ENDROOT
BRANCH   3   5
ATOM      5  C   UNL     1       3.518   4.555  19.348  0.00  0.00    +0.000 C 
ATOM      6  C   UNL     1       1.998   4.665  19.452  0.00  0.00    +0.000 C 
ATOM      7  C   UNL     1       1.523   4.401  20.867  0.00  0.00    +0.000 C 
ATOM      8  C   UNL     1       1.977   3.044  21.335  0.00  0.00    +0.000 C 
ATOM      9  O   UNL     1       1.298   2.332  22.067  0.00  0.00    +0.000 OA
ATOM     10  N   UNL     1       3.234   2.665  20.941  0.00  0.00    +0.000 N 
ATOM     11  C   UNL     1       4.031   3.261  19.997  0.00  0.00    +0.000 C 
ATOM     12  O   UNL     1       5.115   2.759  19.695  0.00  0.00    +0.000 OA
ATOM     13  H   UNL     1       3.556   1.774  21.295  0.00  0.00    +0.000 HD
ENDBRANCH   3   5
BRANCH   1  14
ATOM     14  C   UNL     1       4.998   5.305  15.921  0.00  0.00    +0.000 C 
BRANCH  14  15
ATOM     15  C   UNL     1       6.089   4.254  15.733  0.00  0.00    +0.000 C 
BRANCH  15  16
ATOM     16  C   UNL     1       6.675   4.292  14.324  0.00  0.00    +0.000 C 
BRANCH  16  17
ATOM     17  C   UNL     1       5.623   3.884  13.293  0.00  0.00    +0.000 C 
BRANCH  17  18
ATOM     18  C   UNL     1       6.162   2.813  12.347  0.00  0.00    +0.000 C 
BRANCH  18  19
ATOM     19  C   UNL     1       5.240   2.631  11.145  0.00  0.00    +0.000 C 
BRANCH  19  20
ATOM     20  C   UNL     1       3.950   3.429  11.317  0.00  0.00    +0.000 C 
BRANCH  20  21
ATOM     21  C   UNL     1       2.911   3.020  10.272  0.00  0.00    +0.000 C 
BRANCH  21  23
ATOM     22  C   UNL     1       2.331   5.099   9.005  0.00  0.00    +0.000 C 
ATOM     23  C   UNL     1       2.957   3.922   9.071  0.00  0.00    +0.000 C 
ENDBRANCH  21  23
ENDBRANCH  20  21
ENDBRANCH  19  20
ENDBRANCH  18  19
ENDBRANCH  17  18
ENDBRANCH  16  17
ENDBRANCH  15  16
ENDBRANCH  14  15
ENDBRANCH   1  14
TORSDOF 10
ENDMDL
MODEL 2
REMARK VINA RESULT:      -6.8      1.517      2.004
REMARK  Name = 
REMARK  10 active torsions:
REMARK  status: ('A' for Active; 'I' for Inactive)
REMARK    1  A    between atoms: C_2  and  C_3
REMARK    2  A    between atoms: C_3  and  C_4
REMARK    3  A    between atoms: C_4  and  C_5
REMARK    4  A    between atoms: C_5  and  C_6
REMARK    5  A    between atoms: C_6  and  C_7
REMARK    6  A    between atoms: C_7  and  C_8
REMARK    7  A    between atoms: C_8  and  C_9
REMARK    8  A    between atoms: C_9  and  C_10
REMARK    9  A    between atoms: C_10  and  C_11
REMARK   10  A    between atoms: N_13  and  C_14
REMARK                            x       y       z     vdW  Elec       q    Type
REMARK                         _______ _______ _______ _____ _____    ______ ____
ROOT
ATOM      1  C   UNL     1       5.699   5.423  18.534  0.00  0.00    +0.000 C 
ATOM      2  O   UNL     1       5.086   6.436  18.214  0.00  0.00    +0.000 OA
ATOM      3  N   UNL     1       5.087   4.324  19.086  0.00  0.00    +0.000 N 
ATOM      4  H   UNL     1       5.661   3.575  19.465  0.00  0.00    +0.000 HD
ENDROOT
BRANCH   3   5
ATOM      5  C   UNL     1       3.649   4.269  19.339  0.00  0.00    +0.000 C 
ATOM      6  C   UNL     1       2.861   4.467  18.046  0.00  0.00    +0.000 C 
ATOM      7  C   UNL     1       1.396   4.126  18.237  0.00  0.00    +0.000 C 
ATOM      8  C   UNL     1       1.240   2.712  18.727  0.00  0.00    +0.000 C 
ATOM      9  O   UNL     1       0.308   1.990  18.388  0.00  0.00    +0.000 OA
ATOM     10  N   UNL     1       2.177   2.284  19.630  0.00  0.00    +0.000 N 
ATOM     11  C   UNL     1       3.357   2.898  19.967  0.00  0.00    +0.000 C 
ATOM     12  O   UNL     1       4.138   2.353  20.748  0.00  0.00    +0.000 OA
ATOM     13  H   UNL     1       2.045   1.349  19.994  0.00  0.00    +0.000 HD
ENDBRANCH   3   5
BRANCH   1  14
ATOM     14  C   UNL     1       7.193   5.242  18.342  0.00  0.00    +0.000 C 
BRANCH  14  15
ATOM     15  C   UNL     1       7.499   4.387  17.115  0.00  0.00    +0.000 C 
BRANCH  15  16
ATOM     16  C   UNL     1       6.317   4.339  16.151  0.00  0.00    +0.000 C 
BRANCH  16  17
ATOM     17  C   UNL     1       6.775   4.633  14.722  0.00  0.00    +0.000 C 
BRANCH  17  18
ATOM     18  C   UNL     1       5.796   4.061  13.699  0.00  0.00    +0.000 C 
BRANCH  18  19
ATOM     19  C   UNL     1       6.535   3.280  12.615  0.00  0.00    +0.000 C 
BRANCH  19  20
ATOM     20  C   UNL     1       5.581   2.840  11.508  0.00  0.00    +0.000 C 
BRANCH  20  21
ATOM     21  C   UNL     1       4.158   3.325  11.788  0.00  0.00    +0.000 C 
BRANCH  21  23
ATOM     22  C   UNL     1       3.142   4.179   9.667  0.00  0.00    +0.000 C 
ATOM     23  C   UNL     1       3.289   3.206  10.569  0.00  0.00    +0.000 C 
ENDBRANCH  21  23
ENDBRANCH  20  21
ENDBRANCH  19  20
ENDBRANCH  18  19
ENDBRANCH  17  18
ENDBRANCH  16  17
ENDBRANCH  15  16
ENDBRANCH  14  15
ENDBRANCH   1  14
TORSDOF 10
ENDMDL
MODEL 3
REMARK VINA RESULT:      -6.7      4.740      7.778
REMARK  Name = 
REMARK  10 active torsions:
REMARK  status: ('A' for Active; 'I' for Inactive)
REMARK    1  A    between atoms: C_2  and  C_3
REMARK    2  A    between atoms: C_3  and  C_4
REMARK    3  A    between atoms: C_4  and  C_5
REMARK    4  A    between atoms: C_5  and  C_6
REMARK    5  A    between atoms: C_6  and  C_7
REMARK    6  A    between atoms: C_7  and  C_8
REMARK    7  A    between atoms: C_8  and  C_9
REMARK    8  A    between atoms: C_9  and  C_10
REMARK    9  A    between atoms: C_10  and  C_11
REMARK   10  A    between atoms: N_13  and  C_14
REMARK                            x       y       z     vdW  Elec       q    Type
REMARK                         _______ _______ _______ _____ _____    ______ ____
ROOT
ATOM      1  C   UNL     1       6.103   4.316  16.558  0.00  0.00    +0.000 C 
ATOM      2  O   UNL     1       5.932   3.778  15.470  0.00  0.00    +0.000 OA
ATOM      3  N   UNL     1       5.109   4.429  17.500  0.00  0.00    +0.000 N 
ATOM      4  H   UNL     1       5.264   5.011  18.318  0.00  0.00    +0.000 HD
ENDROOT
BRANCH   3   5
ATOM      5  C   UNL     1       3.759   3.912  17.283  0.00  0.00    +0.000 C 
ATOM      6  C   UNL     1       3.609   2.513  17.877  0.00  0.00    +0.000 C 
ATOM      7  C   UNL     1       2.154   2.087  17.919  0.00  0.00    +0.000 C 
ATOM      8  C   UNL     1       1.335   3.074  18.706  0.00  0.00    +0.000 C 
ATOM      9  O   UNL     1       0.390   2.739  19.413  0.00  0.00    +0.000 OA
ATOM     10  N   UNL     1       1.669   4.393  18.544  0.00  0.00    +0.000 N 
ATOM     11  C   UNL     1       2.788   4.905  17.940  0.00  0.00    +0.000 C 
ATOM     12  O   UNL     1       2.988   6.122  17.935  0.00  0.00    +0.000 OA
ATOM     13  H   UNL     1       1.087   5.058  19.037  0.00  0.00    +0.000 HD
ENDBRANCH   3   5
BRANCH   1  14
ATOM     14  C   UNL     1       7.426   4.902  17.014  0.00  0.00    +0.000 C 
BRANCH  14  15
ATOM     15  C   UNL     1       7.342   5.421  18.448  0.00  0.00    +0.000 C 
BRANCH  15  16
ATOM     16  C   UNL     1       8.024   6.779  18.599  0.00  0.00    +0.000 C 
BRANCH  16  17
ATOM     17  C   UNL     1       7.681   7.687  17.418  0.00  0.00    +0.000 C 
BRANCH  17  18
ATOM     18  C   UNL     1       7.938   9.154  17.756  0.00  0.00    +0.000 C 
BRANCH  18  19
ATOM     19  C   UNL     1       8.917   9.282  18.920  0.00  0.00    +0.000 C 
BRANCH  19  20
ATOM     20  C   UNL     1       9.508  10.688  18.989  0.00  0.00    +0.000 C 
BRANCH  20  21
ATOM     21  C   UNL     1       9.472  11.227  20.419  0.00  0.00    +0.000 C 
BRANCH  21  23
ATOM     22  C   UNL     1      10.412  13.468  21.017  0.00  0.00    +0.000 C 
ATOM     23  C   UNL     1      10.596  12.192  20.670  0.00  0.00    +0.000 C 
ENDBRANCH  21  23
ENDBRANCH  20  21
ENDBRANCH  19  20
ENDBRANCH  18  19
ENDBRANCH  17  18
ENDBRANCH  16  17
ENDBRANCH  15  16
ENDBRANCH  14  15
ENDBRANCH   1  14
TORSDOF 10
ENDMDL
MODEL 4
REMARK VINA RESULT:      -6.6      1.605      1.860
REMARK  Name = 
REMARK  10 active torsions:
REMARK  status: ('A' for Active; 'I' for Inactive)
REMARK    1  A    between atoms: C_2  and  C_3
REMARK    2  A    between atoms: C_3  and  C_4
REMARK    3  A    between atoms: C_4  and  C_5
REMARK    4  A    between atoms: C_5  and  C_6
REMARK    5  A    between atoms: C_6  and  C_7
REMARK    6  A    between atoms: C_7  and  C_8
REMARK    7  A    between atoms: C_8  and  C_9
REMARK    8  A    between atoms: C_9  and  C_10
REMARK    9  A    between atoms: C_10  and  C_11
REMARK   10  A    between atoms: N_13  and  C_14
REMARK                            x       y       z     vdW  Elec       q    Type
REMARK                         _______ _______ _______ _____ _____    ______ ____
ROOT
ATOM      1  C   UNL     1       5.282   6.016  16.856  0.00  0.00    +0.000 C 
ATOM      2  O   UNL     1       4.646   6.944  16.368  0.00  0.00    +0.000 OA
ATOM      3  N   UNL     1       4.691   4.991  17.553  0.00  0.00    +0.000 N 
ATOM      4  H   UNL     1       5.277   4.331  18.058  0.00  0.00    +0.000 HD
ENDROOT
BRANCH   3   5
ATOM      5  C   UNL     1       3.248   4.917  17.771  0.00  0.00    +0.000 C 
ATOM      6  C   UNL     1       2.736   3.494  17.558  0.00  0.00    +0.000 C 
ATOM      7  C   UNL     1       1.312   3.341  18.057  0.00  0.00    +0.000 C 
ATOM      8  C   UNL     1       1.218   3.713  19.512  0.00  0.00    +0.000 C 
ATOM      9  O   UNL     1       0.468   3.141  20.296  0.00  0.00    +0.000 OA
ATOM     10  N   UNL     1       1.983   4.778  19.909  0.00  0.00    +0.000 N 
ATOM     11  C   UNL     1       2.986   5.396  19.206  0.00  0.00    +0.000 C 
ATOM     12  O   UNL     1       3.640   6.302  19.727  0.00  0.00    +0.000 OA
ATOM     13  H   UNL     1       1.883   5.056  20.876  0.00  0.00    +0.000 HD
ENDBRANCH   3   5
BRANCH   1  14
ATOM     14  C   UNL     1       6.787   5.867  16.736  0.00  0.00    +0.000 C 
BRANCH  14  15
ATOM     15  C   UNL     1       7.162   4.707  15.817  0.00  0.00    +0.000 C 
BRANCH  15  16
ATOM     16  C   UNL     1       6.304   4.685  14.555  0.00  0.00    +0.000 C 
BRANCH  16  17
ATOM     17  C   UNL     1       7.184   4.656  13.306  0.00  0.00    +0.000 C 
BRANCH  17  18
ATOM     18  C   UNL     1       6.687   3.616  12.304  0.00  0.00    +0.000 C 
BRANCH  18  19
ATOM     19  C   UNL     1       5.162   3.554  12.293  0.00  0.00    +0.000 C 
BRANCH  19  20
ATOM     20  C   UNL     1       4.651   2.806  11.064  0.00  0.00    +0.000 C 
BRANCH  20  21
ATOM     21  C   UNL     1       3.179   3.125  10.803  0.00  0.00    +0.000 C 
BRANCH  21  23
ATOM     22  C   UNL     1       2.370   4.931   9.270  0.00  0.00    +0.000 C 
ATOM     23  C   UNL     1       2.988   3.762   9.455  0.00  0.00    +0.000 C 
ENDBRANCH  21  23
ENDBRANCH  20  21
ENDBRANCH  19  20
ENDBRANCH  18  19
ENDBRANCH  17  18
ENDBRANCH  16  17
ENDBRANCH  15  16
ENDBRANCH  14  15
ENDBRANCH   1  14
TORSDOF 10
ENDMDL
MODEL 5
REMARK VINA RESULT:      -6.6      1.830      2.828
REMARK  Name = 
REMARK  10 active torsions:
REMARK  status: ('A' for Active; 'I' for Inactive)
REMARK    1  A    between atoms: C_2  and  C_3
REMARK    2  A    between atoms: C_3  and  C_4
REMARK    3  A    between atoms: C_4  and  C_5
REMARK    4  A    between atoms: C_5  and  C_6
REMARK    5  A    between atoms: C_6  and  C_7
REMARK    6  A    between atoms: C_7  and  C_8
REMARK    7  A    between atoms: C_8  and  C_9
REMARK    8  A    between atoms: C_9  and  C_10
REMARK    9  A    between atoms: C_10  and  C_11
REMARK   10  A    between atoms: N_13  and  C_14
REMARK                            x       y       z     vdW  Elec       q    Type
REMARK                         _______ _______ _______ _____ _____    ______ ____
ROOT
ATOM      1  C   UNL     1       6.088   4.801  19.178  0.00  0.00    +0.000 C 
ATOM      2  O   UNL     1       5.672   5.750  19.833  0.00  0.00    +0.000 OA
ATOM      3  N   UNL     1       5.332   3.684  18.919  0.00  0.00    +0.000 N 
ATOM      4  H   UNL     1       5.775   2.871  18.500  0.00  0.00    +0.000 HD
ENDROOT
BRANCH   3   5
ATOM      5  C   UNL     1       3.961   3.534  19.403  0.00  0.00    +0.000 C 
ATOM      6  C   UNL     1       2.989   4.343  18.547  0.00  0.00    +0.000 C 
ATOM      7  C   UNL     1       1.550   3.973  18.848  0.00  0.00    +0.000 C 
ATOM      8  C   UNL     1       1.326   2.500  18.635  0.00  0.00    +0.000 C 
ATOM      9  O   UNL     1       0.275   2.045  18.194  0.00  0.00    +0.000 OA
ATOM     10  N   UNL     1       2.351   1.676  19.019  0.00  0.00    +0.000 N 
ATOM     11  C   UNL     1       3.631   2.034  19.357  0.00  0.00    +0.000 C 
ATOM     12  O   UNL     1       4.470   1.168  19.612  0.00  0.00    +0.000 OA
ATOM     13  H   UNL     1       2.180   0.684  18.918  0.00  0.00    +0.000 HD
ENDBRANCH   3   5
BRANCH   1  14
ATOM     14  C   UNL     1       7.470   4.743  18.554  0.00  0.00    +0.000 C 
BRANCH  14  15
ATOM     15  C   UNL     1       7.397   4.801  17.030  0.00  0.00    +0.000 C 
BRANCH  15  16
ATOM     16  C   UNL     1       6.904   6.159  16.539  0.00  0.00    +0.000 C 
BRANCH  16  17
ATOM     17  C   UNL     1       5.424   6.089  16.162  0.00  0.00    +0.000 C 
BRANCH  17  18
ATOM     18  C   UNL     1       5.129   4.861  15.304  0.00  0.00    +0.000 C 
BRANCH  18  19
ATOM     19  C   UNL     1       5.972   4.869  14.031  0.00  0.00    +0.000 C 
BRANCH  19  20
ATOM     20  C   UNL     1       6.211   3.449  13.522  0.00  0.00    +0.000 C 
BRANCH  20  21
ATOM     21  C   UNL     1       6.201   3.408  11.994  0.00  0.00    +0.000 C 
BRANCH  21  23
ATOM     22  C   UNL     1       3.872   3.225  11.097  0.00  0.00    +0.000 C 
ATOM     23  C   UNL     1       5.015   2.647  11.475  0.00  0.00    +0.000 C 
ENDBRANCH  21  23
ENDBRANCH  20  21
ENDBRANCH  19  20
ENDBRANCH  18  19
ENDBRANCH  17  18
ENDBRANCH  16  17
ENDBRANCH  15  16
ENDBRANCH  14  15
ENDBRANCH   1  14
TORSDOF 10
ENDMDL
MODEL 6
REMARK VINA RESULT:      -6.5      3.170      7.494
REMARK  Name = 
REMARK  10 active torsions:
REMARK  status: ('A' for Active; 'I' for Inactive)
REMARK    1  A    between atoms: C_2  and  C_3
REMARK    2  A    between atoms: C_3  and  C_4
REMARK    3  A    between atoms: C_4  and  C_5
REMARK    4  A    between atoms: C_5  and  C_6
REMARK    5  A    between atoms: C_6  and  C_7
REMARK    6  A    between atoms: C_7  and  C_8
REMARK    7  A    between atoms: C_8  and  C_9
REMARK    8  A    between atoms: C_9  and  C_10
REMARK    9  A    between atoms: C_10  and  C_11
REMARK   10  A    between atoms: N_13  and  C_14
REMARK                            x       y       z     vdW  Elec       q    Type
REMARK                         _______ _______ _______ _____ _____    ______ ____
ROOT
ATOM      1  C   UNL     1       4.964   5.650  18.213  0.00  0.00    +0.000 C 
ATOM      2  O   UNL     1       5.723   4.938  18.860  0.00  0.00    +0.000 OA
ATOM      3  N   UNL     1       4.945   5.666  16.839  0.00  0.00    +0.000 N 
ATOM      4  H   UNL     1       4.402   6.378  16.359  0.00  0.00    +0.000 HD
ENDROOT
BRANCH   3   5
ATOM      5  C   UNL     1       5.832   4.832  16.031  0.00  0.00    +0.000 C 
ATOM      6  C   UNL     1       5.137   4.381  14.748  0.00  0.00    +0.000 C 
ATOM      7  C   UNL     1       6.123   3.767  13.774  0.00  0.00    +0.000 C 
ATOM      8  C   UNL     1       7.225   4.741  13.451  0.00  0.00    +0.000 C 
ATOM      9  O   UNL     1       7.743   4.814  12.342  0.00  0.00    +0.000 OA
ATOM     10  N   UNL     1       7.666   5.514  14.493  0.00  0.00    +0.000 N 
ATOM     11  C   UNL     1       7.081   5.672  15.724  0.00  0.00    +0.000 C 
ATOM     12  O   UNL     1       7.558   6.464  16.540  0.00  0.00    +0.000 OA
ATOM     13  H   UNL     1       8.437   6.134  14.287  0.00  0.00    +0.000 HD
ENDBRANCH   3   5
BRANCH   1  14
ATOM     14  C   UNL     1       3.938   6.579  18.835  0.00  0.00    +0.000 C 
BRANCH  14  15
ATOM     15  C   UNL     1       2.562   6.398  18.198  0.00  0.00    +0.000 C 
BRANCH  15  16
ATOM     16  C   UNL     1       1.661   5.502  19.044  0.00  0.00    +0.000 C 
BRANCH  16  17
ATOM     17  C   UNL     1       1.974   5.674  20.531  0.00  0.00    +0.000 C 
BRANCH  17  18
ATOM     18  C   UNL     1       2.161   4.322  21.216  0.00  0.00    +0.000 C 
BRANCH  18  19
ATOM     19  C   UNL     1       1.077   3.337  20.784  0.00  0.00    +0.000 C 
BRANCH  19  20
ATOM     20  C   UNL     1       1.682   2.141  20.053  0.00  0.00    +0.000 C 
BRANCH  20  21
ATOM     21  C   UNL     1       1.208   2.091  18.601  0.00  0.00    +0.000 C 
BRANCH  21  23
ATOM     22  C   UNL     1       3.634   2.310  18.029  0.00  0.00    +0.000 C 
ATOM     23  C   UNL     1       2.364   2.163  17.644  0.00  0.00    +0.000 C 
ENDBRANCH  21  23
ENDBRANCH  20  21
ENDBRANCH  19  20
ENDBRANCH  18  19
ENDBRANCH  17  18
ENDBRANCH  16  17
ENDBRANCH  15  16
ENDBRANCH  14  15
ENDBRANCH   1  14
TORSDOF 10
ENDMDL
MODEL 7
REMARK VINA RESULT:      -6.5      5.077      8.042
REMARK  Name = 
REMARK  10 active torsions:
REMARK  status: ('A' for Active; 'I' for Inactive)
REMARK    1  A    between atoms: C_2  and  C_3
REMARK    2  A    between atoms: C_3  and  C_4
REMARK    3  A    between atoms: C_4  and  C_5
REMARK    4  A    between atoms: C_5  and  C_6
REMARK    5  A    between atoms: C_6  and  C_7
REMARK    6  A    between atoms: C_7  and  C_8
REMARK    7  A    between atoms: C_8  and  C_9
REMARK    8  A    between atoms: C_9  and  C_10
REMARK    9  A    between atoms: C_10  and  C_11
REMARK   10  A    between atoms: N_13  and  C_14
REMARK                            x       y       z     vdW  Elec       q    Type
REMARK                         _______ _______ _______ _____ _____    ______ ____
ROOT
ATOM      1  C   UNL     1       5.586   5.718  18.338  0.00  0.00    +0.000 C 
ATOM      2  O   UNL     1       6.299   5.075  19.101  0.00  0.00    +0.000 OA
ATOM      3  N   UNL     1       4.236   5.498  18.215  0.00  0.00    +0.000 N 
ATOM      4  H   UNL     1       3.725   5.957  17.466  0.00  0.00    +0.000 HD
ENDROOT
BRANCH   3   5
ATOM      5  C   UNL     1       3.533   4.475  18.986  0.00  0.00    +0.000 C 
ATOM      6  C   UNL     1       2.175   4.988  19.462  0.00  0.00    +0.000 C 
ATOM      7  C   UNL     1       1.320   3.860  20.005  0.00  0.00    +0.000 C 
ATOM      8  C   UNL     1       1.133   2.789  18.965  0.00  0.00    +0.000 C 
ATOM      9  O   UNL     1       0.091   2.151  18.849  0.00  0.00    +0.000 OA
ATOM     10  N   UNL     1       2.223   2.519  18.180  0.00  0.00    +0.000 N 
ATOM     11  C   UNL     1       3.378   3.251  18.071  0.00  0.00    +0.000 C 
ATOM     12  O   UNL     1       4.247   2.920  17.262  0.00  0.00    +0.000 OA
ATOM     13  H   UNL     1       2.111   1.767  17.513  0.00  0.00    +0.000 HD
ENDBRANCH   3   5
BRANCH   1  14
ATOM     14  C   UNL     1       6.090   6.847  17.458  0.00  0.00    +0.000 C 
BRANCH  14  15
ATOM     15  C   UNL     1       7.614   6.852  17.374  0.00  0.00    +0.000 C 
BRANCH  15  16
ATOM     16  C   UNL     1       8.236   7.738  18.450  0.00  0.00    +0.000 C 
BRANCH  16  17
ATOM     17  C   UNL     1       8.241   9.201  18.005  0.00  0.00    +0.000 C 
BRANCH  17  18
ATOM     18  C   UNL     1       9.150  10.046  18.895  0.00  0.00    +0.000 C 
BRANCH  18  19
ATOM     19  C   UNL     1       9.712  11.239  18.126  0.00  0.00    +0.000 C 
BRANCH  19  20
ATOM     20  C   UNL     1      10.523  12.151  19.043  0.00  0.00    +0.000 C 
BRANCH  20  21
ATOM     21  C   UNL     1      10.505  11.635  20.482  0.00  0.00    +0.000 C 
BRANCH  21  23
ATOM     22  C   UNL     1       8.822  12.286  22.215  0.00  0.00    +0.000 C 
ATOM     23  C   UNL     1       9.832  12.611  21.405  0.00  0.00    +0.000 C 
ENDBRANCH  21  23
ENDBRANCH  20  21
ENDBRANCH  19  20
ENDBRANCH  18  19
ENDBRANCH  17  18
ENDBRANCH  16  17
ENDBRANCH  15  16
ENDBRANCH  14  15
ENDBRANCH   1  14
TORSDOF 10
ENDMDL
MODEL 8
REMARK VINA RESULT:      -6.5      5.559      8.556
REMARK  Name = 
REMARK  10 active torsions:
REMARK  status: ('A' for Active; 'I' for Inactive)
REMARK    1  A    between atoms: C_2  and  C_3
REMARK    2  A    between atoms: C_3  and  C_4
REMARK    3  A    between atoms: C_4  and  C_5
REMARK    4  A    between atoms: C_5  and  C_6
REMARK    5  A    between atoms: C_6  and  C_7
REMARK    6  A    between atoms: C_7  and  C_8
REMARK    7  A    between atoms: C_8  and  C_9
REMARK    8  A    between atoms: C_9  and  C_10
REMARK    9  A    between atoms: C_10  and  C_11
REMARK   10  A    between atoms: N_13  and  C_14
REMARK                            x       y       z     vdW  Elec       q    Type
REMARK                         _______ _______ _______ _____ _____    ______ ____
ROOT
ATOM      1  C   UNL     1       7.275   5.841  19.182  0.00  0.00    +0.000 C 
ATOM      2  O   UNL     1       7.425   5.230  20.233  0.00  0.00    +0.000 OA
ATOM      3  N   UNL     1       6.216   5.621  18.335  0.00  0.00    +0.000 N 
ATOM      4  H   UNL     1       6.221   6.049  17.413  0.00  0.00    +0.000 HD
ENDROOT
BRANCH   3   5
ATOM      5  C   UNL     1       5.174   4.637  18.618  0.00  0.00    +0.000 C 
ATOM      6  C   UNL     1       3.991   5.285  19.334  0.00  0.00    +0.000 C 
ATOM      7  C   UNL     1       2.795   4.355  19.374  0.00  0.00    +0.000 C 
ATOM      8  C   UNL     1       2.396   3.943  17.982  0.00  0.00    +0.000 C 
ATOM      9  O   UNL     1       1.228   3.768  17.650  0.00  0.00    +0.000 OA
ATOM     10  N   UNL     1       3.425   3.715  17.107  0.00  0.00    +0.000 N 
ATOM     11  C   UNL     1       4.750   4.032  17.271  0.00  0.00    +0.000 C 
ATOM     12  O   UNL     1       5.553   3.830  16.359  0.00  0.00    +0.000 OA
ATOM     13  H   UNL     1       3.158   3.394  16.186  0.00  0.00    +0.000 HD
ENDBRANCH   3   5
BRANCH   1  14
ATOM     14  C   UNL     1       8.215   6.927  18.692  0.00  0.00    +0.000 C 
BRANCH  14  15
ATOM     15  C   UNL     1       7.618   7.693  17.514  0.00  0.00    +0.000 C 
BRANCH  15  16
ATOM     16  C   UNL     1       7.880   9.193  17.624  0.00  0.00    +0.000 C 
BRANCH  16  17
ATOM     17  C   UNL     1       8.851   9.488  18.766  0.00  0.00    +0.000 C 
BRANCH  17  18
ATOM     18  C   UNL     1       9.539  10.838  18.573  0.00  0.00    +0.000 C 
BRANCH  18  19
ATOM     19  C   UNL     1      10.372  11.207  19.798  0.00  0.00    +0.000 C 
BRANCH  19  20
ATOM     20  C   UNL     1       9.498  11.306  21.046  0.00  0.00    +0.000 C 
BRANCH  20  21
ATOM     21  C   UNL     1       9.547  12.716  21.636  0.00  0.00    +0.000 C 
BRANCH  21  23
ATOM     22  C   UNL     1       8.802  14.831  20.523  0.00  0.00    +0.000 C 
ATOM     23  C   UNL     1       8.525  13.613  20.995  0.00  0.00    +0.000 C 
ENDBRANCH  21  23
ENDBRANCH  20  21
ENDBRANCH  19  20
ENDBRANCH  18  19
ENDBRANCH  17  18
ENDBRANCH  16  17
ENDBRANCH  15  16
ENDBRANCH  14  15
ENDBRANCH   1  14
TORSDOF 10
ENDMDL
MODEL 9
REMARK VINA RESULT:      -6.4      5.066      7.660
REMARK  Name = 
REMARK  10 active torsions:
REMARK  status: ('A' for Active; 'I' for Inactive)
REMARK    1  A    between atoms: C_2  and  C_3
REMARK    2  A    between atoms: C_3  and  C_4
REMARK    3  A    between atoms: C_4  and  C_5
REMARK    4  A    between atoms: C_5  and  C_6
REMARK    5  A    between atoms: C_6  and  C_7
REMARK    6  A    between atoms: C_7  and  C_8
REMARK    7  A    between atoms: C_8  and  C_9
REMARK    8  A    between atoms: C_9  and  C_10
REMARK    9  A    between atoms: C_10  and  C_11
REMARK   10  A    between atoms: N_13  and  C_14
REMARK                            x       y       z     vdW  Elec       q    Type
REMARK                         _______ _______ _______ _____ _____    ______ ____
ROOT
ATOM      1  C   UNL     1       5.047   5.092  16.871  0.00  0.00    +0.000 C 
ATOM      2  O   UNL     1       4.595   4.207  16.153  0.00  0.00    +0.000 OA
ATOM      3  N   UNL     1       4.542   5.373  18.117  0.00  0.00    +0.000 N 
ATOM      4  H   UNL     1       4.857   6.208  18.604  0.00  0.00    +0.000 HD
ENDROOT
BRANCH   3   5
ATOM      5  C   UNL     1       3.419   4.636  18.695  0.00  0.00    +0.000 C 
ATOM      6  C   UNL     1       3.886   3.308  19.286  0.00  0.00    +0.000 C 
ATOM      7  C   UNL     1       2.803   2.673  20.136  0.00  0.00    +0.000 C 
ATOM      8  C   UNL     1       2.376   3.607  21.236  0.00  0.00    +0.000 C 
ATOM      9  O   UNL     1       2.054   3.215  22.353  0.00  0.00    +0.000 OA
ATOM     10  N   UNL     1       2.310   4.935  20.902  0.00  0.00    +0.000 N 
ATOM     11  C   UNL     1       2.797   5.539  19.771  0.00  0.00    +0.000 C 
ATOM     12  O   UNL     1       2.727   6.763  19.643  0.00  0.00    +0.000 OA
ATOM     13  H   UNL     1       1.978   5.556  21.628  0.00  0.00    +0.000 HD
ENDBRANCH   3   5
BRANCH   1  14
ATOM     14  C   UNL     1       6.226   5.970  16.494  0.00  0.00    +0.000 C 
BRANCH  14  15
ATOM     15  C   UNL     1       6.358   7.163  17.436  0.00  0.00    +0.000 C 
BRANCH  15  16
ATOM     16  C   UNL     1       7.799   7.660  17.522  0.00  0.00    +0.000 C 
BRANCH  16  17
ATOM     17  C   UNL     1       7.835   9.177  17.709  0.00  0.00    +0.000 C 
BRANCH  17  18
ATOM     18  C   UNL     1       8.812   9.574  18.813  0.00  0.00    +0.000 C 
BRANCH  18  19
ATOM     19  C   UNL     1       9.544  10.865  18.457  0.00  0.00    +0.000 C 
BRANCH  19  20
ATOM     20  C   UNL     1      10.483  11.293  19.582  0.00  0.00    +0.000 C 
BRANCH  20  21
ATOM     21  C   UNL     1      11.533  12.280  19.071  0.00  0.00    +0.000 C 
BRANCH  21  23
ATOM     22  C   UNL     1      12.089  13.277  16.844  0.00  0.00    +0.000 C 
ATOM     23  C   UNL     1      11.620  12.260  17.571  0.00  0.00    +0.000 C 
ENDBRANCH  21  23
ENDBRANCH  20  21
ENDBRANCH  19  20
ENDBRANCH  18  19
ENDBRANCH  17  18
ENDBRANCH  16  17
ENDBRANCH  15  16
ENDBRANCH  14  15
ENDBRANCH   1  14
TORSDOF 10
ENDMDL
