MODEL 1
REMARK VINA RESULT:      -7.2      0.000      0.000
REMARK  Name = 
REMARK  9 active torsions:
REMARK  status: ('A' for Active; 'I' for Inactive)
REMARK    1  A    between atoms: C_1  and  C_2
REMARK    2  A    between atoms: C_2  and  C_3
REMARK    3  A    between atoms: C_3  and  C_4
REMARK    4  A    between atoms: C_3  and  C_6
REMARK    5  A    between atoms: C_3  and  C_12
REMARK    6  A    between atoms: C_4  and  C_5
REMARK    7  A    between atoms: C_16  and  N_17
REMARK    8  A    between atoms: N_17  and  S_18
REMARK    9  A    between atoms: S_18  and  C_19
REMARK                            x       y       z     vdW  Elec       q    Type
REMARK                         _______ _______ _______ _____ _____    ______ ____
ROOT
ATOM      1  C   UNL     1      -0.926  11.235  18.849  0.00  0.00    +0.000 A 
ATOM      2  C   UNL     1      -1.364  12.555  18.692  0.00  0.00    +0.000 A 
ATOM      3  N   UNL     1      -2.691  12.275  19.120  0.00  0.00    +0.000 N 
ATOM      4  C   UNL     1      -3.049  11.425  18.077  0.00  0.00    +0.000 A 
ATOM      5  C   UNL     1      -4.151  11.489  17.242  0.00  0.00    +0.000 A 
ATOM      6  C   UNL     1      -4.104  10.732  16.090  0.00  0.00    +0.000 A 
ATOM      7  C   UNL     1      -2.975   9.927  15.831  0.00  0.00    +0.000 A 
ATOM      8  C   UNL     1      -1.880   9.826  16.746  0.00  0.00    +0.000 A 
ATOM      9  C   UNL     1      -1.887  10.638  17.910  0.00  0.00    +0.000 A 
ATOM     10  H   UNL     1      -2.853  11.934  20.058  0.00  0.00    +0.000 HD
ENDROOT
BRANCH   5  11
ATOM     11  N   UNL     1      -5.175  12.450  17.473  0.00  0.00    +0.000 N 
ATOM     12  H   UNL     1      -4.815  13.383  17.710  0.00  0.00    +0.000 HD
BRANCH  11  13
ATOM     13  S   UNL     1      -6.389  12.056  18.610  0.00  0.00    +0.000 S 
ATOM     14  C   UNL     1      -7.639  13.209  18.112  0.00  0.00    +0.000 C 
ATOM     15  O   UNL     1      -6.859  10.699  18.368  0.00  0.00    +0.000 OA
ATOM     16  O   UNL     1      -5.850  12.477  19.882  0.00  0.00    +0.000 OA
ENDBRANCH  11  13
ENDBRANCH   5  11
BRANCH   1  17
ATOM     17  C   UNL     1       0.034  10.872  20.034  0.00  0.00    +0.000 C 
BRANCH  17  18
ATOM     18  C   UNL     1       0.966   9.736  19.542  0.00  0.00    +0.000 A 
ATOM     19  C   UNL     1       1.467   9.691  18.217  0.00  0.00    +0.000 A 
ATOM     20  C   UNL     1       2.228   8.619  17.738  0.00  0.00    +0.000 A 
ATOM     21  C   UNL     1       2.519   7.553  18.573  0.00  0.00    +0.000 A 
ATOM     22  C   UNL     1       2.046   7.561  19.882  0.00  0.00    +0.000 A 
ATOM     23  C   UNL     1       1.284   8.638  20.359  0.00  0.00    +0.000 A 
ENDBRANCH  17  18
BRANCH  17  25
ATOM     24  C   UNL     1      -0.629  10.881  22.680  0.00  0.00    +0.000 C 
ATOM     25  C   UNL     1      -0.858  10.323  21.267  0.00  0.00    +0.000 C 
ENDBRANCH  17  25
BRANCH  17  26
ATOM     26  C   UNL     1       0.798  12.135  20.547  0.00  0.00    +0.000 C 
ATOM     27  C   UNL     1       1.910  12.681  19.625  0.00  0.00    +0.000 C 
ENDBRANCH  17  26
ENDBRANCH   1  17
TORSDOF 6
ENDMDL
MODEL 2
REMARK VINA RESULT:      -7.1      4.645      7.566
REMARK  Name = 
REMARK  9 active torsions:
REMARK  status: ('A' for Active; 'I' for Inactive)
REMARK    1  A    between atoms: C_1  and  C_2
REMARK    2  A    between atoms: C_2  and  C_3
REMARK    3  A    between atoms: C_3  and  C_4
REMARK    4  A    between atoms: C_3  and  C_6
REMARK    5  A    between atoms: C_3  and  C_12
REMARK    6  A    between atoms: C_4  and  C_5
REMARK    7  A    between atoms: C_16  and  N_17
REMARK    8  A    between atoms: N_17  and  S_18
REMARK    9  A    between atoms: S_18  and  C_19
REMARK                            x       y       z     vdW  Elec       q    Type
REMARK                         _______ _______ _______ _____ _____    ______ ____
ROOT
ATOM      1  C   UNL     1       3.427   5.675  18.738  0.00  0.00    +0.000 A 
ATOM      2  C   UNL     1       3.673   6.018  20.072  0.00  0.00    +0.000 A 
ATOM      3  N   UNL     1       2.295   6.123  20.408  0.00  0.00    +0.000 N 
ATOM      4  C   UNL     1       1.984   7.203  19.587  0.00  0.00    +0.000 A 
ATOM      5  C   UNL     1       1.366   8.397  19.918  0.00  0.00    +0.000 A 
ATOM      6  C   UNL     1       1.472   9.426  19.005  0.00  0.00    +0.000 A 
ATOM      7  C   UNL     1       2.165   9.216  17.795  0.00  0.00    +0.000 A 
ATOM      8  C   UNL     1       2.735   7.951  17.448  0.00  0.00    +0.000 A 
ATOM      9  C   UNL     1       2.681   6.896  18.397  0.00  0.00    +0.000 A 
ATOM     10  H   UNL     1       1.698   5.310  20.331  0.00  0.00    +0.000 HD
ENDROOT
BRANCH   5  11
ATOM     11  N   UNL     1       0.836   8.597  21.223  0.00  0.00    +0.000 N 
ATOM     12  H   UNL     1       0.134   7.896  21.492  0.00  0.00    +0.000 HD
BRANCH  11  13
ATOM     13  S   UNL     1       0.202  10.140  21.593  0.00  0.00    +0.000 S 
ATOM     14  C   UNL     1      -0.451   9.807  23.206  0.00  0.00    +0.000 C 
ATOM     15  O   UNL     1       1.291  11.100  21.701  0.00  0.00    +0.000 OA
ATOM     16  O   UNL     1      -0.898  10.313  20.674  0.00  0.00    +0.000 OA
ENDBRANCH  11  13
ENDBRANCH   5  11
BRANCH   1  17
ATOM     17  C   UNL     1       3.680   4.206  18.254  0.00  0.00    +0.000 C 
BRANCH  17  18
ATOM     18  C   UNL     1       4.863   4.246  17.253  0.00  0.00    +0.000 A 
ATOM     19  C   UNL     1       6.194   4.496  17.669  0.00  0.00    +0.000 A 
ATOM     20  C   UNL     1       7.251   4.631  16.762  0.00  0.00    +0.000 A 
ATOM     21  C   UNL     1       7.011   4.513  15.402  0.00  0.00    +0.000 A 
ATOM     22  C   UNL     1       5.717   4.265  14.955  0.00  0.00    +0.000 A 
ATOM     23  C   UNL     1       4.660   4.130  15.868  0.00  0.00    +0.000 A 
ENDBRANCH  17  18
BRANCH  17  25
ATOM     24  C   UNL     1       1.064   3.435  18.274  0.00  0.00    +0.000 C 
ATOM     25  C   UNL     1       2.357   3.684  17.483  0.00  0.00    +0.000 C 
ENDBRANCH  17  25
BRANCH  17  26
ATOM     26  C   UNL     1       3.913   3.247  19.466  0.00  0.00    +0.000 C 
ATOM     27  C   UNL     1       4.119   1.754  19.126  0.00  0.00    +0.000 C 
ENDBRANCH  17  26
ENDBRANCH   1  17
TORSDOF 6
ENDMDL
MODEL 3
REMARK VINA RESULT:      -6.9      7.188     10.274
REMARK  Name = 
REMARK  9 active torsions:
REMARK  status: ('A' for Active; 'I' for Inactive)
REMARK    1  A    between atoms: C_1  and  C_2
REMARK    2  A    between atoms: C_2  and  C_3
REMARK    3  A    between atoms: C_3  and  C_4
REMARK    4  A    between atoms: C_3  and  C_6
REMARK    5  A    between atoms: C_3  and  C_12
REMARK    6  A    between atoms: C_4  and  C_5
REMARK    7  A    between atoms: C_16  and  N_17
REMARK    8  A    between atoms: N_17  and  S_18
REMARK    9  A    between atoms: S_18  and  C_19
REMARK                            x       y       z     vdW  Elec       q    Type
REMARK                         _______ _______ _______ _____ _____    ______ ____
ROOT
ATOM      1  C   UNL     1       3.835   5.563  18.617  0.00  0.00    +0.000 A 
ATOM      2  C   UNL     1       3.863   5.852  17.248  0.00  0.00    +0.000 A 
ATOM      3  N   UNL     1       4.269   4.542  16.873  0.00  0.00    +0.000 N 
ATOM      4  C   UNL     1       5.519   4.551  17.486  0.00  0.00    +0.000 A 
ATOM      5  C   UNL     1       6.758   4.262  16.939  0.00  0.00    +0.000 A 
ATOM      6  C   UNL     1       7.865   4.662  17.659  0.00  0.00    +0.000 A 
ATOM      7  C   UNL     1       7.692   5.309  18.900  0.00  0.00    +0.000 A 
ATOM      8  C   UNL     1       6.401   5.534  19.474  0.00  0.00    +0.000 A 
ATOM      9  C   UNL     1       5.250   5.176  18.724  0.00  0.00    +0.000 A 
ATOM     10  H   UNL     1       3.670   3.754  17.080  0.00  0.00    +0.000 HD
ENDROOT
BRANCH   5  11
ATOM     11  N   UNL     1       6.860   3.767  15.609  0.00  0.00    +0.000 N 
ATOM     12  H   UNL     1       7.686   3.176  15.454  0.00  0.00    +0.000 HD
BRANCH  11  13
ATOM     13  S   UNL     1       6.786   4.903  14.334  0.00  0.00    +0.000 S 
ATOM     14  C   UNL     1       6.394   3.812  12.995  0.00  0.00    +0.000 C 
ATOM     15  O   UNL     1       5.671   5.813  14.558  0.00  0.00    +0.000 OA
ATOM     16  O   UNL     1       8.146   5.363  14.174  0.00  0.00    +0.000 OA
ENDBRANCH  11  13
ENDBRANCH   5  11
BRANCH   1  17
ATOM     17  C   UNL     1       2.459   5.432  19.356  0.00  0.00    +0.000 C 
BRANCH  17  18
ATOM     18  C   UNL     1       1.988   6.864  19.713  0.00  0.00    +0.000 A 
ATOM     19  C   UNL     1       1.460   7.189  20.988  0.00  0.00    +0.000 A 
ATOM     20  C   UNL     1       0.943   8.454  21.286  0.00  0.00    +0.000 A 
ATOM     21  C   UNL     1       0.940   9.443  20.316  0.00  0.00    +0.000 A 
ATOM     22  C   UNL     1       1.451   9.163  19.052  0.00  0.00    +0.000 A 
ATOM     23  C   UNL     1       1.969   7.893  18.757  0.00  0.00    +0.000 A 
ENDBRANCH  17  18
BRANCH  17  25
ATOM     24  C   UNL     1       1.578   3.671  21.244  0.00  0.00    +0.000 C 
ATOM     25  C   UNL     1       2.687   4.598  20.724  0.00  0.00    +0.000 C 
ENDBRANCH  17  25
BRANCH  17  26
ATOM     26  C   UNL     1       1.432   4.628  18.494  0.00  0.00    +0.000 C 
ATOM     27  C   UNL     1       1.766   3.140  18.246  0.00  0.00    +0.000 C 
ENDBRANCH  17  26
ENDBRANCH   1  17
TORSDOF 6
ENDMDL
MODEL 4
REMARK VINA RESULT:      -6.8      0.420      1.042
REMARK  Name = 
REMARK  9 active torsions:
REMARK  status: ('A' for Active; 'I' for Inactive)
REMARK    1  A    between atoms: C_1  and  C_2
REMARK    2  A    between atoms: C_2  and  C_3
REMARK    3  A    between atoms: C_3  and  C_4
REMARK    4  A    between atoms: C_3  and  C_6
REMARK    5  A    between atoms: C_3  and  C_12
REMARK    6  A    between atoms: C_4  and  C_5
REMARK    7  A    between atoms: C_16  and  N_17
REMARK    8  A    between atoms: N_17  and  S_18
REMARK    9  A    between atoms: S_18  and  C_19
REMARK                            x       y       z     vdW  Elec       q    Type
REMARK                         _______ _______ _______ _____ _____    ______ ____
ROOT
ATOM      1  C   UNL     1      -0.790  11.076  19.074  0.00  0.00    +0.000 A 
ATOM      2  C   UNL     1      -1.187  12.418  19.069  0.00  0.00    +0.000 A 
ATOM      3  N   UNL     1      -2.488  12.143  19.572  0.00  0.00    +0.000 N 
ATOM      4  C   UNL     1      -2.955  11.403  18.489  0.00  0.00    +0.000 A 
ATOM      5  C   UNL     1      -4.113  11.579  17.751  0.00  0.00    +0.000 A 
ATOM      6  C   UNL     1      -4.181  10.929  16.535  0.00  0.00    +0.000 A 
ATOM      7  C   UNL     1      -3.107  10.115  16.120  0.00  0.00    +0.000 A 
ATOM      8  C   UNL     1      -1.951   9.896  16.934  0.00  0.00    +0.000 A 
ATOM      9  C   UNL     1      -1.841  10.598  18.163  0.00  0.00    +0.000 A 
ATOM     10  H   UNL     1      -2.593  11.723  20.485  0.00  0.00    +0.000 HD
ENDROOT
BRANCH   5  11
ATOM     11  N   UNL     1      -5.079  12.547  18.144  0.00  0.00    +0.000 N 
ATOM     12  H   UNL     1      -4.670  13.372  18.600  0.00  0.00    +0.000 HD
BRANCH  11  13
ATOM     13  S   UNL     1      -6.386  12.015  19.108  0.00  0.00    +0.000 S 
ATOM     14  C   UNL     1      -7.681  13.003  18.412  0.00  0.00    +0.000 C 
ATOM     15  O   UNL     1      -6.651  10.609  18.835  0.00  0.00    +0.000 OA
ATOM     16  O   UNL     1      -6.088  12.507  20.432  0.00  0.00    +0.000 OA
ENDBRANCH  11  13
ENDBRANCH   5  11
BRANCH   1  17
ATOM     17  C   UNL     1       0.240  10.575  20.144  0.00  0.00    +0.000 C 
BRANCH  17  18
ATOM     18  C   UNL     1       1.023   9.395  19.516  0.00  0.00    +0.000 A 
ATOM     19  C   UNL     1       1.521   8.320  20.294  0.00  0.00    +0.000 A 
ATOM     20  C   UNL     1       2.312   7.302  19.749  0.00  0.00    +0.000 A 
ATOM     21  C   UNL     1       2.629   7.322  18.401  0.00  0.00    +0.000 A 
ATOM     22  C   UNL     1       2.157   8.361  17.603  0.00  0.00    +0.000 A 
ATOM     23  C   UNL     1       1.364   9.379  18.153  0.00  0.00    +0.000 A 
ENDBRANCH  17  18
BRANCH  17  25
ATOM     24  C   UNL     1      -0.822  10.971  22.625  0.00  0.00    +0.000 C 
ATOM     25  C   UNL     1      -0.578  10.035  21.432  0.00  0.00    +0.000 C 
ENDBRANCH  17  25
BRANCH  17  26
ATOM     26  C   UNL     1       1.153  11.744  20.637  0.00  0.00    +0.000 C 
ATOM     27  C   UNL     1       1.943  12.500  19.547  0.00  0.00    +0.000 C 
ENDBRANCH  17  26
ENDBRANCH   1  17
TORSDOF 6
ENDMDL
MODEL 5
REMARK VINA RESULT:      -6.8      4.486      6.991
REMARK  Name = 
REMARK  9 active torsions:
REMARK  status: ('A' for Active; 'I' for Inactive)
REMARK    1  A    between atoms: C_1  and  C_2
REMARK    2  A    between atoms: C_2  and  C_3
REMARK    3  A    between atoms: C_3  and  C_4
REMARK    4  A    between atoms: C_3  and  C_6
REMARK    5  A    between atoms: C_3  and  C_12
REMARK    6  A    between atoms: C_4  and  C_5
REMARK    7  A    between atoms: C_16  and  N_17
REMARK    8  A    between atoms: N_17  and  S_18
REMARK    9  A    between atoms: S_18  and  C_19
REMARK                            x       y       z     vdW  Elec       q    Type
REMARK                         _______ _______ _______ _____ _____    ______ ____
ROOT
ATOM      1  C   UNL     1       2.891   6.458  18.956  0.00  0.00    +0.000 A 
ATOM      2  C   UNL     1       2.790   6.782  20.314  0.00  0.00    +0.000 A 
ATOM      3  N   UNL     1       1.379   6.958  20.273  0.00  0.00    +0.000 N 
ATOM      4  C   UNL     1       1.352   8.056  19.418  0.00  0.00    +0.000 A 
ATOM      5  C   UNL     1       0.728   9.280  19.594  0.00  0.00    +0.000 A 
ATOM      6  C   UNL     1       1.124  10.306  18.760  0.00  0.00    +0.000 A 
ATOM      7  C   UNL     1       2.103  10.063  17.774  0.00  0.00    +0.000 A 
ATOM      8  C   UNL     1       2.680   8.771  17.569  0.00  0.00    +0.000 A 
ATOM      9  C   UNL     1       2.324   7.717  18.451  0.00  0.00    +0.000 A 
ATOM     10  H   UNL     1       0.784   6.179  20.027  0.00  0.00    +0.000 HD
ENDROOT
BRANCH   5  11
ATOM     11  N   UNL     1      -0.118   9.503  20.716  0.00  0.00    +0.000 N 
ATOM     12  H   UNL     1      -0.965  10.039  20.490  0.00  0.00    +0.000 HD
BRANCH  11  13
ATOM     13  S   UNL     1       0.582  10.199  22.110  0.00  0.00    +0.000 S 
ATOM     14  C   UNL     1      -0.782  10.045  23.229  0.00  0.00    +0.000 C 
ATOM     15  O   UNL     1       1.682   9.363  22.571  0.00  0.00    +0.000 OA
ATOM     16  O   UNL     1       0.753  11.594  21.777  0.00  0.00    +0.000 OA
ENDBRANCH  11  13
ENDBRANCH   5  11
BRANCH   1  17
ATOM     17  C   UNL     1       3.189   4.978  18.532  0.00  0.00    +0.000 C 
BRANCH  17  18
ATOM     18  C   UNL     1       4.388   5.012  17.550  0.00  0.00    +0.000 A 
ATOM     19  C   UNL     1       4.495   4.114  16.459  0.00  0.00    +0.000 A 
ATOM     20  C   UNL     1       5.619   4.074  15.627  0.00  0.00    +0.000 A 
ATOM     21  C   UNL     1       6.678   4.937  15.858  0.00  0.00    +0.000 A 
ATOM     22  C   UNL     1       6.610   5.834  16.919  0.00  0.00    +0.000 A 
ATOM     23  C   UNL     1       5.480   5.873  17.750  0.00  0.00    +0.000 A 
ENDBRANCH  17  18
BRANCH  17  25
ATOM     24  C   UNL     1       1.203   3.126  18.281  0.00  0.00    +0.000 C 
ATOM     25  C   UNL     1       1.893   4.395  17.758  0.00  0.00    +0.000 C 
ENDBRANCH  17  25
BRANCH  17  26
ATOM     26  C   UNL     1       3.425   4.071  19.782  0.00  0.00    +0.000 C 
ATOM     27  C   UNL     1       4.502   2.974  19.636  0.00  0.00    +0.000 C 
ENDBRANCH  17  26
ENDBRANCH   1  17
TORSDOF 6
ENDMDL
MODEL 6
REMARK VINA RESULT:      -6.8      7.258     10.122
REMARK  Name = 
REMARK  9 active torsions:
REMARK  status: ('A' for Active; 'I' for Inactive)
REMARK    1  A    between atoms: C_1  and  C_2
REMARK    2  A    between atoms: C_2  and  C_3
REMARK    3  A    between atoms: C_3  and  C_4
REMARK    4  A    between atoms: C_3  and  C_6
REMARK    5  A    between atoms: C_3  and  C_12
REMARK    6  A    between atoms: C_4  and  C_5
REMARK    7  A    between atoms: C_16  and  N_17
REMARK    8  A    between atoms: N_17  and  S_18
REMARK    9  A    between atoms: S_18  and  C_19
REMARK                            x       y       z     vdW  Elec       q    Type
REMARK                         _______ _______ _______ _____ _____    ______ ____
ROOT
ATOM      1  C   UNL     1       3.980   6.240  18.409  0.00  0.00    +0.000 A 
ATOM      2  C   UNL     1       4.124   6.479  17.038  0.00  0.00    +0.000 A 
ATOM      3  N   UNL     1       4.283   5.104  16.710  0.00  0.00    +0.000 N 
ATOM      4  C   UNL     1       5.482   4.888  17.383  0.00  0.00    +0.000 A 
ATOM      5  C   UNL     1       6.663   4.347  16.903  0.00  0.00    +0.000 A 
ATOM      6  C   UNL     1       7.794   4.546  17.669  0.00  0.00    +0.000 A 
ATOM      7  C   UNL     1       7.696   5.250  18.886  0.00  0.00    +0.000 A 
ATOM      8  C   UNL     1       6.450   5.738  19.392  0.00  0.00    +0.000 A 
ATOM      9  C   UNL     1       5.286   5.589  18.594  0.00  0.00    +0.000 A 
ATOM     10  H   UNL     1       3.533   4.454  16.902  0.00  0.00    +0.000 HD
ENDROOT
BRANCH   5  11
ATOM     11  N   UNL     1       6.726   3.804  15.590  0.00  0.00    +0.000 N 
ATOM     12  H   UNL     1       7.489   3.128  15.462  0.00  0.00    +0.000 HD
BRANCH  11  13
ATOM     13  S   UNL     1       6.776   4.901  14.280  0.00  0.00    +0.000 S 
ATOM     14  C   UNL     1       6.437   3.782  12.950  0.00  0.00    +0.000 C 
ATOM     15  O   UNL     1       5.681   5.853  14.402  0.00  0.00    +0.000 OA
ATOM     16  O   UNL     1       8.158   5.312  14.200  0.00  0.00    +0.000 OA
ENDBRANCH  11  13
ENDBRANCH   5  11
BRANCH   1  17
ATOM     17  C   UNL     1       2.573   6.401  19.082  0.00  0.00    +0.000 C 
BRANCH  17  18
ATOM     18  C   UNL     1       2.070   4.982  19.446  0.00  0.00    +0.000 A 
ATOM     19  C   UNL     1       1.459   4.130  18.492  0.00  0.00    +0.000 A 
ATOM     20  C   UNL     1       0.915   2.887  18.835  0.00  0.00    +0.000 A 
ATOM     21  C   UNL     1       0.967   2.451  20.149  0.00  0.00    +0.000 A 
ATOM     22  C   UNL     1       1.561   3.259  21.114  0.00  0.00    +0.000 A 
ATOM     23  C   UNL     1       2.106   4.503  20.766  0.00  0.00    +0.000 A 
ENDBRANCH  17  18
BRANCH  17  25
ATOM     24  C   UNL     1       1.560   8.577  17.786  0.00  0.00    +0.000 C 
ATOM     25  C   UNL     1       1.561   7.057  18.003  0.00  0.00    +0.000 C 
ENDBRANCH  17  25
BRANCH  17  26
ATOM     26  C   UNL     1       2.641   7.377  20.300  0.00  0.00    +0.000 C 
ATOM     27  C   UNL     1       1.299   7.693  20.997  0.00  0.00    +0.000 C 
ENDBRANCH  17  26
ENDBRANCH   1  17
TORSDOF 6
ENDMDL
MODEL 7
REMARK VINA RESULT:      -6.6      4.011      6.089
REMARK  Name = 
REMARK  9 active torsions:
REMARK  status: ('A' for Active; 'I' for Inactive)
REMARK    1  A    between atoms: C_1  and  C_2
REMARK    2  A    between atoms: C_2  and  C_3
REMARK    3  A    between atoms: C_3  and  C_4
REMARK    4  A    between atoms: C_3  and  C_6
REMARK    5  A    between atoms: C_3  and  C_12
REMARK    6  A    between atoms: C_4  and  C_5
REMARK    7  A    between atoms: C_16  and  N_17
REMARK    8  A    between atoms: N_17  and  S_18
REMARK    9  A    between atoms: S_18  and  C_19
REMARK                            x       y       z     vdW  Elec       q    Type
REMARK                         _______ _______ _______ _____ _____    ______ ____
ROOT
ATOM      1  C   UNL     1       2.263   7.337  19.675  0.00  0.00    +0.000 A 
ATOM      2  C   UNL     1       2.016   7.767  20.984  0.00  0.00    +0.000 A 
ATOM      3  N   UNL     1       0.618   7.930  20.777  0.00  0.00    +0.000 N 
ATOM      4  C   UNL     1       0.686   8.957  19.840  0.00  0.00    +0.000 A 
ATOM      5  C   UNL     1       0.049  10.186  19.851  0.00  0.00    +0.000 A 
ATOM      6  C   UNL     1       0.535  11.146  18.986  0.00  0.00    +0.000 A 
ATOM      7  C   UNL     1       1.614  10.834  18.134  0.00  0.00    +0.000 A 
ATOM      8  C   UNL     1       2.209   9.533  18.095  0.00  0.00    +0.000 A 
ATOM      9  C   UNL     1       1.757   8.550  19.013  0.00  0.00    +0.000 A 
ATOM     10  H   UNL     1       0.053   7.129  20.530  0.00  0.00    +0.000 HD
ENDROOT
BRANCH   5  11
ATOM     11  N   UNL     1      -0.914  10.491  20.853  0.00  0.00    +0.000 N 
ATOM     12  H   UNL     1      -1.681  11.086  20.517  0.00  0.00    +0.000 HD
BRANCH  11  13
ATOM     13  S   UNL     1      -0.345  11.154  22.322  0.00  0.00    +0.000 S 
ATOM     14  C   UNL     1      -1.895  11.560  23.077  0.00  0.00    +0.000 C 
ATOM     15  O   UNL     1       0.316  10.116  23.101  0.00  0.00    +0.000 OA
ATOM     16  O   UNL     1       0.318  12.378  21.938  0.00  0.00    +0.000 OA
ENDBRANCH  11  13
ENDBRANCH   5  11
BRANCH   1  17
ATOM     17  C   UNL     1       2.604   5.832  19.403  0.00  0.00    +0.000 C 
BRANCH  17  18
ATOM     18  C   UNL     1       4.024   5.783  18.784  0.00  0.00    +0.000 A 
ATOM     19  C   UNL     1       4.365   6.516  17.620  0.00  0.00    +0.000 A 
ATOM     20  C   UNL     1       5.614   6.401  17.000  0.00  0.00    +0.000 A 
ATOM     21  C   UNL     1       6.571   5.551  17.529  0.00  0.00    +0.000 A 
ATOM     22  C   UNL     1       6.274   4.816  18.673  0.00  0.00    +0.000 A 
ATOM     23  C   UNL     1       5.020   4.934  19.292  0.00  0.00    +0.000 A 
ENDBRANCH  17  18
BRANCH  17  25
ATOM     24  C   UNL     1       1.951   4.093  17.405  0.00  0.00    +0.000 C 
ATOM     25  C   UNL     1       1.543   5.251  18.328  0.00  0.00    +0.000 C 
ENDBRANCH  17  25
BRANCH  17  26
ATOM     26  C   UNL     1       2.455   4.977  20.703  0.00  0.00    +0.000 C 
ATOM     27  C   UNL     1       1.299   3.953  20.718  0.00  0.00    +0.000 C 
ENDBRANCH  17  26
ENDBRANCH   1  17
TORSDOF 6
ENDMDL
MODEL 8
REMARK VINA RESULT:      -6.6      5.010      7.844
REMARK  Name = 
REMARK  9 active torsions:
REMARK  status: ('A' for Active; 'I' for Inactive)
REMARK    1  A    between atoms: C_1  and  C_2
REMARK    2  A    between atoms: C_2  and  C_3
REMARK    3  A    between atoms: C_3  and  C_4
REMARK    4  A    between atoms: C_3  and  C_6
REMARK    5  A    between atoms: C_3  and  C_12
REMARK    6  A    between atoms: C_4  and  C_5
REMARK    7  A    between atoms: C_16  and  N_17
REMARK    8  A    between atoms: N_17  and  S_18
REMARK    9  A    between atoms: S_18  and  C_19
REMARK                            x       y       z     vdW  Elec       q    Type
REMARK                         _______ _______ _______ _____ _____    ______ ____
ROOT
ATOM      1  C   UNL     1       3.629   5.566  18.620  0.00  0.00    +0.000 A 
ATOM      2  C   UNL     1       3.799   5.794  19.991  0.00  0.00    +0.000 A 
ATOM      3  N   UNL     1       2.403   5.809  20.267  0.00  0.00    +0.000 N 
ATOM      4  C   UNL     1       2.080   6.946  19.532  0.00  0.00    +0.000 A 
ATOM      5  C   UNL     1       1.392   8.078  19.939  0.00  0.00    +0.000 A 
ATOM      6  C   UNL     1       1.491   9.190  19.128  0.00  0.00    +0.000 A 
ATOM      7  C   UNL     1       2.247   9.121  17.940  0.00  0.00    +0.000 A 
ATOM      8  C   UNL     1       2.890   7.918  17.509  0.00  0.00    +0.000 A 
ATOM      9  C   UNL     1       2.843   6.780  18.355  0.00  0.00    +0.000 A 
ATOM     10  H   UNL     1       1.849   4.983  20.089  0.00  0.00    +0.000 HD
ENDROOT
BRANCH   5  11
ATOM     11  N   UNL     1       0.797   8.134  21.229  0.00  0.00    +0.000 N 
ATOM     12  H   UNL     1      -0.205   7.904  21.229  0.00  0.00    +0.000 HD
BRANCH  11  13
ATOM     13  S   UNL     1       1.001   9.569  22.134  0.00  0.00    +0.000 S 
ATOM     14  C   UNL     1      -0.362   9.405  23.253  0.00  0.00    +0.000 C 
ATOM     15  O   UNL     1       2.249   9.501  22.880  0.00  0.00    +0.000 OA
ATOM     16  O   UNL     1       0.709  10.633  21.201  0.00  0.00    +0.000 OA
ENDBRANCH  11  13
ENDBRANCH   5  11
BRANCH   1  17
ATOM     17  C   UNL     1       3.971   4.159  18.020  0.00  0.00    +0.000 C 
BRANCH  17  18
ATOM     18  C   UNL     1       5.038   4.374  16.917  0.00  0.00    +0.000 A 
ATOM     19  C   UNL     1       4.732   4.255  15.538  0.00  0.00    +0.000 A 
ATOM     20  C   UNL     1       5.709   4.351  14.541  0.00  0.00    +0.000 A 
ATOM     21  C   UNL     1       7.030   4.577  14.890  0.00  0.00    +0.000 A 
ATOM     22  C   UNL     1       7.370   4.701  16.234  0.00  0.00    +0.000 A 
ATOM     23  C   UNL     1       6.387   4.605  17.231  0.00  0.00    +0.000 A 
ENDBRANCH  17  18
BRANCH  17  25
ATOM     24  C   UNL     1       1.259   3.886  17.942  0.00  0.00    +0.000 C 
ATOM     25  C   UNL     1       2.633   3.549  17.345  0.00  0.00    +0.000 C 
ENDBRANCH  17  25
BRANCH  17  26
ATOM     26  C   UNL     1       4.416   3.162  19.139  0.00  0.00    +0.000 C 
ATOM     27  C   UNL     1       3.740   1.774  19.125  0.00  0.00    +0.000 C 
ENDBRANCH  17  26
ENDBRANCH   1  17
TORSDOF 6
ENDMDL
MODEL 9
REMARK VINA RESULT:      -6.6      4.787      7.754
REMARK  Name = 
REMARK  9 active torsions:
REMARK  status: ('A' for Active; 'I' for Inactive)
REMARK    1  A    between atoms: C_1  and  C_2
REMARK    2  A    between atoms: C_2  and  C_3
REMARK    3  A    between atoms: C_3  and  C_4
REMARK    4  A    between atoms: C_3  and  C_6
REMARK    5  A    between atoms: C_3  and  C_12
REMARK    6  A    between atoms: C_4  and  C_5
REMARK    7  A    between atoms: C_16  and  N_17
REMARK    8  A    between atoms: N_17  and  S_18
REMARK    9  A    between atoms: S_18  and  C_19
REMARK                            x       y       z     vdW  Elec       q    Type
REMARK                         _______ _______ _______ _____ _____    ______ ____
ROOT
ATOM      1  C   UNL     1       3.706   5.544  18.456  0.00  0.00    +0.000 A 
ATOM      2  C   UNL     1       4.096   5.867  19.761  0.00  0.00    +0.000 A 
ATOM      3  N   UNL     1       2.764   5.915  20.258  0.00  0.00    +0.000 N 
ATOM      4  C   UNL     1       2.323   7.000  19.506  0.00  0.00    +0.000 A 
ATOM      5  C   UNL     1       1.709   8.164  19.938  0.00  0.00    +0.000 A 
ATOM      6  C   UNL     1       1.672   9.216  19.045  0.00  0.00    +0.000 A 
ATOM      7  C   UNL     1       2.225   9.056  17.757  0.00  0.00    +0.000 A 
ATOM      8  C   UNL     1       2.791   7.819  17.314  0.00  0.00    +0.000 A 
ATOM      9  C   UNL     1       2.885   6.744  18.236  0.00  0.00    +0.000 A 
ATOM     10  H   UNL     1       2.190   5.083  20.231  0.00  0.00    +0.000 HD
ENDROOT
BRANCH   5  11
ATOM     11  N   UNL     1       1.330   8.317  21.301  0.00  0.00    +0.000 N 
ATOM     12  H   UNL     1       1.188   7.424  21.789  0.00  0.00    +0.000 HD
BRANCH  11  13
ATOM     13  S   UNL     1      -0.012   9.318  21.642  0.00  0.00    +0.000 S 
ATOM     14  C   UNL     1       0.807  10.887  21.719  0.00  0.00    +0.000 C 
ATOM     15  O   UNL     1      -0.928   9.306  20.510  0.00  0.00    +0.000 OA
ATOM     16  O   UNL     1      -0.419   8.942  22.976  0.00  0.00    +0.000 OA
ENDBRANCH  11  13
ENDBRANCH   5  11
BRANCH   1  17
ATOM     17  C   UNL     1       3.949   4.095  17.910  0.00  0.00    +0.000 C 
BRANCH  17  18
ATOM     18  C   UNL     1       5.048   4.190  16.821  0.00  0.00    +0.000 A 
ATOM     19  C   UNL     1       6.396   4.498  17.135  0.00  0.00    +0.000 A 
ATOM     20  C   UNL     1       7.372   4.682  16.150  0.00  0.00    +0.000 A 
ATOM     21  C   UNL     1       7.034   4.557  14.812  0.00  0.00    +0.000 A 
ATOM     22  C   UNL     1       5.721   4.253  14.465  0.00  0.00    +0.000 A 
ATOM     23  C   UNL     1       4.745   4.069  15.455  0.00  0.00    +0.000 A 
ENDBRANCH  17  18
BRANCH  17  25
ATOM     24  C   UNL     1       1.245   3.747  17.967  0.00  0.00    +0.000 C 
ATOM     25  C   UNL     1       2.580   3.567  17.229  0.00  0.00    +0.000 C 
ENDBRANCH  17  25
BRANCH  17  26
ATOM     26  C   UNL     1       4.296   3.107  19.070  0.00  0.00    +0.000 C 
ATOM     27  C   UNL     1       3.849   1.641  18.875  0.00  0.00    +0.000 C 
ENDBRANCH  17  26
ENDBRANCH   1  17
TORSDOF 6
ENDMDL
