MODEL 1
REMARK VINA RESULT:      -6.9      0.000      0.000
REMARK  Name = 
REMARK  15 active torsions:
REMARK  status: ('A' for Active; 'I' for Inactive)
REMARK    1  A    between atoms: C_1  and  C_2
REMARK    2  A    between atoms: C_2  and  O_3
REMARK    3  A    between atoms: O_3  and  C_4
REMARK    4  A    between atoms: C_4  and  C_5
REMARK    5  A    between atoms: C_4  and  C_17
REMARK    6  A    between atoms: C_5  and  O_6
REMARK    7  A    between atoms: O_6  and  C_7
REMARK    8  A    between atoms: C_10  and  C_11
REMARK    9  A    between atoms: C_17  and  S_18
REMARK   10  A    between atoms: S_18  and  C_19
REMARK   11  A    between atoms: C_22  and  O_23
REMARK   12  A    between atoms: O_23  and  C_24
REMARK   13  A    between atoms: C_24  and  C_25
REMARK   14  A    between atoms: C_25  and  O_27
REMARK   15  A    between atoms: C_28  and  C_29
REMARK                            x       y       z     vdW  Elec       q    Type
REMARK                         _______ _______ _______ _____ _____    ______ ____
ROOT
ATOM      1  C   UNL     1       5.114   6.605  17.151  0.00  0.00    +0.000 C 
ENDROOT
BRANCH   1   2
ATOM      2  O   UNL     1       6.148   7.584  16.893  0.00  0.00    +0.000 OA
BRANCH   2   4
ATOM      3  C   UNL     1       8.173   8.538  17.797  0.00  0.00    +0.000 C 
ATOM      4  C   UNL     1       7.408   7.267  17.483  0.00  0.00    +0.000 C 
ENDBRANCH   2   4
ENDBRANCH   1   2
BRANCH   1   5
ATOM      5  C   UNL     1       5.042   5.630  15.966  0.00  0.00    +0.000 C 
BRANCH   5   6
ATOM      6  O   UNL     1       5.282   4.264  16.329  0.00  0.00    +0.000 OA
BRANCH   6   7
ATOM      7  C   UNL     1       4.493   3.848  17.371  0.00  0.00    +0.000 A 
ATOM      8  C   UNL     1       3.160   3.542  17.094  0.00  0.00    +0.000 A 
ATOM      9  C   UNL     1       2.305   3.148  18.123  0.00  0.00    +0.000 A 
ATOM     10  C   UNL     1       2.769   3.019  19.442  0.00  0.00    +0.000 A 
ATOM     11  C   UNL     1       4.111   3.308  19.711  0.00  0.00    +0.000 A 
ATOM     12  C   UNL     1       4.958   3.712  18.687  0.00  0.00    +0.000 A 
BRANCH  10  13
ATOM     13  C   UNL     1       1.868   2.574  20.561  0.00  0.00    +0.000 C 
ATOM     14  F   UNL     1       0.866   3.456  20.841  0.00  0.00    +0.000 F 
ATOM     15  F   UNL     1       1.259   1.387  20.294  0.00  0.00    +0.000 F 
ATOM     16  F   UNL     1       2.538   2.396  21.734  0.00  0.00    +0.000 F 
ENDBRANCH  10  13
ENDBRANCH   6   7
ENDBRANCH   5   6
ENDBRANCH   1   5
BRANCH   1  17
ATOM     17  C   UNL     1       3.763   7.269  17.418  0.00  0.00    +0.000 C 
BRANCH  17  18
ATOM     18  S   UNL     1       3.026   6.815  19.027  0.00  0.00    +0.000 S 
BRANCH  18  19
ATOM     19  C   UNL     1       1.968   8.224  19.231  0.00  0.00    +0.000 A 
ATOM     20  C   UNL     1       1.816   9.141  18.205  0.00  0.00    +0.000 A 
ATOM     21  C   UNL     1       0.966  10.230  18.369  0.00  0.00    +0.000 A 
ATOM     22  C   UNL     1       0.222  10.424  19.544  0.00  0.00    +0.000 A 
ATOM     23  C   UNL     1       0.422   9.533  20.619  0.00  0.00    +0.000 A 
ATOM     24  C   UNL     1      -0.209   9.588  21.984  0.00  0.00    +0.000 C 
ATOM     25  C   UNL     1       1.292   8.432  20.429  0.00  0.00    +0.000 A 
BRANCH  22  26
ATOM     26  O   UNL     1      -0.693  11.460  19.615  0.00  0.00    +0.000 OA
BRANCH  26  27
ATOM     27  C   UNL     1      -1.050  11.994  18.315  0.00  0.00    +0.000 C 
BRANCH  27  28
ATOM     28  C   UNL     1      -2.366  11.443  17.773  0.00  0.00    +0.000 C 
ATOM     29  O   UNL     1      -3.064  10.662  18.383  0.00  0.00    +0.000 OA
BRANCH  28  30
ATOM     30  O   UNL     1      -2.670  11.917  16.560  0.00  0.00    +0.000 OA
ATOM     31  H   UNL     1      -1.934  11.722  15.923  0.00  0.00    +0.000 HD
ENDBRANCH  28  30
ENDBRANCH  27  28
ENDBRANCH  26  27
ENDBRANCH  22  26
ENDBRANCH  18  19
ENDBRANCH  17  18
ENDBRANCH   1  17
TORSDOF 13
ENDMDL
MODEL 2
REMARK VINA RESULT:      -6.9      4.142      7.248
REMARK  Name = 
REMARK  15 active torsions:
REMARK  status: ('A' for Active; 'I' for Inactive)
REMARK    1  A    between atoms: C_1  and  C_2
REMARK    2  A    between atoms: C_2  and  O_3
REMARK    3  A    between atoms: O_3  and  C_4
REMARK    4  A    between atoms: C_4  and  C_5
REMARK    5  A    between atoms: C_4  and  C_17
REMARK    6  A    between atoms: C_5  and  O_6
REMARK    7  A    between atoms: O_6  and  C_7
REMARK    8  A    between atoms: C_10  and  C_11
REMARK    9  A    between atoms: C_17  and  S_18
REMARK   10  A    between atoms: S_18  and  C_19
REMARK   11  A    between atoms: C_22  and  O_23
REMARK   12  A    between atoms: O_23  and  C_24
REMARK   13  A    between atoms: C_24  and  C_25
REMARK   14  A    between atoms: C_25  and  O_27
REMARK   15  A    between atoms: C_28  and  C_29
REMARK                            x       y       z     vdW  Elec       q    Type
REMARK                         _______ _______ _______ _____ _____    ______ ____
ROOT
ATOM      1  C   UNL     1       6.735   6.835  17.249  0.00  0.00    +0.000 C 
ENDROOT
BRANCH   1   2
ATOM      2  O   UNL     1       7.492   6.065  16.287  0.00  0.00    +0.000 OA
BRANCH   2   4
ATOM      3  C   UNL     1       6.769   4.439  14.655  0.00  0.00    +0.000 C 
ATOM      4  C   UNL     1       7.028   4.725  16.121  0.00  0.00    +0.000 C 
ENDBRANCH   2   4
ENDBRANCH   1   2
BRANCH   1   5
ATOM      5  C   UNL     1       5.301   7.014  16.728  0.00  0.00    +0.000 C 
BRANCH   5   6
ATOM      6  O   UNL     1       4.349   7.323  17.755  0.00  0.00    +0.000 OA
BRANCH   6   7
ATOM      7  C   UNL     1       3.606   6.234  18.132  0.00  0.00    +0.000 A 
ATOM      8  C   UNL     1       2.913   6.308  19.340  0.00  0.00    +0.000 A 
ATOM      9  C   UNL     1       2.169   5.216  19.788  0.00  0.00    +0.000 A 
ATOM     10  C   UNL     1       2.076   4.041  19.025  0.00  0.00    +0.000 A 
ATOM     11  C   UNL     1       2.757   3.978  17.805  0.00  0.00    +0.000 A 
ATOM     12  C   UNL     1       3.506   5.063  17.366  0.00  0.00    +0.000 A 
BRANCH  10  13
ATOM     13  C   UNL     1       1.263   2.861  19.481  0.00  0.00    +0.000 C 
ATOM     14  F   UNL     1       2.014   1.772  19.810  0.00  0.00    +0.000 F 
ATOM     15  F   UNL     1       0.511   3.145  20.580  0.00  0.00    +0.000 F 
ATOM     16  F   UNL     1       0.387   2.430  18.530  0.00  0.00    +0.000 F 
ENDBRANCH  10  13
ENDBRANCH   6   7
ENDBRANCH   5   6
ENDBRANCH   1   5
BRANCH   1  17
ATOM     17  C   UNL     1       7.400   8.180  17.543  0.00  0.00    +0.000 C 
BRANCH  17  18
ATOM     18  S   UNL     1       8.611   8.118  18.911  0.00  0.00    +0.000 S 
BRANCH  18  19
ATOM     19  C   UNL     1       9.039   9.839  18.952  0.00  0.00    +0.000 A 
ATOM     20  C   UNL     1       9.208  10.548  17.775  0.00  0.00    +0.000 A 
ATOM     21  C   UNL     1       9.522  11.902  17.820  0.00  0.00    +0.000 A 
ATOM     22  C   UNL     1       9.650  12.597  19.035  0.00  0.00    +0.000 A 
ATOM     23  C   UNL     1       9.548  11.868  20.239  0.00  0.00    +0.000 A 
ATOM     24  C   UNL     1       9.718  12.386  21.641  0.00  0.00    +0.000 C 
ATOM     25  C   UNL     1       9.227  10.491  20.167  0.00  0.00    +0.000 A 
BRANCH  22  26
ATOM     26  O   UNL     1       9.853  13.966  19.025  0.00  0.00    +0.000 OA
BRANCH  26  27
ATOM     27  C   UNL     1       9.527  14.581  17.754  0.00  0.00    +0.000 C 
BRANCH  27  28
ATOM     28  C   UNL     1      10.680  15.378  17.151  0.00  0.00    +0.000 C 
ATOM     29  O   UNL     1      10.682  16.588  17.067  0.00  0.00    +0.000 OA
BRANCH  28  30
ATOM     30  O   UNL     1      11.688  14.605  16.736  0.00  0.00    +0.000 OA
ATOM     31  H   UNL     1      12.507  14.800  17.263  0.00  0.00    +0.000 HD
ENDBRANCH  28  30
ENDBRANCH  27  28
ENDBRANCH  26  27
ENDBRANCH  22  26
ENDBRANCH  18  19
ENDBRANCH  17  18
ENDBRANCH   1  17
TORSDOF 13
ENDMDL
MODEL 3
REMARK VINA RESULT:      -6.9      4.494      6.903
REMARK  Name = 
REMARK  15 active torsions:
REMARK  status: ('A' for Active; 'I' for Inactive)
REMARK    1  A    between atoms: C_1  and  C_2
REMARK    2  A    between atoms: C_2  and  O_3
REMARK    3  A    between atoms: O_3  and  C_4
REMARK    4  A    between atoms: C_4  and  C_5
REMARK    5  A    between atoms: C_4  and  C_17
REMARK    6  A    between atoms: C_5  and  O_6
REMARK    7  A    between atoms: O_6  and  C_7
REMARK    8  A    between atoms: C_10  and  C_11
REMARK    9  A    between atoms: C_17  and  S_18
REMARK   10  A    between atoms: S_18  and  C_19
REMARK   11  A    between atoms: C_22  and  O_23
REMARK   12  A    between atoms: O_23  and  C_24
REMARK   13  A    between atoms: C_24  and  C_25
REMARK   14  A    between atoms: C_25  and  O_27
REMARK   15  A    between atoms: C_28  and  C_29
REMARK                            x       y       z     vdW  Elec       q    Type
REMARK                         _______ _______ _______ _____ _____    ______ ____
ROOT
ATOM      1  C   UNL     1       6.582   6.810  17.100  0.00  0.00    +0.000 C 
ENDROOT
BRANCH   1   2
ATOM      2  O   UNL     1       7.357   6.075  16.124  0.00  0.00    +0.000 OA
BRANCH   2   4
ATOM      3  C   UNL     1       7.669   4.472  17.902  0.00  0.00    +0.000 C 
ATOM      4  C   UNL     1       7.483   4.682  16.412  0.00  0.00    +0.000 C 
ENDBRANCH   2   4
ENDBRANCH   1   2
BRANCH   1   5
ATOM      5  C   UNL     1       5.131   6.915  16.609  0.00  0.00    +0.000 C 
BRANCH   5   6
ATOM      6  O   UNL     1       4.512   5.645  16.362  0.00  0.00    +0.000 OA
BRANCH   6   7
ATOM      7  C   UNL     1       3.879   5.141  17.470  0.00  0.00    +0.000 A 
ATOM      8  C   UNL     1       3.257   3.898  17.352  0.00  0.00    +0.000 A 
ATOM      9  C   UNL     1       2.569   3.355  18.437  0.00  0.00    +0.000 A 
ATOM     10  C   UNL     1       2.515   4.025  19.670  0.00  0.00    +0.000 A 
ATOM     11  C   UNL     1       3.156   5.262  19.789  0.00  0.00    +0.000 A 
ATOM     12  C   UNL     1       3.832   5.807  18.703  0.00  0.00    +0.000 A 
BRANCH  10  13
ATOM     13  C   UNL     1       1.797   3.446  20.857  0.00  0.00    +0.000 C 
ATOM     14  F   UNL     1       2.296   3.862  22.056  0.00  0.00    +0.000 F 
ATOM     15  F   UNL     1       0.474   3.767  20.869  0.00  0.00    +0.000 F 
ATOM     16  F   UNL     1       1.851   2.084  20.890  0.00  0.00    +0.000 F 
ENDBRANCH  10  13
ENDBRANCH   6   7
ENDBRANCH   5   6
ENDBRANCH   1   5
BRANCH   1  17
ATOM     17  C   UNL     1       7.185   8.187  17.377  0.00  0.00    +0.000 C 
BRANCH  17  18
ATOM     18  S   UNL     1       8.491   8.175  18.655  0.00  0.00    +0.000 S 
BRANCH  18  19
ATOM     19  C   UNL     1       8.822   9.916  18.700  0.00  0.00    +0.000 A 
ATOM     20  C   UNL     1       8.422  10.734  17.657  0.00  0.00    +0.000 A 
ATOM     21  C   UNL     1       8.668  12.101  17.714  0.00  0.00    +0.000 A 
ATOM     22  C   UNL     1       9.294  12.700  18.820  0.00  0.00    +0.000 A 
ATOM     23  C   UNL     1       9.766  11.867  19.856  0.00  0.00    +0.000 A 
ATOM     24  C   UNL     1      10.520  12.279  21.091  0.00  0.00    +0.000 C 
ATOM     25  C   UNL     1       9.504  10.478  19.776  0.00  0.00    +0.000 A 
BRANCH  22  26
ATOM     26  O   UNL     1       9.415  14.078  18.878  0.00  0.00    +0.000 OA
BRANCH  26  27
ATOM     27  C   UNL     1      10.277  14.618  17.846  0.00  0.00    +0.000 C 
BRANCH  27  28
ATOM     28  C   UNL     1       9.814  15.972  17.316  0.00  0.00    +0.000 C 
ATOM     29  O   UNL     1       8.951  16.637  17.847  0.00  0.00    +0.000 OA
BRANCH  28  30
ATOM     30  O   UNL     1      10.467  16.351  16.212  0.00  0.00    +0.000 OA
ATOM     31  H   UNL     1      10.702  15.555  15.665  0.00  0.00    +0.000 HD
ENDBRANCH  28  30
ENDBRANCH  27  28
ENDBRANCH  26  27
ENDBRANCH  22  26
ENDBRANCH  18  19
ENDBRANCH  17  18
ENDBRANCH   1  17
TORSDOF 13
ENDMDL
MODEL 4
REMARK VINA RESULT:      -6.8      4.128      7.658
REMARK  Name = 
REMARK  15 active torsions:
REMARK  status: ('A' for Active; 'I' for Inactive)
REMARK    1  A    between atoms: C_1  and  C_2
REMARK    2  A    between atoms: C_2  and  O_3
REMARK    3  A    between atoms: O_3  and  C_4
REMARK    4  A    between atoms: C_4  and  C_5
REMARK    5  A    between atoms: C_4  and  C_17
REMARK    6  A    between atoms: C_5  and  O_6
REMARK    7  A    between atoms: O_6  and  C_7
REMARK    8  A    between atoms: C_10  and  C_11
REMARK    9  A    between atoms: C_17  and  S_18
REMARK   10  A    between atoms: S_18  and  C_19
REMARK   11  A    between atoms: C_22  and  O_23
REMARK   12  A    between atoms: O_23  and  C_24
REMARK   13  A    between atoms: C_24  and  C_25
REMARK   14  A    between atoms: C_25  and  O_27
REMARK   15  A    between atoms: C_28  and  C_29
REMARK                            x       y       z     vdW  Elec       q    Type
REMARK                         _______ _______ _______ _____ _____    ______ ____
ROOT
ATOM      1  C   UNL     1       3.809   3.297  18.417  0.00  0.00    +0.000 C 
ENDROOT
BRANCH   1   2
ATOM      2  O   UNL     1       3.001   2.105  18.560  0.00  0.00    +0.000 OA
BRANCH   2   4
ATOM      3  C   UNL     1       0.620   2.463  18.733  0.00  0.00    +0.000 C 
ATOM      4  C   UNL     1       1.920   2.245  19.482  0.00  0.00    +0.000 C 
ENDBRANCH   2   4
ENDBRANCH   1   2
BRANCH   1   5
ATOM      5  C   UNL     1       3.330   4.350  19.426  0.00  0.00    +0.000 C 
BRANCH   5   6
ATOM      6  O   UNL     1       4.021   5.602  19.326  0.00  0.00    +0.000 OA
BRANCH   6   7
ATOM      7  C   UNL     1       3.170   6.667  19.175  0.00  0.00    +0.000 A 
ATOM      8  C   UNL     1       2.401   7.043  20.277  0.00  0.00    +0.000 A 
ATOM      9  C   UNL     1       1.493   8.097  20.168  0.00  0.00    +0.000 A 
ATOM     10  C   UNL     1       1.357   8.815  18.970  0.00  0.00    +0.000 A 
ATOM     11  C   UNL     1       2.143   8.446  17.874  0.00  0.00    +0.000 A 
ATOM     12  C   UNL     1       3.039   7.389  17.981  0.00  0.00    +0.000 A 
BRANCH  10  13
ATOM     13  C   UNL     1       0.399   9.968  18.840  0.00  0.00    +0.000 C 
ATOM     14  F   UNL     1      -0.246  10.010  17.639  0.00  0.00    +0.000 F 
ATOM     15  F   UNL     1      -0.575   9.940  19.789  0.00  0.00    +0.000 F 
ATOM     16  F   UNL     1       1.014  11.177  18.969  0.00  0.00    +0.000 F 
ENDBRANCH  10  13
ENDBRANCH   6   7
ENDBRANCH   5   6
ENDBRANCH   1   5
BRANCH   1  17
ATOM     17  C   UNL     1       3.776   3.832  16.985  0.00  0.00    +0.000 C 
BRANCH  17  18
ATOM     18  S   UNL     1       5.346   3.604  16.078  0.00  0.00    +0.000 S 
BRANCH  18  19
ATOM     19  C   UNL     1       6.278   4.900  16.850  0.00  0.00    +0.000 A 
ATOM     20  C   UNL     1       6.315   6.166  16.290  0.00  0.00    +0.000 A 
ATOM     21  C   UNL     1       7.033   7.180  16.917  0.00  0.00    +0.000 A 
ATOM     22  C   UNL     1       7.711   6.973  18.129  0.00  0.00    +0.000 A 
ATOM     23  C   UNL     1       7.736   5.670  18.670  0.00  0.00    +0.000 A 
ATOM     24  C   UNL     1       8.451   5.207  19.910  0.00  0.00    +0.000 C 
ATOM     25  C   UNL     1       6.998   4.655  18.015  0.00  0.00    +0.000 A 
BRANCH  22  26
ATOM     26  O   UNL     1       8.316   8.041  18.769  0.00  0.00    +0.000 OA
BRANCH  26  27
ATOM     27  C   UNL     1       8.327   9.251  17.970  0.00  0.00    +0.000 C 
BRANCH  27  28
ATOM     28  C   UNL     1       9.145  10.380  18.591  0.00  0.00    +0.000 C 
ATOM     29  O   UNL     1       9.398  11.416  18.014  0.00  0.00    +0.000 OA
BRANCH  28  30
ATOM     30  O   UNL     1       9.544  10.111  19.839  0.00  0.00    +0.000 OA
ATOM     31  H   UNL     1       9.431   9.143  20.031  0.00  0.00    +0.000 HD
ENDBRANCH  28  30
ENDBRANCH  27  28
ENDBRANCH  26  27
ENDBRANCH  22  26
ENDBRANCH  18  19
ENDBRANCH  17  18
ENDBRANCH   1  17
TORSDOF 13
ENDMDL
MODEL 5
REMARK VINA RESULT:      -6.8      4.251      9.067
REMARK  Name = 
REMARK  15 active torsions:
REMARK  status: ('A' for Active; 'I' for Inactive)
REMARK    1  A    between atoms: C_1  and  C_2
REMARK    2  A    between atoms: C_2  and  O_3
REMARK    3  A    between atoms: O_3  and  C_4
REMARK    4  A    between atoms: C_4  and  C_5
REMARK    5  A    between atoms: C_4  and  C_17
REMARK    6  A    between atoms: C_5  and  O_6
REMARK    7  A    between atoms: O_6  and  C_7
REMARK    8  A    between atoms: C_10  and  C_11
REMARK    9  A    between atoms: C_17  and  S_18
REMARK   10  A    between atoms: S_18  and  C_19
REMARK   11  A    between atoms: C_22  and  O_23
REMARK   12  A    between atoms: O_23  and  C_24
REMARK   13  A    between atoms: C_24  and  C_25
REMARK   14  A    between atoms: C_25  and  O_27
REMARK   15  A    between atoms: C_28  and  C_29
REMARK                            x       y       z     vdW  Elec       q    Type
REMARK                         _______ _______ _______ _____ _____    ______ ____
ROOT
ATOM      1  C   UNL     1       1.360   9.402  19.857  0.00  0.00    +0.000 C 
ENDROOT
BRANCH   1   2
ATOM      2  O   UNL     1       0.355   9.081  20.848  0.00  0.00    +0.000 OA
BRANCH   2   4
ATOM      3  C   UNL     1      -0.103   9.629  23.155  0.00  0.00    +0.000 C 
ATOM      4  C   UNL     1       0.057  10.155  21.741  0.00  0.00    +0.000 C 
ENDBRANCH   2   4
ENDBRANCH   1   2
BRANCH   1   5
ATOM      5  C   UNL     1       0.792  10.455  18.894  0.00  0.00    +0.000 C 
BRANCH   5   6
ATOM      6  O   UNL     1      -0.033   9.904  17.859  0.00  0.00    +0.000 OA
BRANCH   6   7
ATOM      7  C   UNL     1      -1.313  10.395  17.885  0.00  0.00    +0.000 A 
ATOM      8  C   UNL     1      -2.224   9.878  16.964  0.00  0.00    +0.000 A 
ATOM      9  C   UNL     1      -3.531  10.367  16.923  0.00  0.00    +0.000 A 
ATOM     10  C   UNL     1      -3.962  11.357  17.821  0.00  0.00    +0.000 A 
ATOM     11  C   UNL     1      -3.050  11.858  18.755  0.00  0.00    +0.000 A 
ATOM     12  C   UNL     1      -1.746  11.377  18.786  0.00  0.00    +0.000 A 
BRANCH  10  13
ATOM     13  C   UNL     1      -5.371  11.881  17.808  0.00  0.00    +0.000 C 
ATOM     14  F   UNL     1      -5.674  12.667  18.880  0.00  0.00    +0.000 F 
ATOM     15  F   UNL     1      -5.633  12.633  16.704  0.00  0.00    +0.000 F 
ATOM     16  F   UNL     1      -6.301  10.884  17.810  0.00  0.00    +0.000 F 
ENDBRANCH  10  13
ENDBRANCH   6   7
ENDBRANCH   5   6
ENDBRANCH   1   5
BRANCH   1  17
ATOM     17  C   UNL     1       1.836   8.155  19.113  0.00  0.00    +0.000 C 
BRANCH  17  18
ATOM     18  S   UNL     1       1.833   6.641  20.137  0.00  0.00    +0.000 S 
BRANCH  18  19
ATOM     19  C   UNL     1       2.924   5.657  19.143  0.00  0.00    +0.000 A 
ATOM     20  C   UNL     1       2.415   4.797  18.185  0.00  0.00    +0.000 A 
ATOM     21  C   UNL     1       3.282   4.046  17.397  0.00  0.00    +0.000 A 
ATOM     22  C   UNL     1       4.677   4.149  17.519  0.00  0.00    +0.000 A 
ATOM     23  C   UNL     1       5.203   4.971  18.538  0.00  0.00    +0.000 A 
ATOM     24  C   UNL     1       6.651   5.176  18.894  0.00  0.00    +0.000 C 
ATOM     25  C   UNL     1       4.301   5.725  19.328  0.00  0.00    +0.000 A 
BRANCH  22  26
ATOM     26  O   UNL     1       5.496   3.466  16.636  0.00  0.00    +0.000 OA
BRANCH  26  27
ATOM     27  C   UNL     1       5.465   4.011  15.293  0.00  0.00    +0.000 C 
BRANCH  27  28
ATOM     28  C   UNL     1       6.291   5.285  15.135  0.00  0.00    +0.000 C 
ATOM     29  O   UNL     1       7.500   5.310  15.219  0.00  0.00    +0.000 OA
BRANCH  28  30
ATOM     30  O   UNL     1       5.542   6.364  14.886  0.00  0.00    +0.000 OA
ATOM     31  H   UNL     1       6.026   6.981  14.276  0.00  0.00    +0.000 HD
ENDBRANCH  28  30
ENDBRANCH  27  28
ENDBRANCH  26  27
ENDBRANCH  22  26
ENDBRANCH  18  19
ENDBRANCH  17  18
ENDBRANCH   1  17
TORSDOF 13
ENDMDL
MODEL 6
REMARK VINA RESULT:      -6.8      3.643      6.941
REMARK  Name = 
REMARK  15 active torsions:
REMARK  status: ('A' for Active; 'I' for Inactive)
REMARK    1  A    between atoms: C_1  and  C_2
REMARK    2  A    between atoms: C_2  and  O_3
REMARK    3  A    between atoms: O_3  and  C_4
REMARK    4  A    between atoms: C_4  and  C_5
REMARK    5  A    between atoms: C_4  and  C_17
REMARK    6  A    between atoms: C_5  and  O_6
REMARK    7  A    between atoms: O_6  and  C_7
REMARK    8  A    between atoms: C_10  and  C_11
REMARK    9  A    between atoms: C_17  and  S_18
REMARK   10  A    between atoms: S_18  and  C_19
REMARK   11  A    between atoms: C_22  and  O_23
REMARK   12  A    between atoms: O_23  and  C_24
REMARK   13  A    between atoms: C_24  and  C_25
REMARK   14  A    between atoms: C_25  and  O_27
REMARK   15  A    between atoms: C_28  and  C_29
REMARK                            x       y       z     vdW  Elec       q    Type
REMARK                         _______ _______ _______ _____ _____    ______ ____
ROOT
ATOM      1  C   UNL     1       5.464   7.145  17.090  0.00  0.00    +0.000 C 
ENDROOT
BRANCH   1   2
ATOM      2  O   UNL     1       6.740   6.865  17.711  0.00  0.00    +0.000 OA
BRANCH   2   4
ATOM      3  C   UNL     1       8.132   8.808  18.051  0.00  0.00    +0.000 C 
ATOM      4  C   UNL     1       7.827   7.613  17.168  0.00  0.00    +0.000 C 
ENDBRANCH   2   4
ENDBRANCH   1   2
BRANCH   1   5
ATOM      5  C   UNL     1       4.351   6.971  18.134  0.00  0.00    +0.000 C 
BRANCH   5   6
ATOM      6  O   UNL     1       3.034   7.205  17.617  0.00  0.00    +0.000 OA
BRANCH   6   7
ATOM      7  C   UNL     1       2.262   7.963  18.460  0.00  0.00    +0.000 A 
ATOM      8  C   UNL     1       1.667   9.111  17.938  0.00  0.00    +0.000 A 
ATOM      9  C   UNL     1       0.900   9.937  18.760  0.00  0.00    +0.000 A 
ATOM     10  C   UNL     1       0.685   9.617  20.111  0.00  0.00    +0.000 A 
ATOM     11  C   UNL     1       1.268   8.454  20.625  0.00  0.00    +0.000 A 
ATOM     12  C   UNL     1       2.041   7.639  19.806  0.00  0.00    +0.000 A 
BRANCH  10  13
ATOM     13  C   UNL     1      -0.156  10.483  21.007  0.00  0.00    +0.000 C 
ATOM     14  F   UNL     1      -0.658   9.824  22.091  0.00  0.00    +0.000 F 
ATOM     15  F   UNL     1       0.538  11.544  21.501  0.00  0.00    +0.000 F 
ATOM     16  F   UNL     1      -1.237  11.009  20.365  0.00  0.00    +0.000 F 
ENDBRANCH  10  13
ENDBRANCH   6   7
ENDBRANCH   5   6
ENDBRANCH   1   5
BRANCH   1  17
ATOM     17  C   UNL     1       5.228   6.264  15.863  0.00  0.00    +0.000 C 
BRANCH  17  18
ATOM     18  S   UNL     1       5.964   4.597  16.002  0.00  0.00    +0.000 S 
BRANCH  18  19
ATOM     19  C   UNL     1       4.711   3.847  17.008  0.00  0.00    +0.000 A 
ATOM     20  C   UNL     1       3.391   3.833  16.589  0.00  0.00    +0.000 A 
ATOM     21  C   UNL     1       2.420   3.222  17.376  0.00  0.00    +0.000 A 
ATOM     22  C   UNL     1       2.736   2.585  18.587  0.00  0.00    +0.000 A 
ATOM     23  C   UNL     1       4.065   2.654  19.055  0.00  0.00    +0.000 A 
ATOM     24  C   UNL     1       4.612   2.109  20.347  0.00  0.00    +0.000 C 
ATOM     25  C   UNL     1       5.036   3.281  18.236  0.00  0.00    +0.000 A 
BRANCH  22  26
ATOM     26  O   UNL     1       1.754   1.895  19.277  0.00  0.00    +0.000 OA
BRANCH  26  27
ATOM     27  C   UNL     1       0.852   2.766  20.005  0.00  0.00    +0.000 C 
BRANCH  27  28
ATOM     28  C   UNL     1       1.446   3.307  21.303  0.00  0.00    +0.000 C 
ATOM     29  O   UNL     1       1.901   4.426  21.413  0.00  0.00    +0.000 OA
BRANCH  28  30
ATOM     30  O   UNL     1       1.403   2.423  22.305  0.00  0.00    +0.000 OA
ATOM     31  H   UNL     1       1.288   2.895  23.172  0.00  0.00    +0.000 HD
ENDBRANCH  28  30
ENDBRANCH  27  28
ENDBRANCH  26  27
ENDBRANCH  22  26
ENDBRANCH  18  19
ENDBRANCH  17  18
ENDBRANCH   1  17
TORSDOF 13
ENDMDL
MODEL 7
REMARK VINA RESULT:      -6.8      6.139      8.835
REMARK  Name = 
REMARK  15 active torsions:
REMARK  status: ('A' for Active; 'I' for Inactive)
REMARK    1  A    between atoms: C_1  and  C_2
REMARK    2  A    between atoms: C_2  and  O_3
REMARK    3  A    between atoms: O_3  and  C_4
REMARK    4  A    between atoms: C_4  and  C_5
REMARK    5  A    between atoms: C_4  and  C_17
REMARK    6  A    between atoms: C_5  and  O_6
REMARK    7  A    between atoms: O_6  and  C_7
REMARK    8  A    between atoms: C_10  and  C_11
REMARK    9  A    between atoms: C_17  and  S_18
REMARK   10  A    between atoms: S_18  and  C_19
REMARK   11  A    between atoms: C_22  and  O_23
REMARK   12  A    between atoms: O_23  and  C_24
REMARK   13  A    between atoms: C_24  and  C_25
REMARK   14  A    between atoms: C_25  and  O_27
REMARK   15  A    between atoms: C_28  and  C_29
REMARK                            x       y       z     vdW  Elec       q    Type
REMARK                         _______ _______ _______ _____ _____    ______ ____
ROOT
ATOM      1  C   UNL     1       7.346   7.105  17.720  0.00  0.00    +0.000 C 
ENDROOT
BRANCH   1   2
ATOM      2  O   UNL     1       7.680   6.372  18.921  0.00  0.00    +0.000 OA
BRANCH   2   4
ATOM      3  C   UNL     1       7.693   4.620  17.260  0.00  0.00    +0.000 C 
ATOM      4  C   UNL     1       7.757   4.958  18.737  0.00  0.00    +0.000 C 
ENDBRANCH   2   4
ENDBRANCH   1   2
BRANCH   1   5
ATOM      5  C   UNL     1       8.096   8.446  17.729  0.00  0.00    +0.000 C 
BRANCH   5   6
ATOM      6  O   UNL     1       8.792   8.709  18.954  0.00  0.00    +0.000 OA
BRANCH   6   7
ATOM      7  C   UNL     1       9.149  10.026  19.087  0.00  0.00    +0.000 A 
ATOM      8  C   UNL     1       9.302  10.777  17.922  0.00  0.00    +0.000 A 
ATOM      9  C   UNL     1       9.699  12.113  17.999  0.00  0.00    +0.000 A 
ATOM     10  C   UNL     1       9.918  12.734  19.239  0.00  0.00    +0.000 A 
ATOM     11  C   UNL     1       9.745  11.981  20.405  0.00  0.00    +0.000 A 
ATOM     12  C   UNL     1       9.361  10.648  20.326  0.00  0.00    +0.000 A 
BRANCH  10  13
ATOM     13  C   UNL     1      10.324  14.178  19.343  0.00  0.00    +0.000 C 
ATOM     14  F   UNL     1      11.571  14.433  18.851  0.00  0.00    +0.000 F 
ATOM     15  F   UNL     1       9.478  15.003  18.667  0.00  0.00    +0.000 F 
ATOM     16  F   UNL     1      10.338  14.628  20.629  0.00  0.00    +0.000 F 
ENDBRANCH  10  13
ENDBRANCH   6   7
ENDBRANCH   5   6
ENDBRANCH   1   5
BRANCH   1  17
ATOM     17  C   UNL     1       5.837   7.304  17.582  0.00  0.00    +0.000 C 
BRANCH  17  18
ATOM     18  S   UNL     1       5.063   6.215  16.335  0.00  0.00    +0.000 S 
BRANCH  18  19
ATOM     19  C   UNL     1       3.781   5.530  17.352  0.00  0.00    +0.000 A 
ATOM     20  C   UNL     1       3.219   4.303  17.041  0.00  0.00    +0.000 A 
ATOM     21  C   UNL     1       2.230   3.767  17.859  0.00  0.00    +0.000 A 
ATOM     22  C   UNL     1       1.791   4.420  19.022  0.00  0.00    +0.000 A 
ATOM     23  C   UNL     1       2.308   5.701  19.309  0.00  0.00    +0.000 A 
ATOM     24  C   UNL     1       1.933   6.605  20.452  0.00  0.00    +0.000 C 
ATOM     25  C   UNL     1       3.314   6.226  18.462  0.00  0.00    +0.000 A 
BRANCH  22  26
ATOM     26  O   UNL     1       0.886   3.793  19.861  0.00  0.00    +0.000 OA
BRANCH  26  27
ATOM     27  C   UNL     1       1.369   2.527  20.376  0.00  0.00    +0.000 C 
BRANCH  27  28
ATOM     28  C   UNL     1       2.595   2.664  21.274  0.00  0.00    +0.000 C 
ATOM     29  O   UNL     1       3.703   2.289  20.953  0.00  0.00    +0.000 OA
BRANCH  28  30
ATOM     30  O   UNL     1       2.321   3.248  22.445  0.00  0.00    +0.000 OA
ATOM     31  H   UNL     1       1.758   2.647  23.002  0.00  0.00    +0.000 HD
ENDBRANCH  28  30
ENDBRANCH  27  28
ENDBRANCH  26  27
ENDBRANCH  22  26
ENDBRANCH  18  19
ENDBRANCH  17  18
ENDBRANCH   1  17
TORSDOF 13
ENDMDL
MODEL 8
REMARK VINA RESULT:      -6.8      3.408      5.380
REMARK  Name = 
REMARK  15 active torsions:
REMARK  status: ('A' for Active; 'I' for Inactive)
REMARK    1  A    between atoms: C_1  and  C_2
REMARK    2  A    between atoms: C_2  and  O_3
REMARK    3  A    between atoms: O_3  and  C_4
REMARK    4  A    between atoms: C_4  and  C_5
REMARK    5  A    between atoms: C_4  and  C_17
REMARK    6  A    between atoms: C_5  and  O_6
REMARK    7  A    between atoms: O_6  and  C_7
REMARK    8  A    between atoms: C_10  and  C_11
REMARK    9  A    between atoms: C_17  and  S_18
REMARK   10  A    between atoms: S_18  and  C_19
REMARK   11  A    between atoms: C_22  and  O_23
REMARK   12  A    between atoms: O_23  and  C_24
REMARK   13  A    between atoms: C_24  and  C_25
REMARK   14  A    between atoms: C_25  and  O_27
REMARK   15  A    between atoms: C_28  and  C_29
REMARK                            x       y       z     vdW  Elec       q    Type
REMARK                         _______ _______ _______ _____ _____    ______ ____
ROOT
ATOM      1  C   UNL     1       1.424   8.425  19.863  0.00  0.00    +0.000 C 
ENDROOT
BRANCH   1   2
ATOM      2  O   UNL     1       1.827   9.134  21.058  0.00  0.00    +0.000 OA
BRANCH   2   4
ATOM      3  C   UNL     1      -0.452   8.840  21.797  0.00  0.00    +0.000 C 
ATOM      4  C   UNL     1       1.010   8.865  22.197  0.00  0.00    +0.000 C 
ENDBRANCH   2   4
ENDBRANCH   1   2
BRANCH   1   5
ATOM      5  C   UNL     1       2.323   7.192  19.687  0.00  0.00    +0.000 C 
BRANCH   5   6
ATOM      6  O   UNL     1       2.014   6.415  18.523  0.00  0.00    +0.000 OA
BRANCH   6   7
ATOM      7  C   UNL     1       3.134   5.922  17.903  0.00  0.00    +0.000 A 
ATOM      8  C   UNL     1       4.081   6.840  17.451  0.00  0.00    +0.000 A 
ATOM      9  C   UNL     1       5.223   6.395  16.782  0.00  0.00    +0.000 A 
ATOM     10  C   UNL     1       5.456   5.025  16.580  0.00  0.00    +0.000 A 
ATOM     11  C   UNL     1       4.512   4.108  17.052  0.00  0.00    +0.000 A 
ATOM     12  C   UNL     1       3.371   4.554  17.708  0.00  0.00    +0.000 A 
BRANCH  10  13
ATOM     13  C   UNL     1       6.690   4.525  15.882  0.00  0.00    +0.000 C 
ATOM     14  F   UNL     1       7.256   5.443  15.047  0.00  0.00    +0.000 F 
ATOM     15  F   UNL     1       7.667   4.159  16.756  0.00  0.00    +0.000 F 
ATOM     16  F   UNL     1       6.447   3.428  15.111  0.00  0.00    +0.000 F 
ENDBRANCH  10  13
ENDBRANCH   6   7
ENDBRANCH   5   6
ENDBRANCH   1   5
BRANCH   1  17
ATOM     17  C   UNL     1       1.460   9.329  18.632  0.00  0.00    +0.000 C 
BRANCH  17  18
ATOM     18  S   UNL     1       1.266  11.105  19.017  0.00  0.00    +0.000 S 
BRANCH  18  19
ATOM     19  C   UNL     1      -0.491  11.223  18.808  0.00  0.00    +0.000 A 
ATOM     20  C   UNL     1      -1.246  12.021  19.651  0.00  0.00    +0.000 A 
ATOM     21  C   UNL     1      -2.620  12.122  19.463  0.00  0.00    +0.000 A 
ATOM     22  C   UNL     1      -3.280  11.457  18.417  0.00  0.00    +0.000 A 
ATOM     23  C   UNL     1      -2.530  10.589  17.595  0.00  0.00    +0.000 A 
ATOM     24  C   UNL     1      -3.036   9.730  16.468  0.00  0.00    +0.000 C 
ATOM     25  C   UNL     1      -1.133  10.502  17.805  0.00  0.00    +0.000 A 
BRANCH  22  26
ATOM     26  O   UNL     1      -4.629  11.680  18.204  0.00  0.00    +0.000 OA
BRANCH  26  27
ATOM     27  C   UNL     1      -5.306  12.228  19.364  0.00  0.00    +0.000 C 
BRANCH  27  28
ATOM     28  C   UNL     1      -6.437  11.343  19.881  0.00  0.00    +0.000 C 
ATOM     29  O   UNL     1      -7.076  10.594  19.172  0.00  0.00    +0.000 OA
BRANCH  28  30
ATOM     30  O   UNL     1      -6.643  11.475  21.195  0.00  0.00    +0.000 OA
ATOM     31  H   UNL     1      -6.175  10.750  21.688  0.00  0.00    +0.000 HD
ENDBRANCH  28  30
ENDBRANCH  27  28
ENDBRANCH  26  27
ENDBRANCH  22  26
ENDBRANCH  18  19
ENDBRANCH  17  18
ENDBRANCH   1  17
TORSDOF 13
ENDMDL
MODEL 9
REMARK VINA RESULT:      -6.8      4.377      9.353
REMARK  Name = 
REMARK  15 active torsions:
REMARK  status: ('A' for Active; 'I' for Inactive)
REMARK    1  A    between atoms: C_1  and  C_2
REMARK    2  A    between atoms: C_2  and  O_3
REMARK    3  A    between atoms: O_3  and  C_4
REMARK    4  A    between atoms: C_4  and  C_5
REMARK    5  A    between atoms: C_4  and  C_17
REMARK    6  A    between atoms: C_5  and  O_6
REMARK    7  A    between atoms: O_6  and  C_7
REMARK    8  A    between atoms: C_10  and  C_11
REMARK    9  A    between atoms: C_17  and  S_18
REMARK   10  A    between atoms: S_18  and  C_19
REMARK   11  A    between atoms: C_22  and  O_23
REMARK   12  A    between atoms: O_23  and  C_24
REMARK   13  A    between atoms: C_24  and  C_25
REMARK   14  A    between atoms: C_25  and  O_27
REMARK   15  A    between atoms: C_28  and  C_29
REMARK                            x       y       z     vdW  Elec       q    Type
REMARK                         _______ _______ _______ _____ _____    ______ ____
ROOT
ATOM      1  C   UNL     1      -0.008  10.622  19.711  0.00  0.00    +0.000 C 
ENDROOT
BRANCH   1   2
ATOM      2  O   UNL     1      -0.762  10.316  20.908  0.00  0.00    +0.000 OA
BRANCH   2   4
ATOM      3  C   UNL     1      -0.424   9.800  23.242  0.00  0.00    +0.000 C 
ATOM      4  C   UNL     1      -0.090   9.436  21.809  0.00  0.00    +0.000 C 
ENDBRANCH   2   4
ENDBRANCH   1   2
BRANCH   1   5
ATOM      5  C   UNL     1      -0.895  10.367  18.484  0.00  0.00    +0.000 C 
BRANCH   5   6
ATOM      6  O   UNL     1      -1.567  11.540  18.005  0.00  0.00    +0.000 OA
BRANCH   6   7
ATOM      7  C   UNL     1      -2.892  11.572  18.358  0.00  0.00    +0.000 A 
ATOM      8  C   UNL     1      -3.254  12.372  19.442  0.00  0.00    +0.000 A 
ATOM      9  C   UNL     1      -4.584  12.415  19.866  0.00  0.00    +0.000 A 
ATOM     10  C   UNL     1      -5.581  11.685  19.198  0.00  0.00    +0.000 A 
ATOM     11  C   UNL     1      -5.215  10.899  18.101  0.00  0.00    +0.000 A 
ATOM     12  C   UNL     1      -3.889  10.850  17.687  0.00  0.00    +0.000 A 
BRANCH  10  13
ATOM     13  C   UNL     1      -7.021  11.734  19.627  0.00  0.00    +0.000 C 
ATOM     14  F   UNL     1      -7.222  12.410  20.794  0.00  0.00    +0.000 F 
ATOM     15  F   UNL     1      -7.816  12.339  18.702  0.00  0.00    +0.000 F 
ATOM     16  F   UNL     1      -7.552  10.495  19.824  0.00  0.00    +0.000 F 
ENDBRANCH  10  13
ENDBRANCH   6   7
ENDBRANCH   5   6
ENDBRANCH   1   5
BRANCH   1  17
ATOM     17  C   UNL     1       1.292   9.821  19.643  0.00  0.00    +0.000 C 
BRANCH  17  18
ATOM     18  S   UNL     1       1.840   9.452  17.940  0.00  0.00    +0.000 S 
BRANCH  18  19
ATOM     19  C   UNL     1       2.550   7.855  18.238  0.00  0.00    +0.000 A 
ATOM     20  C   UNL     1       3.559   7.372  17.422  0.00  0.00    +0.000 A 
ATOM     21  C   UNL     1       4.122   6.126  17.679  0.00  0.00    +0.000 A 
ATOM     22  C   UNL     1       3.720   5.338  18.769  0.00  0.00    +0.000 A 
ATOM     23  C   UNL     1       2.646   5.790  19.565  0.00  0.00    +0.000 A 
ATOM     24  C   UNL     1       2.008   5.084  20.730  0.00  0.00    +0.000 C 
ATOM     25  C   UNL     1       2.089   7.061  19.284  0.00  0.00    +0.000 A 
BRANCH  22  26
ATOM     26  O   UNL     1       4.388   4.158  19.048  0.00  0.00    +0.000 OA
BRANCH  26  27
ATOM     27  C   UNL     1       4.275   3.176  17.987  0.00  0.00    +0.000 C 
BRANCH  27  28
ATOM     28  C   UNL     1       2.869   2.603  17.837  0.00  0.00    +0.000 C 
ATOM     29  O   UNL     1       2.045   3.050  17.068  0.00  0.00    +0.000 OA
BRANCH  28  30
ATOM     30  O   UNL     1       2.645   1.553  18.634  0.00  0.00    +0.000 OA
ATOM     31  H   UNL     1       3.420   0.932  18.605  0.00  0.00    +0.000 HD
ENDBRANCH  28  30
ENDBRANCH  27  28
ENDBRANCH  26  27
ENDBRANCH  22  26
ENDBRANCH  18  19
ENDBRANCH  17  18
ENDBRANCH   1  17
TORSDOF 13
ENDMDL
