MODEL 1
REMARK VINA RESULT:      -7.4      0.000      0.000
REMARK  Name = 
REMARK  7 active torsions:
REMARK  status: ('A' for Active; 'I' for Inactive)
REMARK    1  A    between atoms: C_1  and  O_2
REMARK    2  A    between atoms: O_2  and  C_3
REMARK    3  A    between atoms: C_6  and  N_7
REMARK    4  A    between atoms: C_8  and  C_10
REMARK    5  A    between atoms: C_13  and  N_14
REMARK    6  A    between atoms: C_15  and  C_17
REMARK    7  A    between atoms: C_21  and  C_22
REMARK                            x       y       z     vdW  Elec       q    Type
REMARK                         _______ _______ _______ _____ _____    ______ ____
ROOT
ATOM      1  C   UNL     1       0.801   9.525  19.556  0.00  0.00    +0.000 A 
ATOM      2  C   UNL     1       1.277   8.396  20.225  0.00  0.00    +0.000 A 
ATOM      3  C   UNL     1       2.240   7.585  19.622  0.00  0.00    +0.000 A 
ATOM      4  C   UNL     1       2.723   7.874  18.345  0.00  0.00    +0.000 A 
ATOM      5  C   UNL     1       2.255   9.014  17.683  0.00  0.00    +0.000 A 
ATOM      6  C   UNL     1       1.286   9.827  18.278  0.00  0.00    +0.000 A 
ENDROOT
BRANCH   1   8
ATOM      7  N   UNL     1       0.105  10.993  21.354  0.00  0.00    +0.000 N 
ATOM      8  C   UNL     1      -0.242  10.400  20.152  0.00  0.00    +0.000 C 
ATOM      9  O   UNL     1      -1.288  10.543  19.531  0.00  0.00    +0.000 OA
ATOM     10  H   UNL     1       1.049  10.852  21.688  0.00  0.00    +0.000 HD
BRANCH   7  14
ATOM     11  C   UNL     1      -2.214  13.721  23.585  0.00  0.00    +0.000 A 
ATOM     12  C   UNL     1      -2.546  12.367  23.593  0.00  0.00    +0.000 A 
ATOM     13  C   UNL     1      -1.780  11.442  22.886  0.00  0.00    +0.000 A 
ATOM     14  C   UNL     1      -0.687  11.862  22.130  0.00  0.00    +0.000 A 
ATOM     15  C   UNL     1      -0.353  13.222  22.123  0.00  0.00    +0.000 A 
ATOM     16  C   UNL     1      -1.111  14.150  22.849  0.00  0.00    +0.000 A 
BRANCH  11  18
ATOM     17  C   UNL     1      -2.520  15.116  25.466  0.00  0.00    +0.000 C 
ATOM     18  O   UNL     1      -3.061  14.525  24.295  0.00  0.00    +0.000 OA
ENDBRANCH  11  18
ENDBRANCH   7  14
ENDBRANCH   1   8
BRANCH   4  19
ATOM     19  N   UNL     1       3.660   7.062  17.675  0.00  0.00    +0.000 N 
ATOM     20  C   UNL     1       4.434   6.054  18.235  0.00  0.00    +0.000 C 
ATOM     21  O   UNL     1       4.366   5.719  19.415  0.00  0.00    +0.000 OA
ATOM     22  H   UNL     1       3.709   7.153  16.668  0.00  0.00    +0.000 HD
BRANCH  20  23
ATOM     23  C   UNL     1       5.322   5.369  17.309  0.00  0.00    +0.000 A 
ATOM     24  S   UNL     1       4.853   3.973  16.424  0.00  0.00    +0.000 S 
ATOM     25  C   UNL     1       6.396   3.931  15.690  0.00  0.00    +0.000 A 
ATOM     26  N   UNL     1       7.235   4.872  16.053  0.00  0.00    +0.000 NA
ATOM     27  C   UNL     1       6.631   5.706  16.983  0.00  0.00    +0.000 A 
ATOM     28  C   UNL     1       7.427   6.841  17.531  0.00  0.00    +0.000 C 
ENDBRANCH  20  23
ENDBRANCH   4  19
TORSDOF 5
ENDMDL
MODEL 2
REMARK VINA RESULT:      -7.4      1.180      1.540
REMARK  Name = 
REMARK  7 active torsions:
REMARK  status: ('A' for Active; 'I' for Inactive)
REMARK    1  A    between atoms: C_1  and  O_2
REMARK    2  A    between atoms: O_2  and  C_3
REMARK    3  A    between atoms: C_6  and  N_7
REMARK    4  A    between atoms: C_8  and  C_10
REMARK    5  A    between atoms: C_13  and  N_14
REMARK    6  A    between atoms: C_15  and  C_17
REMARK    7  A    between atoms: C_21  and  C_22
REMARK                            x       y       z     vdW  Elec       q    Type
REMARK                         _______ _______ _______ _____ _____    ______ ____
ROOT
ATOM      1  C   UNL     1       0.907   8.922  20.033  0.00  0.00    +0.000 A 
ATOM      2  C   UNL     1       1.208   9.480  18.790  0.00  0.00    +0.000 A 
ATOM      3  C   UNL     1       2.147   8.866  17.960  0.00  0.00    +0.000 A 
ATOM      4  C   UNL     1       2.812   7.708  18.364  0.00  0.00    +0.000 A 
ATOM      5  C   UNL     1       2.498   7.141  19.603  0.00  0.00    +0.000 A 
ATOM      6  C   UNL     1       1.562   7.754  20.442  0.00  0.00    +0.000 A 
ENDROOT
BRANCH   1   8
ATOM      7  N   UNL     1      -0.427  10.854  20.630  0.00  0.00    +0.000 N 
ATOM      8  C   UNL     1      -0.069   9.557  20.956  0.00  0.00    +0.000 C 
ATOM      9  O   UNL     1      -0.488   8.887  21.891  0.00  0.00    +0.000 OA
ATOM     10  H   UNL     1      -0.067  11.234  19.765  0.00  0.00    +0.000 HD
BRANCH   7  14
ATOM     11  C   UNL     1      -3.220  13.336  22.588  0.00  0.00    +0.000 A 
ATOM     12  C   UNL     1      -2.279  12.632  23.339  0.00  0.00    +0.000 A 
ATOM     13  C   UNL     1      -1.329  11.826  22.714  0.00  0.00    +0.000 A 
ATOM     14  C   UNL     1      -1.326  11.685  21.328  0.00  0.00    +0.000 A 
ATOM     15  C   UNL     1      -2.270  12.394  20.574  0.00  0.00    +0.000 A 
ATOM     16  C   UNL     1      -3.214  13.219  21.200  0.00  0.00    +0.000 A 
BRANCH  11  18
ATOM     17  C   UNL     1      -3.557  14.867  24.356  0.00  0.00    +0.000 C 
ATOM     18  O   UNL     1      -4.112  14.066  23.324  0.00  0.00    +0.000 OA
ENDBRANCH  11  18
ENDBRANCH   7  14
ENDBRANCH   1   8
BRANCH   4  19
ATOM     19  N   UNL     1       3.801   7.077  17.583  0.00  0.00    +0.000 N 
ATOM     20  C   UNL     1       4.648   6.053  17.987  0.00  0.00    +0.000 C 
ATOM     21  O   UNL     1       4.609   5.537  19.102  0.00  0.00    +0.000 OA
ATOM     22  H   UNL     1       3.839   7.324  16.602  0.00  0.00    +0.000 HD
BRANCH  20  23
ATOM     23  C   UNL     1       5.578   5.583  16.973  0.00  0.00    +0.000 A 
ATOM     24  S   UNL     1       5.211   4.299  15.892  0.00  0.00    +0.000 S 
ATOM     25  C   UNL     1       6.746   4.486  15.163  0.00  0.00    +0.000 A 
ATOM     26  N   UNL     1       7.512   5.427  15.662  0.00  0.00    +0.000 NA
ATOM     27  C   UNL     1       6.853   6.065  16.703  0.00  0.00    +0.000 A 
ATOM     28  C   UNL     1       7.563   7.167  17.413  0.00  0.00    +0.000 C 
ENDBRANCH  20  23
ENDBRANCH   4  19
TORSDOF 5
ENDMDL
MODEL 3
REMARK VINA RESULT:      -7.4      1.342      1.482
REMARK  Name = 
REMARK  7 active torsions:
REMARK  status: ('A' for Active; 'I' for Inactive)
REMARK    1  A    between atoms: C_1  and  O_2
REMARK    2  A    between atoms: O_2  and  C_3
REMARK    3  A    between atoms: C_6  and  N_7
REMARK    4  A    between atoms: C_8  and  C_10
REMARK    5  A    between atoms: C_13  and  N_14
REMARK    6  A    between atoms: C_15  and  C_17
REMARK    7  A    between atoms: C_21  and  C_22
REMARK                            x       y       z     vdW  Elec       q    Type
REMARK                         _______ _______ _______ _____ _____    ______ ____
ROOT
ATOM      1  C   UNL     1       0.922   8.699  20.208  0.00  0.00    +0.000 A 
ATOM      2  C   UNL     1       1.505   7.499  20.617  0.00  0.00    +0.000 A 
ATOM      3  C   UNL     1       2.480   6.893  19.823  0.00  0.00    +0.000 A 
ATOM      4  C   UNL     1       2.869   7.459  18.608  0.00  0.00    +0.000 A 
ATOM      5  C   UNL     1       2.294   8.669  18.207  0.00  0.00    +0.000 A 
ATOM      6  C   UNL     1       1.312   9.279  18.994  0.00  0.00    +0.000 A 
ENDROOT
BRANCH   1   8
ATOM      7  N   UNL     1      -0.337  10.703  20.726  0.00  0.00    +0.000 N 
ATOM      8  C   UNL     1      -0.137   9.364  21.012  0.00  0.00    +0.000 C 
ATOM      9  O   UNL     1      -0.750   8.680  21.822  0.00  0.00    +0.000 OA
ATOM     10  H   UNL     1       0.184  11.099  19.955  0.00  0.00    +0.000 HD
BRANCH   7  14
ATOM     11  C   UNL     1      -3.219  13.288  22.404  0.00  0.00    +0.000 A 
ATOM     12  C   UNL     1      -2.360  12.576  23.242  0.00  0.00    +0.000 A 
ATOM     13  C   UNL     1      -1.383  11.736  22.711  0.00  0.00    +0.000 A 
ATOM     14  C   UNL     1      -1.270  11.568  21.332  0.00  0.00    +0.000 A 
ATOM     15  C   UNL     1      -2.131  12.284  20.492  0.00  0.00    +0.000 A 
ATOM     16  C   UNL     1      -3.102  13.143  21.023  0.00  0.00    +0.000 A 
BRANCH  11  18
ATOM     17  C   UNL     1      -5.449  13.491  23.155  0.00  0.00    +0.000 C 
ATOM     18  O   UNL     1      -4.149  14.052  23.050  0.00  0.00    +0.000 OA
ENDBRANCH  11  18
ENDBRANCH   7  14
ENDBRANCH   1   8
BRANCH   4  19
ATOM     19  N   UNL     1       3.813   6.863  17.750  0.00  0.00    +0.000 N 
ATOM     20  C   UNL     1       4.770   5.918  18.097  0.00  0.00    +0.000 C 
ATOM     21  O   UNL     1       4.887   5.451  19.228  0.00  0.00    +0.000 OA
ATOM     22  H   UNL     1       3.730   7.068  16.761  0.00  0.00    +0.000 HD
BRANCH  20  23
ATOM     23  C   UNL     1       5.620   5.468  17.006  0.00  0.00    +0.000 A 
ATOM     24  S   UNL     1       5.202   4.158  15.975  0.00  0.00    +0.000 S 
ATOM     25  C   UNL     1       6.656   4.389  15.107  0.00  0.00    +0.000 A 
ATOM     26  N   UNL     1       7.431   5.362  15.525  0.00  0.00    +0.000 NA
ATOM     27  C   UNL     1       6.848   5.990  16.616  0.00  0.00    +0.000 A 
ATOM     28  C   UNL     1       7.580   7.125  17.248  0.00  0.00    +0.000 C 
ENDBRANCH  20  23
ENDBRANCH   4  19
TORSDOF 5
ENDMDL
MODEL 4
REMARK VINA RESULT:      -7.3      4.151     10.809
REMARK  Name = 
REMARK  7 active torsions:
REMARK  status: ('A' for Active; 'I' for Inactive)
REMARK    1  A    between atoms: C_1  and  O_2
REMARK    2  A    between atoms: O_2  and  C_3
REMARK    3  A    between atoms: C_6  and  N_7
REMARK    4  A    between atoms: C_8  and  C_10
REMARK    5  A    between atoms: C_13  and  N_14
REMARK    6  A    between atoms: C_15  and  C_17
REMARK    7  A    between atoms: C_21  and  C_22
REMARK                            x       y       z     vdW  Elec       q    Type
REMARK                         _______ _______ _______ _____ _____    ______ ____
ROOT
ATOM      1  C   UNL     1       0.941   9.149  20.769  0.00  0.00    +0.000 A 
ATOM      2  C   UNL     1       0.980  10.422  20.199  0.00  0.00    +0.000 A 
ATOM      3  C   UNL     1       0.343  11.489  20.834  0.00  0.00    +0.000 A 
ATOM      4  C   UNL     1      -0.357  11.299  22.026  0.00  0.00    +0.000 A 
ATOM      5  C   UNL     1      -0.383  10.025  22.604  0.00  0.00    +0.000 A 
ATOM      6  C   UNL     1       0.249   8.951  21.970  0.00  0.00    +0.000 A 
ENDROOT
BRANCH   1   8
ATOM      7  N   UNL     1       1.578   6.813  20.854  0.00  0.00    +0.000 N 
ATOM      8  C   UNL     1       1.586   7.982  20.113  0.00  0.00    +0.000 C 
ATOM      9  O   UNL     1       2.035   8.140  18.985  0.00  0.00    +0.000 OA
ATOM     10  H   UNL     1       1.076   6.820  21.732  0.00  0.00    +0.000 HD
BRANCH   7  14
ATOM     11  C   UNL     1       3.035   3.020  19.716  0.00  0.00    +0.000 A 
ATOM     12  C   UNL     1       3.825   4.151  19.513  0.00  0.00    +0.000 A 
ATOM     13  C   UNL     1       3.377   5.412  19.904  0.00  0.00    +0.000 A 
ATOM     14  C   UNL     1       2.115   5.566  20.475  0.00  0.00    +0.000 A 
ATOM     15  C   UNL     1       1.323   4.430  20.681  0.00  0.00    +0.000 A 
ATOM     16  C   UNL     1       1.780   3.160  20.305  0.00  0.00    +0.000 A 
BRANCH  11  18
ATOM     17  C   UNL     1       3.547   1.658  17.856  0.00  0.00    +0.000 C 
ATOM     18  O   UNL     1       3.577   1.851  19.262  0.00  0.00    +0.000 OA
ENDBRANCH  11  18
ENDBRANCH   7  14
ENDBRANCH   1   8
BRANCH   4  19
ATOM     19  N   UNL     1      -1.055  12.333  22.681  0.00  0.00    +0.000 N 
ATOM     20  C   UNL     1      -2.271  12.884  22.298  0.00  0.00    +0.000 C 
ATOM     21  O   UNL     1      -2.918  12.499  21.328  0.00  0.00    +0.000 OA
ATOM     22  H   UNL     1      -0.687  12.643  23.572  0.00  0.00    +0.000 HD
BRANCH  20  23
ATOM     23  C   UNL     1      -2.769  13.943  23.162  0.00  0.00    +0.000 A 
ATOM     24  S   UNL     1      -2.296  15.586  22.995  0.00  0.00    +0.000 S 
ATOM     25  C   UNL     1      -3.313  16.003  24.304  0.00  0.00    +0.000 A 
ATOM     26  N   UNL     1      -3.976  15.016  24.858  0.00  0.00    +0.000 NA
ATOM     27  C   UNL     1      -3.672  13.826  24.212  0.00  0.00    +0.000 A 
ATOM     28  C   UNL     1      -4.320  12.576  24.701  0.00  0.00    +0.000 C 
ENDBRANCH  20  23
ENDBRANCH   4  19
TORSDOF 5
ENDMDL
MODEL 5
REMARK VINA RESULT:      -7.3      1.458      1.874
REMARK  Name = 
REMARK  7 active torsions:
REMARK  status: ('A' for Active; 'I' for Inactive)
REMARK    1  A    between atoms: C_1  and  O_2
REMARK    2  A    between atoms: O_2  and  C_3
REMARK    3  A    between atoms: C_6  and  N_7
REMARK    4  A    between atoms: C_8  and  C_10
REMARK    5  A    between atoms: C_13  and  N_14
REMARK    6  A    between atoms: C_15  and  C_17
REMARK    7  A    between atoms: C_21  and  C_22
REMARK                            x       y       z     vdW  Elec       q    Type
REMARK                         _______ _______ _______ _____ _____    ______ ____
ROOT
ATOM      1  C   UNL     1       1.123   8.751  19.771  0.00  0.00    +0.000 A 
ATOM      2  C   UNL     1       1.436   9.244  18.504  0.00  0.00    +0.000 A 
ATOM      3  C   UNL     1       2.421   8.619  17.737  0.00  0.00    +0.000 A 
ATOM      4  C   UNL     1       3.119   7.516  18.229  0.00  0.00    +0.000 A 
ATOM      5  C   UNL     1       2.794   7.014  19.494  0.00  0.00    +0.000 A 
ATOM      6  C   UNL     1       1.812   7.638  20.269  0.00  0.00    +0.000 A 
ENDROOT
BRANCH   1   8
ATOM      7  N   UNL     1      -0.109  10.748  20.377  0.00  0.00    +0.000 N 
ATOM      8  C   UNL     1       0.099   9.402  20.629  0.00  0.00    +0.000 C 
ATOM      9  O   UNL     1      -0.484   8.704  21.449  0.00  0.00    +0.000 OA
ATOM     10  H   UNL     1       0.383  11.157  19.595  0.00  0.00    +0.000 HD
BRANCH   7  14
ATOM     11  C   UNL     1      -2.708  13.331  22.467  0.00  0.00    +0.000 A 
ATOM     12  C   UNL     1      -2.929  13.079  21.113  0.00  0.00    +0.000 A 
ATOM     13  C   UNL     1      -2.100  12.209  20.407  0.00  0.00    +0.000 A 
ATOM     14  C   UNL     1      -1.015  11.602  21.036  0.00  0.00    +0.000 A 
ATOM     15  C   UNL     1      -0.795  11.854  22.396  0.00  0.00    +0.000 A 
ATOM     16  C   UNL     1      -1.638  12.714  23.112  0.00  0.00    +0.000 A 
BRANCH  11  18
ATOM     17  C   UNL     1      -4.759  14.491  22.299  0.00  0.00    +0.000 C 
ATOM     18  O   UNL     1      -3.574  14.224  23.034  0.00  0.00    +0.000 OA
ENDBRANCH  11  18
ENDBRANCH   7  14
ENDBRANCH   1   8
BRANCH   4  19
ATOM     19  N   UNL     1       4.153   6.879  17.515  0.00  0.00    +0.000 N 
ATOM     20  C   UNL     1       4.238   5.527  17.207  0.00  0.00    +0.000 C 
ATOM     21  O   UNL     1       3.375   4.705  17.505  0.00  0.00    +0.000 OA
ATOM     22  H   UNL     1       4.859   7.475  17.100  0.00  0.00    +0.000 HD
BRANCH  20  23
ATOM     23  C   UNL     1       5.420   5.138  16.453  0.00  0.00    +0.000 A 
ATOM     24  S   UNL     1       5.367   4.708  14.790  0.00  0.00    +0.000 S 
ATOM     25  C   UNL     1       7.058   4.457  14.811  0.00  0.00    +0.000 A 
ATOM     26  N   UNL     1       7.659   4.665  15.958  0.00  0.00    +0.000 NA
ATOM     27  C   UNL     1       6.729   5.056  16.911  0.00  0.00    +0.000 A 
ATOM     28  C   UNL     1       7.214   5.334  18.293  0.00  0.00    +0.000 C 
ENDBRANCH  20  23
ENDBRANCH   4  19
TORSDOF 5
ENDMDL
MODEL 6
REMARK VINA RESULT:      -7.2      3.629     10.760
REMARK  Name = 
REMARK  7 active torsions:
REMARK  status: ('A' for Active; 'I' for Inactive)
REMARK    1  A    between atoms: C_1  and  O_2
REMARK    2  A    between atoms: O_2  and  C_3
REMARK    3  A    between atoms: C_6  and  N_7
REMARK    4  A    between atoms: C_8  and  C_10
REMARK    5  A    between atoms: C_13  and  N_14
REMARK    6  A    between atoms: C_15  and  C_17
REMARK    7  A    between atoms: C_21  and  C_22
REMARK                            x       y       z     vdW  Elec       q    Type
REMARK                         _______ _______ _______ _____ _____    ______ ____
ROOT
ATOM      1  C   UNL     1       1.094   9.696  19.548  0.00  0.00    +0.000 A 
ATOM      2  C   UNL     1       0.511   9.142  20.689  0.00  0.00    +0.000 A 
ATOM      3  C   UNL     1      -0.089   9.974  21.636  0.00  0.00    +0.000 A 
ATOM      4  C   UNL     1      -0.098  11.359  21.472  0.00  0.00    +0.000 A 
ATOM      5  C   UNL     1       0.473  11.911  20.320  0.00  0.00    +0.000 A 
ATOM      6  C   UNL     1       1.082  11.085  19.370  0.00  0.00    +0.000 A 
ENDROOT
BRANCH   1   8
ATOM      7  N   UNL     1       2.337   7.686  19.014  0.00  0.00    +0.000 N 
ATOM      8  C   UNL     1       1.764   8.848  18.527  0.00  0.00    +0.000 C 
ATOM      9  O   UNL     1       1.732   9.226  17.363  0.00  0.00    +0.000 OA
ATOM     10  H   UNL     1       2.189   7.466  19.990  0.00  0.00    +0.000 HD
BRANCH   7  14
ATOM     11  C   UNL     1       4.275   4.666  16.795  0.00  0.00    +0.000 A 
ATOM     12  C   UNL     1       4.771   5.969  16.764  0.00  0.00    +0.000 A 
ATOM     13  C   UNL     1       4.164   6.979  17.509  0.00  0.00    +0.000 A 
ATOM     14  C   UNL     1       3.029   6.708  18.272  0.00  0.00    +0.000 A 
ATOM     15  C   UNL     1       2.533   5.399  18.304  0.00  0.00    +0.000 A 
ATOM     16  C   UNL     1       3.153   4.379  17.570  0.00  0.00    +0.000 A 
BRANCH  11  18
ATOM     17  C   UNL     1       5.814   4.346  15.032  0.00  0.00    +0.000 C 
ATOM     18  O   UNL     1       4.943   3.778  15.999  0.00  0.00    +0.000 OA
ENDBRANCH  11  18
ENDBRANCH   7  14
ENDBRANCH   1   8
BRANCH   4  19
ATOM     19  N   UNL     1      -0.649  12.243  22.420  0.00  0.00    +0.000 N 
ATOM     20  C   UNL     1      -1.873  12.895  22.334  0.00  0.00    +0.000 C 
ATOM     21  O   UNL     1      -2.659  12.745  21.403  0.00  0.00    +0.000 OA
ATOM     22  H   UNL     1      -0.153  12.343  23.298  0.00  0.00    +0.000 HD
BRANCH  20  23
ATOM     23  C   UNL     1      -2.197  13.752  23.463  0.00  0.00    +0.000 A 
ATOM     24  S   UNL     1      -1.316  15.179  23.836  0.00  0.00    +0.000 S 
ATOM     25  C   UNL     1      -2.353  15.462  25.165  0.00  0.00    +0.000 A 
ATOM     26  N   UNL     1      -3.302  14.576  25.357  0.00  0.00    +0.000 NA
ATOM     27  C   UNL     1      -3.224  13.588  24.385  0.00  0.00    +0.000 A 
ATOM     28  C   UNL     1      -4.216  12.476  24.433  0.00  0.00    +0.000 C 
ENDBRANCH  20  23
ENDBRANCH   4  19
TORSDOF 5
ENDMDL
MODEL 7
REMARK VINA RESULT:      -7.2      3.498     10.677
REMARK  Name = 
REMARK  7 active torsions:
REMARK  status: ('A' for Active; 'I' for Inactive)
REMARK    1  A    between atoms: C_1  and  O_2
REMARK    2  A    between atoms: O_2  and  C_3
REMARK    3  A    between atoms: C_6  and  N_7
REMARK    4  A    between atoms: C_8  and  C_10
REMARK    5  A    between atoms: C_13  and  N_14
REMARK    6  A    between atoms: C_15  and  C_17
REMARK    7  A    between atoms: C_21  and  C_22
REMARK                            x       y       z     vdW  Elec       q    Type
REMARK                         _______ _______ _______ _____ _____    ______ ____
ROOT
ATOM      1  C   UNL     1       1.178   9.423  19.137  0.00  0.00    +0.000 A 
ATOM      2  C   UNL     1       0.452  10.515  18.658  0.00  0.00    +0.000 A 
ATOM      3  C   UNL     1      -0.336  11.264  19.533  0.00  0.00    +0.000 A 
ATOM      4  C   UNL     1      -0.429  10.925  20.884  0.00  0.00    +0.000 A 
ATOM      5  C   UNL     1       0.312   9.840  21.365  0.00  0.00    +0.000 A 
ATOM      6  C   UNL     1       1.099   9.081  20.492  0.00  0.00    +0.000 A 
ENDROOT
BRANCH   1   8
ATOM      7  N   UNL     1       2.404   7.367  18.761  0.00  0.00    +0.000 N 
ATOM      8  C   UNL     1       2.010   8.586  18.234  0.00  0.00    +0.000 C 
ATOM      9  O   UNL     1       2.249   9.020  17.114  0.00  0.00    +0.000 OA
ATOM     10  H   UNL     1       2.038   7.111  19.668  0.00  0.00    +0.000 HD
BRANCH   7  14
ATOM     11  C   UNL     1       4.620   4.341  16.831  0.00  0.00    +0.000 A 
ATOM     12  C   UNL     1       5.170   5.615  16.970  0.00  0.00    +0.000 A 
ATOM     13  C   UNL     1       4.468   6.625  17.626  0.00  0.00    +0.000 A 
ATOM     14  C   UNL     1       3.190   6.385  18.126  0.00  0.00    +0.000 A 
ATOM     15  C   UNL     1       2.639   5.105  17.988  0.00  0.00    +0.000 A 
ATOM     16  C   UNL     1       3.351   4.084  17.345  0.00  0.00    +0.000 A 
BRANCH  11  18
ATOM     17  C   UNL     1       6.094   3.974  15.022  0.00  0.00    +0.000 C 
ATOM     18  O   UNL     1       5.398   3.452  16.143  0.00  0.00    +0.000 OA
ENDBRANCH  11  18
ENDBRANCH   7  14
ENDBRANCH   1   8
BRANCH   4  19
ATOM     19  N   UNL     1      -1.246  11.620  21.797  0.00  0.00    +0.000 N 
ATOM     20  C   UNL     1      -0.927  12.793  22.469  0.00  0.00    +0.000 C 
ATOM     21  O   UNL     1       0.129  13.401  22.314  0.00  0.00    +0.000 OA
ATOM     22  H   UNL     1      -2.196  11.289  21.907  0.00  0.00    +0.000 HD
BRANCH  20  23
ATOM     23  C   UNL     1      -1.963  13.299  23.356  0.00  0.00    +0.000 A 
ATOM     24  S   UNL     1      -3.424  12.450  23.665  0.00  0.00    +0.000 S 
ATOM     25  C   UNL     1      -3.918  13.702  24.719  0.00  0.00    +0.000 A 
ATOM     26  N   UNL     1      -3.083  14.705  24.857  0.00  0.00    +0.000 NA
ATOM     27  C   UNL     1      -1.955  14.486  24.079  0.00  0.00    +0.000 A 
ATOM     28  C   UNL     1      -0.882  15.521  24.089  0.00  0.00    +0.000 C 
ENDBRANCH  20  23
ENDBRANCH   4  19
TORSDOF 5
ENDMDL
MODEL 8
REMARK VINA RESULT:      -7.2      3.481     10.558
REMARK  Name = 
REMARK  7 active torsions:
REMARK  status: ('A' for Active; 'I' for Inactive)
REMARK    1  A    between atoms: C_1  and  O_2
REMARK    2  A    between atoms: O_2  and  C_3
REMARK    3  A    between atoms: C_6  and  N_7
REMARK    4  A    between atoms: C_8  and  C_10
REMARK    5  A    between atoms: C_13  and  N_14
REMARK    6  A    between atoms: C_15  and  C_17
REMARK    7  A    between atoms: C_21  and  C_22
REMARK                            x       y       z     vdW  Elec       q    Type
REMARK                         _______ _______ _______ _____ _____    ______ ____
ROOT
ATOM      1  C   UNL     1       1.655   8.186  19.929  0.00  0.00    +0.000 A 
ATOM      2  C   UNL     1       1.236   8.266  21.257  0.00  0.00    +0.000 A 
ATOM      3  C   UNL     1       0.502   9.372  21.690  0.00  0.00    +0.000 A 
ATOM      4  C   UNL     1       0.196  10.416  20.816  0.00  0.00    +0.000 A 
ATOM      5  C   UNL     1       0.604  10.327  19.481  0.00  0.00    +0.000 A 
ATOM      6  C   UNL     1       1.345   9.225  19.042  0.00  0.00    +0.000 A 
ENDROOT
BRANCH   1   8
ATOM      7  N   UNL     1       3.040   7.220  18.191  0.00  0.00    +0.000 N 
ATOM      8  C   UNL     1       2.459   7.038  19.434  0.00  0.00    +0.000 C 
ATOM      9  O   UNL     1       2.561   6.059  20.162  0.00  0.00    +0.000 OA
ATOM     10  H   UNL     1       2.942   8.130  17.759  0.00  0.00    +0.000 HD
BRANCH   7  14
ATOM     11  C   UNL     1       5.332   4.366  16.093  0.00  0.00    +0.000 A 
ATOM     12  C   UNL     1       5.715   5.707  16.072  0.00  0.00    +0.000 A 
ATOM     13  C   UNL     1       4.989   6.665  16.779  0.00  0.00    +0.000 A 
ATOM     14  C   UNL     1       3.848   6.302  17.491  0.00  0.00    +0.000 A 
ATOM     15  C   UNL     1       3.465   4.955  17.513  0.00  0.00    +0.000 A 
ATOM     16  C   UNL     1       4.204   3.989  16.818  0.00  0.00    +0.000 A 
BRANCH  11  18
ATOM     17  C   UNL     1       6.218   3.868  13.961  0.00  0.00    +0.000 C 
ATOM     18  O   UNL     1       6.110   3.535  15.337  0.00  0.00    +0.000 OA
ENDBRANCH  11  18
ENDBRANCH   7  14
ENDBRANCH   1   8
BRANCH   4  19
ATOM     19  N   UNL     1      -0.501  11.573  21.215  0.00  0.00    +0.000 N 
ATOM     20  C   UNL     1       0.056  12.794  21.574  0.00  0.00    +0.000 C 
ATOM     21  O   UNL     1       1.262  13.025  21.554  0.00  0.00    +0.000 OA
ATOM     22  H   UNL     1      -1.511  11.549  21.144  0.00  0.00    +0.000 HD
BRANCH  20  23
ATOM     23  C   UNL     1      -0.901  13.825  21.943  0.00  0.00    +0.000 A 
ATOM     24  S   UNL     1      -1.714  13.848  23.457  0.00  0.00    +0.000 S 
ATOM     25  C   UNL     1      -2.514  15.286  22.995  0.00  0.00    +0.000 A 
ATOM     26  N   UNL     1      -2.228  15.750  21.802  0.00  0.00    +0.000 NA
ATOM     27  C   UNL     1      -1.302  14.920  21.186  0.00  0.00    +0.000 A 
ATOM     28  C   UNL     1      -0.849  15.272  19.810  0.00  0.00    +0.000 C 
ENDBRANCH  20  23
ENDBRANCH   4  19
TORSDOF 5
ENDMDL
MODEL 9
REMARK VINA RESULT:      -7.1      1.292      1.498
REMARK  Name = 
REMARK  7 active torsions:
REMARK  status: ('A' for Active; 'I' for Inactive)
REMARK    1  A    between atoms: C_1  and  O_2
REMARK    2  A    between atoms: O_2  and  C_3
REMARK    3  A    between atoms: C_6  and  N_7
REMARK    4  A    between atoms: C_8  and  C_10
REMARK    5  A    between atoms: C_13  and  N_14
REMARK    6  A    between atoms: C_15  and  C_17
REMARK    7  A    between atoms: C_21  and  C_22
REMARK                            x       y       z     vdW  Elec       q    Type
REMARK                         _______ _______ _______ _____ _____    ______ ____
ROOT
ATOM      1  C   UNL     1       0.916   8.724  20.267  0.00  0.00    +0.000 A 
ATOM      2  C   UNL     1       1.457   7.496  20.652  0.00  0.00    +0.000 A 
ATOM      3  C   UNL     1       2.419   6.878  19.851  0.00  0.00    +0.000 A 
ATOM      4  C   UNL     1       2.837   7.460  18.654  0.00  0.00    +0.000 A 
ATOM      5  C   UNL     1       2.306   8.698  18.278  0.00  0.00    +0.000 A 
ATOM      6  C   UNL     1       1.337   9.320  19.072  0.00  0.00    +0.000 A 
ENDROOT
BRANCH   1   8
ATOM      7  N   UNL     1      -0.414  10.703  20.697  0.00  0.00    +0.000 N 
ATOM      8  C   UNL     1      -0.128   9.403  21.078  0.00  0.00    +0.000 C 
ATOM      9  O   UNL     1      -0.656   8.762  21.978  0.00  0.00    +0.000 OA
ATOM     10  H   UNL     1       0.041  11.056  19.866  0.00  0.00    +0.000 HD
BRANCH   7  14
ATOM     11  C   UNL     1      -3.142  13.295  22.604  0.00  0.00    +0.000 A 
ATOM     12  C   UNL     1      -3.093  13.250  21.211  0.00  0.00    +0.000 A 
ATOM     13  C   UNL     1      -2.219  12.383  20.557  0.00  0.00    +0.000 A 
ATOM     14  C   UNL     1      -1.354  11.570  21.288  0.00  0.00    +0.000 A 
ATOM     15  C   UNL     1      -1.405  11.615  22.687  0.00  0.00    +0.000 A 
ATOM     16  C   UNL     1      -2.296  12.473  23.345  0.00  0.00    +0.000 A 
BRANCH  11  18
ATOM     17  C   UNL     1      -4.126  15.434  22.412  0.00  0.00    +0.000 C 
ATOM     18  O   UNL     1      -4.020  14.207  23.118  0.00  0.00    +0.000 OA
ENDBRANCH  11  18
ENDBRANCH   7  14
ENDBRANCH   1   8
BRANCH   4  19
ATOM     19  N   UNL     1       3.770   6.855  17.789  0.00  0.00    +0.000 N 
ATOM     20  C   UNL     1       4.759   5.945  18.141  0.00  0.00    +0.000 C 
ATOM     21  O   UNL     1       4.919   5.521  19.283  0.00  0.00    +0.000 OA
ATOM     22  H   UNL     1       3.654   7.023  16.797  0.00  0.00    +0.000 HD
BRANCH  20  23
ATOM     23  C   UNL     1       5.587   5.475  17.041  0.00  0.00    +0.000 A 
ATOM     24  S   UNL     1       5.120   4.187  16.004  0.00  0.00    +0.000 S 
ATOM     25  C   UNL     1       6.576   4.377  15.129  0.00  0.00    +0.000 A 
ATOM     26  N   UNL     1       7.384   5.321  15.549  0.00  0.00    +0.000 NA
ATOM     27  C   UNL     1       6.828   5.960  16.647  0.00  0.00    +0.000 A 
ATOM     28  C   UNL     1       7.601   7.065  17.283  0.00  0.00    +0.000 C 
ENDBRANCH  20  23
ENDBRANCH   4  19
TORSDOF 5
ENDMDL
