MODEL 1
REMARK VINA RESULT:      -5.5      0.000      0.000
REMARK  Name = 
REMARK  7 active torsions:
REMARK  status: ('A' for Active; 'I' for Inactive)
REMARK    1  A    between atoms: C_1  and  O_2
REMARK    2  A    between atoms: O_2  and  C_3
REMARK    3  A    between atoms: C_3  and  C_5
REMARK    4  A    between atoms: C_5  and  N_6
REMARK    5  A    between atoms: C_5  and  C_7
REMARK    6  A    between atoms: C_7  and  C_8
REMARK    7  A    between atoms: C_7  and  C_9
REMARK                            x       y       z     vdW  Elec       q    Type
REMARK                         _______ _______ _______ _____ _____    ______ ____
ROOT
ATOM      1  C   UNL     1       4.006   3.373  19.296  0.00  0.00    +0.000 C 
ENDROOT
BRANCH   1   2
ATOM      2  N   UNL     1       4.960   2.252  19.575  0.00  0.00    +0.000 NA
ATOM      3  H   UNL     1       4.957   2.087  20.584  0.00  0.00    +0.000 HD
ATOM      4  H   UNL     1       5.905   2.580  19.370  0.00  0.00    +0.000 HD
ENDBRANCH   1   2
BRANCH   1   5
ATOM      5  C   UNL     1       2.577   2.818  19.466  0.00  0.00    +0.000 C 
ATOM      6  O   UNL     1       2.145   1.841  18.867  0.00  0.00    +0.000 OA
BRANCH   5   8
ATOM      7  C   UNL     1       2.041   3.097  21.731  0.00  0.00    +0.000 C 
ATOM      8  O   UNL     1       1.879   3.542  20.383  0.00  0.00    +0.000 OA
ENDBRANCH   5   8
ENDBRANCH   1   5
BRANCH   1   9
ATOM      9  C   UNL     1       4.189   3.972  17.876  0.00  0.00    +0.000 C 
ATOM     10  C   UNL     1       3.340   5.238  17.664  0.00  0.00    +0.000 C 
BRANCH   9  11
ATOM     11  C   UNL     1       5.635   4.273  17.569  0.00  0.00    +0.000 A 
ATOM     12  C   UNL     1       6.261   4.339  16.341  0.00  0.00    +0.000 A 
ATOM     13  N   UNL     1       7.567   4.639  16.615  0.00  0.00    +0.000 N 
ATOM     14  C   UNL     1       7.684   4.769  17.968  0.00  0.00    +0.000 A 
ATOM     15  N   UNL     1       6.540   4.551  18.573  0.00  0.00    +0.000 NA
ATOM     16  H   UNL     1       8.313   4.744  15.941  0.00  0.00    +0.000 HD
ENDBRANCH   9  11
ENDBRANCH   1   9
TORSDOF 5
ENDMDL
MODEL 2
REMARK VINA RESULT:      -5.5      2.746      4.962
REMARK  Name = 
REMARK  7 active torsions:
REMARK  status: ('A' for Active; 'I' for Inactive)
REMARK    1  A    between atoms: C_1  and  O_2
REMARK    2  A    between atoms: O_2  and  C_3
REMARK    3  A    between atoms: C_3  and  C_5
REMARK    4  A    between atoms: C_5  and  N_6
REMARK    5  A    between atoms: C_5  and  C_7
REMARK    6  A    between atoms: C_7  and  C_8
REMARK    7  A    between atoms: C_7  and  C_9
REMARK                            x       y       z     vdW  Elec       q    Type
REMARK                         _______ _______ _______ _____ _____    ______ ____
ROOT
ATOM      1  C   UNL     1       4.707   3.781  18.803  0.00  0.00    +0.000 C 
ENDROOT
BRANCH   1   2
ATOM      2  N   UNL     1       5.117   2.615  19.648  0.00  0.00    +0.000 NA
ATOM      3  H   UNL     1       6.138   2.548  19.609  0.00  0.00    +0.000 HD
ATOM      4  H   UNL     1       4.785   1.762  19.197  0.00  0.00    +0.000 HD
ENDBRANCH   1   2
BRANCH   1   5
ATOM      5  C   UNL     1       5.991   4.534  18.399  0.00  0.00    +0.000 C 
ATOM      6  O   UNL     1       6.362   4.687  17.241  0.00  0.00    +0.000 OA
BRANCH   5   8
ATOM      7  C   UNL     1       7.780   5.823  19.198  0.00  0.00    +0.000 C 
ATOM      8  O   UNL     1       6.635   5.020  19.495  0.00  0.00    +0.000 OA
ENDBRANCH   5   8
ENDBRANCH   1   5
BRANCH   1   9
ATOM      9  C   UNL     1       3.730   4.736  19.539  0.00  0.00    +0.000 C 
ATOM     10  C   UNL     1       3.273   5.904  18.646  0.00  0.00    +0.000 C 
BRANCH   9  11
ATOM     11  C   UNL     1       2.524   4.008  20.080  0.00  0.00    +0.000 A 
ATOM     12  C   UNL     1       1.266   3.893  19.527  0.00  0.00    +0.000 A 
ATOM     13  N   UNL     1       0.547   3.139  20.412  0.00  0.00    +0.000 N 
ATOM     14  C   UNL     1       1.380   2.807  21.440  0.00  0.00    +0.000 A 
ATOM     15  N   UNL     1       2.577   3.317  21.273  0.00  0.00    +0.000 NA
ATOM     16  H   UNL     1      -0.425   2.876  20.327  0.00  0.00    +0.000 HD
ENDBRANCH   9  11
ENDBRANCH   1   9
TORSDOF 5
ENDMDL
MODEL 3
REMARK VINA RESULT:      -5.4      0.622      1.307
REMARK  Name = 
REMARK  7 active torsions:
REMARK  status: ('A' for Active; 'I' for Inactive)
REMARK    1  A    between atoms: C_1  and  O_2
REMARK    2  A    between atoms: O_2  and  C_3
REMARK    3  A    between atoms: C_3  and  C_5
REMARK    4  A    between atoms: C_5  and  N_6
REMARK    5  A    between atoms: C_5  and  C_7
REMARK    6  A    between atoms: C_7  and  C_8
REMARK    7  A    between atoms: C_7  and  C_9
REMARK                            x       y       z     vdW  Elec       q    Type
REMARK                         _______ _______ _______ _____ _____    ______ ____
ROOT
ATOM      1  C   UNL     1       4.159   3.459  19.592  0.00  0.00    +0.000 C 
ENDROOT
BRANCH   1   2
ATOM      2  N   UNL     1       4.999   2.239  19.811  0.00  0.00    +0.000 NA
ATOM      3  H   UNL     1       5.756   2.256  19.123  0.00  0.00    +0.000 HD
ATOM      4  H   UNL     1       4.442   1.420  19.562  0.00  0.00    +0.000 HD
ENDBRANCH   1   2
BRANCH   1   5
ATOM      5  C   UNL     1       2.713   3.103  19.991  0.00  0.00    +0.000 C 
ATOM      6  O   UNL     1       2.115   3.609  20.932  0.00  0.00    +0.000 OA
BRANCH   5   8
ATOM      7  C   UNL     1       0.817   2.387  18.811  0.00  0.00    +0.000 C 
ATOM      8  O   UNL     1       2.190   2.173  19.144  0.00  0.00    +0.000 OA
ENDBRANCH   5   8
ENDBRANCH   1   5
BRANCH   1   9
ATOM      9  C   UNL     1       4.207   3.959  18.123  0.00  0.00    +0.000 C 
ATOM     10  C   UNL     1       3.331   5.206  17.903  0.00  0.00    +0.000 C 
BRANCH   9  11
ATOM     11  C   UNL     1       5.616   4.243  17.666  0.00  0.00    +0.000 A 
ATOM     12  C   UNL     1       6.116   4.280  16.381  0.00  0.00    +0.000 A 
ATOM     13  N   UNL     1       7.444   4.575  16.515  0.00  0.00    +0.000 N 
ATOM     14  C   UNL     1       7.698   4.729  17.847  0.00  0.00    +0.000 A 
ATOM     15  N   UNL     1       6.620   4.533  18.568  0.00  0.00    +0.000 NA
ATOM     16  H   UNL     1       8.119   4.661  15.768  0.00  0.00    +0.000 HD
ENDBRANCH   9  11
ENDBRANCH   1   9
TORSDOF 5
ENDMDL
MODEL 4
REMARK VINA RESULT:      -5.4      2.793      5.013
REMARK  Name = 
REMARK  7 active torsions:
REMARK  status: ('A' for Active; 'I' for Inactive)
REMARK    1  A    between atoms: C_1  and  O_2
REMARK    2  A    between atoms: O_2  and  C_3
REMARK    3  A    between atoms: C_3  and  C_5
REMARK    4  A    between atoms: C_5  and  N_6
REMARK    5  A    between atoms: C_5  and  C_7
REMARK    6  A    between atoms: C_7  and  C_8
REMARK    7  A    between atoms: C_7  and  C_9
REMARK                            x       y       z     vdW  Elec       q    Type
REMARK                         _______ _______ _______ _____ _____    ______ ____
ROOT
ATOM      1  C   UNL     1       4.761   4.049  18.912  0.00  0.00    +0.000 C 
ENDROOT
BRANCH   1   2
ATOM      2  N   UNL     1       4.998   2.731  19.583  0.00  0.00    +0.000 NA
ATOM      3  H   UNL     1       4.407   2.037  19.120  0.00  0.00    +0.000 HD
ATOM      4  H   UNL     1       4.632   2.788  20.535  0.00  0.00    +0.000 HD
ENDBRANCH   1   2
BRANCH   1   5
ATOM      5  C   UNL     1       6.118   4.776  18.828  0.00  0.00    +0.000 C 
ATOM      6  O   UNL     1       6.664   5.323  19.779  0.00  0.00    +0.000 OA
BRANCH   5   8
ATOM      7  C   UNL     1       5.683   4.330  16.567  0.00  0.00    +0.000 C 
ATOM      8  O   UNL     1       6.631   4.705  17.569  0.00  0.00    +0.000 OA
ENDBRANCH   5   8
ENDBRANCH   1   5
BRANCH   1   9
ATOM      9  C   UNL     1       3.723   4.923  19.666  0.00  0.00    +0.000 C 
ATOM     10  C   UNL     1       3.255   6.126  18.826  0.00  0.00    +0.000 C 
BRANCH   9  11
ATOM     11  C   UNL     1       2.528   4.123  20.118  0.00  0.00    +0.000 A 
ATOM     12  C   UNL     1       1.321   3.936  19.475  0.00  0.00    +0.000 A 
ATOM     13  N   UNL     1       0.586   3.137  20.306  0.00  0.00    +0.000 N 
ATOM     14  C   UNL     1       1.362   2.849  21.391  0.00  0.00    +0.000 A 
ATOM     15  N   UNL     1       2.536   3.431  21.312  0.00  0.00    +0.000 NA
ATOM     16  H   UNL     1      -0.360   2.818  20.151  0.00  0.00    +0.000 HD
ENDBRANCH   9  11
ENDBRANCH   1   9
TORSDOF 5
ENDMDL
MODEL 5
REMARK VINA RESULT:      -5.4      2.883      5.148
REMARK  Name = 
REMARK  7 active torsions:
REMARK  status: ('A' for Active; 'I' for Inactive)
REMARK    1  A    between atoms: C_1  and  O_2
REMARK    2  A    between atoms: O_2  and  C_3
REMARK    3  A    between atoms: C_3  and  C_5
REMARK    4  A    between atoms: C_5  and  N_6
REMARK    5  A    between atoms: C_5  and  C_7
REMARK    6  A    between atoms: C_7  and  C_8
REMARK    7  A    between atoms: C_7  and  C_9
REMARK                            x       y       z     vdW  Elec       q    Type
REMARK                         _______ _______ _______ _____ _____    ______ ____
ROOT
ATOM      1  C   UNL     1       4.786   4.262  18.853  0.00  0.00    +0.000 C 
ENDROOT
BRANCH   1   2
ATOM      2  N   UNL     1       5.091   2.928  19.461  0.00  0.00    +0.000 NA
ATOM      3  H   UNL     1       6.052   2.684  19.205  0.00  0.00    +0.000 HD
ATOM      4  H   UNL     1       4.515   2.226  18.995  0.00  0.00    +0.000 HD
ENDBRANCH   1   2
BRANCH   1   5
ATOM      5  C   UNL     1       6.086   5.090  18.877  0.00  0.00    +0.000 C 
ATOM      6  O   UNL     1       6.713   5.356  19.896  0.00  0.00    +0.000 OA
BRANCH   5   8
ATOM      7  C   UNL     1       7.460   4.635  17.032  0.00  0.00    +0.000 C 
ATOM      8  O   UNL     1       6.451   5.460  17.619  0.00  0.00    +0.000 OA
ENDBRANCH   5   8
ENDBRANCH   1   5
BRANCH   1   9
ATOM      9  C   UNL     1       3.652   5.012  19.603  0.00  0.00    +0.000 C 
ATOM     10  C   UNL     1       3.274   6.336  18.913  0.00  0.00    +0.000 C 
BRANCH   9  11
ATOM     11  C   UNL     1       2.421   4.158  19.771  0.00  0.00    +0.000 A 
ATOM     12  C   UNL     1       1.572   4.071  20.855  0.00  0.00    +0.000 A 
ATOM     13  N   UNL     1       0.622   3.155  20.501  0.00  0.00    +0.000 N 
ATOM     14  C   UNL     1       0.902   2.742  19.231  0.00  0.00    +0.000 A 
ATOM     15  N   UNL     1       1.982   3.323  18.763  0.00  0.00    +0.000 NA
ATOM     16  H   UNL     1      -0.148   2.836  21.072  0.00  0.00    +0.000 HD
ENDBRANCH   9  11
ENDBRANCH   1   9
TORSDOF 5
ENDMDL
MODEL 6
REMARK VINA RESULT:      -5.3      3.316      5.114
REMARK  Name = 
REMARK  7 active torsions:
REMARK  status: ('A' for Active; 'I' for Inactive)
REMARK    1  A    between atoms: C_1  and  O_2
REMARK    2  A    between atoms: O_2  and  C_3
REMARK    3  A    between atoms: C_3  and  C_5
REMARK    4  A    between atoms: C_5  and  N_6
REMARK    5  A    between atoms: C_5  and  C_7
REMARK    6  A    between atoms: C_7  and  C_8
REMARK    7  A    between atoms: C_7  and  C_9
REMARK                            x       y       z     vdW  Elec       q    Type
REMARK                         _______ _______ _______ _____ _____    ______ ____
ROOT
ATOM      1  C   UNL     1       5.720   4.742  16.915  0.00  0.00    +0.000 C 
ENDROOT
BRANCH   1   2
ATOM      2  N   UNL     1       5.441   3.823  15.766  0.00  0.00    +0.000 NA
ATOM      3  H   UNL     1       4.940   4.360  15.054  0.00  0.00    +0.000 HD
ATOM      4  H   UNL     1       4.770   3.118  16.078  0.00  0.00    +0.000 HD
ENDBRANCH   1   2
BRANCH   1   5
ATOM      5  C   UNL     1       7.233   5.037  16.914  0.00  0.00    +0.000 C 
ATOM      6  O   UNL     1       8.090   4.233  17.258  0.00  0.00    +0.000 OA
BRANCH   5   8
ATOM      7  C   UNL     1       7.520   7.295  17.480  0.00  0.00    +0.000 C 
ATOM      8  O   UNL     1       7.483   6.296  16.459  0.00  0.00    +0.000 OA
ENDBRANCH   5   8
ENDBRANCH   1   5
BRANCH   1   9
ATOM      9  C   UNL     1       5.287   4.140  18.279  0.00  0.00    +0.000 C 
ATOM     10  C   UNL     1       5.141   5.216  19.371  0.00  0.00    +0.000 C 
BRANCH   9  11
ATOM     11  C   UNL     1       4.006   3.351  18.170  0.00  0.00    +0.000 A 
ATOM     12  C   UNL     1       3.772   2.034  18.509  0.00  0.00    +0.000 A 
ATOM     13  N   UNL     1       2.457   1.810  18.212  0.00  0.00    +0.000 N 
ATOM     14  C   UNL     1       1.938   2.979  17.737  0.00  0.00    +0.000 A 
ATOM     15  N   UNL     1       2.845   3.926  17.695  0.00  0.00    +0.000 NA
ATOM     16  H   UNL     1       1.956   0.939  18.321  0.00  0.00    +0.000 HD
ENDBRANCH   9  11
ENDBRANCH   1   9
TORSDOF 5
ENDMDL
MODEL 7
REMARK VINA RESULT:      -5.3      3.152      5.039
REMARK  Name = 
REMARK  7 active torsions:
REMARK  status: ('A' for Active; 'I' for Inactive)
REMARK    1  A    between atoms: C_1  and  O_2
REMARK    2  A    between atoms: O_2  and  C_3
REMARK    3  A    between atoms: C_3  and  C_5
REMARK    4  A    between atoms: C_5  and  N_6
REMARK    5  A    between atoms: C_5  and  C_7
REMARK    6  A    between atoms: C_7  and  C_8
REMARK    7  A    between atoms: C_7  and  C_9
REMARK                            x       y       z     vdW  Elec       q    Type
REMARK                         _______ _______ _______ _____ _____    ______ ____
ROOT
ATOM      1  C   UNL     1       6.499   4.654  17.133  0.00  0.00    +0.000 C 
ENDROOT
BRANCH   1   2
ATOM      2  N   UNL     1       7.668   4.239  17.972  0.00  0.00    +0.000 NA
ATOM      3  H   UNL     1       8.428   3.980  17.338  0.00  0.00    +0.000 HD
ATOM      4  H   UNL     1       7.424   3.370  18.451  0.00  0.00    +0.000 HD
ENDBRANCH   1   2
BRANCH   1   5
ATOM      5  C   UNL     1       6.976   5.792  16.208  0.00  0.00    +0.000 C 
ATOM      6  O   UNL     1       7.595   6.777  16.593  0.00  0.00    +0.000 OA
BRANCH   5   8
ATOM      7  C   UNL     1       6.449   4.156  14.613  0.00  0.00    +0.000 C 
ATOM      8  O   UNL     1       6.638   5.540  14.913  0.00  0.00    +0.000 OA
ENDBRANCH   5   8
ENDBRANCH   1   5
BRANCH   1   9
ATOM      9  C   UNL     1       5.289   5.121  17.986  0.00  0.00    +0.000 C 
ATOM     10  C   UNL     1       4.293   5.966  17.170  0.00  0.00    +0.000 C 
BRANCH   9  11
ATOM     11  C   UNL     1       4.567   3.964  18.628  0.00  0.00    +0.000 A 
ATOM     12  C   UNL     1       3.315   3.459  18.340  0.00  0.00    +0.000 A 
ATOM     13  N   UNL     1       3.134   2.419  19.207  0.00  0.00    +0.000 N 
ATOM     14  C   UNL     1       4.265   2.310  19.962  0.00  0.00    +0.000 A 
ATOM     15  N   UNL     1       5.147   3.228  19.641  0.00  0.00    +0.000 NA
ATOM     16  H   UNL     1       2.312   1.836  19.282  0.00  0.00    +0.000 HD
ENDBRANCH   9  11
ENDBRANCH   1   9
TORSDOF 5
ENDMDL
MODEL 8
REMARK VINA RESULT:      -5.2      1.621      1.863
REMARK  Name = 
REMARK  7 active torsions:
REMARK  status: ('A' for Active; 'I' for Inactive)
REMARK    1  A    between atoms: C_1  and  O_2
REMARK    2  A    between atoms: O_2  and  C_3
REMARK    3  A    between atoms: C_3  and  C_5
REMARK    4  A    between atoms: C_5  and  N_6
REMARK    5  A    between atoms: C_5  and  C_7
REMARK    6  A    between atoms: C_7  and  C_8
REMARK    7  A    between atoms: C_7  and  C_9
REMARK                            x       y       z     vdW  Elec       q    Type
REMARK                         _______ _______ _______ _____ _____    ______ ____
ROOT
ATOM      1  C   UNL     1       3.968   3.764  18.820  0.00  0.00    +0.000 C 
ENDROOT
BRANCH   1   2
ATOM      2  N   UNL     1       5.437   3.519  18.974  0.00  0.00    +0.000 NA
ATOM      3  H   UNL     1       5.602   2.520  18.825  0.00  0.00    +0.000 HD
ATOM      4  H   UNL     1       5.687   3.679  19.951  0.00  0.00    +0.000 HD
ENDBRANCH   1   2
BRANCH   1   5
ATOM      5  C   UNL     1       3.279   2.389  18.709  0.00  0.00    +0.000 C 
ATOM      6  O   UNL     1       3.663   1.485  17.976  0.00  0.00    +0.000 OA
BRANCH   5   8
ATOM      7  C   UNL     1       0.944   2.479  18.907  0.00  0.00    +0.000 C 
ATOM      8  O   UNL     1       2.210   2.311  19.548  0.00  0.00    +0.000 OA
ENDBRANCH   5   8
ENDBRANCH   1   5
BRANCH   1   9
ATOM      9  C   UNL     1       3.636   4.638  17.580  0.00  0.00    +0.000 C 
ATOM     10  C   UNL     1       3.008   5.988  17.970  0.00  0.00    +0.000 C 
BRANCH   9  11
ATOM     11  C   UNL     1       4.846   4.873  16.712  0.00  0.00    +0.000 A 
ATOM     12  C   UNL     1       5.493   6.060  16.435  0.00  0.00    +0.000 A 
ATOM     13  N   UNL     1       6.521   5.727  15.598  0.00  0.00    +0.000 N 
ATOM     14  C   UNL     1       6.483   4.376  15.416  0.00  0.00    +0.000 A 
ATOM     15  N   UNL     1       5.484   3.831  16.070  0.00  0.00    +0.000 NA
ATOM     16  H   UNL     1       7.189   6.363  15.184  0.00  0.00    +0.000 HD
ENDBRANCH   9  11
ENDBRANCH   1   9
TORSDOF 5
ENDMDL
MODEL 9
REMARK VINA RESULT:      -5.2      2.665      4.848
REMARK  Name = 
REMARK  7 active torsions:
REMARK  status: ('A' for Active; 'I' for Inactive)
REMARK    1  A    between atoms: C_1  and  O_2
REMARK    2  A    between atoms: O_2  and  C_3
REMARK    3  A    between atoms: C_3  and  C_5
REMARK    4  A    between atoms: C_5  and  N_6
REMARK    5  A    between atoms: C_5  and  C_7
REMARK    6  A    between atoms: C_7  and  C_8
REMARK    7  A    between atoms: C_7  and  C_9
REMARK                            x       y       z     vdW  Elec       q    Type
REMARK                         _______ _______ _______ _____ _____    ______ ____
ROOT
ATOM      1  C   UNL     1       4.755   3.779  18.529  0.00  0.00    +0.000 C 
ENDROOT
BRANCH   1   2
ATOM      2  N   UNL     1       5.028   2.765  19.597  0.00  0.00    +0.000 NA
ATOM      3  H   UNL     1       4.187   2.690  20.175  0.00  0.00    +0.000 HD
ATOM      4  H   UNL     1       5.738   3.145  20.224  0.00  0.00    +0.000 HD
ENDBRANCH   1   2
BRANCH   1   5
ATOM      5  C   UNL     1       5.523   5.063  18.904  0.00  0.00    +0.000 C 
ATOM      6  O   UNL     1       6.437   5.103  19.718  0.00  0.00    +0.000 OA
BRANCH   5   8
ATOM      7  C   UNL     1       5.864   6.468  17.058  0.00  0.00    +0.000 C 
ATOM      8  O   UNL     1       5.064   6.129  18.193  0.00  0.00    +0.000 OA
ENDBRANCH   5   8
ENDBRANCH   1   5
BRANCH   1   9
ATOM      9  C   UNL     1       3.241   4.082  18.369  0.00  0.00    +0.000 C 
ATOM     10  C   UNL     1       2.649   3.439  17.101  0.00  0.00    +0.000 C 
BRANCH   9  11
ATOM     11  C   UNL     1       2.445   3.651  19.575  0.00  0.00    +0.000 A 
ATOM     12  C   UNL     1       1.359   2.801  19.635  0.00  0.00    +0.000 A 
ATOM     13  N   UNL     1       1.010   2.749  20.956  0.00  0.00    +0.000 N 
ATOM     14  C   UNL     1       1.891   3.532  21.645  0.00  0.00    +0.000 A 
ATOM     15  N   UNL     1       2.765   4.093  20.843  0.00  0.00    +0.000 NA
ATOM     16  H   UNL     1       0.240   2.230  21.354  0.00  0.00    +0.000 HD
ENDBRANCH   9  11
ENDBRANCH   1   9
TORSDOF 5
ENDMDL
