MODEL 1
REMARK VINA RESULT:      -7.6      0.000      0.000
REMARK  Name = 
REMARK  8 active torsions:
REMARK  status: ('A' for Active; 'I' for Inactive)
REMARK    1  A    between atoms: C_1  and  C_2
REMARK    2  A    between atoms: C_2  and  N_3
REMARK    3  A    between atoms: C_7  and  C_8
REMARK    4  A    between atoms: C_8  and  N_9
REMARK    5  A    between atoms: C_10  and  S_11
REMARK    6  A    between atoms: N_12  and  C_13
REMARK    7  A    between atoms: C_16  and  C_17
REMARK    8  A    between atoms: C_17  and  C_18
REMARK                            x       y       z     vdW  Elec       q    Type
REMARK                         _______ _______ _______ _____ _____    ______ ____
ROOT
ATOM      1  N   UNL     1       6.180   4.988  17.583  0.00  0.00    +0.000 NA
ATOM      2  C   UNL     1       6.924   5.857  16.989  0.00  0.00    +0.000 C 
ATOM      3  N   UNL     1       7.528   5.652  15.777  0.00  0.00    +0.000 N 
ATOM      4  H   UNL     1       8.132   6.413  15.489  0.00  0.00    +0.000 HD
ENDROOT
BRANCH   3   5
ATOM      5  C   UNL     1       6.973   4.971  14.679  0.00  0.00    +0.000 A 
ATOM      6  C   UNL     1       7.604   4.863  13.436  0.00  0.00    +0.000 A 
ATOM      7  C   UNL     1       7.023   4.134  12.389  0.00  0.00    +0.000 A 
ATOM      8  C   UNL     1       5.780   3.518  12.562  0.00  0.00    +0.000 A 
ATOM      9  C   UNL     1       5.127   3.657  13.794  0.00  0.00    +0.000 A 
ATOM     10  C   UNL     1       5.716   4.368  14.839  0.00  0.00    +0.000 A 
BRANCH   8  11
ATOM     11  C   UNL     1       5.098   2.707  11.505  0.00  0.00    +0.000 C 
ATOM     12  C   UNL     1       3.821   3.177  10.858  0.00  0.00    +0.000 C 
ATOM     13  O   UNL     1       5.612   1.648  11.139  0.00  0.00    +0.000 OA
ENDBRANCH   8  11
ENDBRANCH   3   5
BRANCH   2  14
ATOM     14  S   UNL     1       7.347   7.451  17.615  0.00  0.00    +0.000 S 
ATOM     15  H   UNL     1       6.804   8.205  16.655  0.00  0.00    +0.000 HD
ENDBRANCH   2  14
BRANCH   1  16
ATOM     16  C   UNL     1       5.579   5.277  18.876  0.00  0.00    +0.000 C 
BRANCH  16  21
ATOM     17  N   UNL     1       3.162   5.439  18.823  0.00  0.00    +0.000 NA
ATOM     18  C   UNL     1       2.258   4.841  17.841  0.00  0.00    +0.000 C 
ATOM     19  C   UNL     1       2.607   3.368  17.780  0.00  0.00    +0.000 C 
ATOM     20  C   UNL     1       4.087   3.341  18.098  0.00  0.00    +0.000 C 
ATOM     21  C   UNL     1       4.273   4.494  19.082  0.00  0.00    +0.000 C 
BRANCH  17  23
ATOM     22  C   UNL     1       2.203   4.742  20.977  0.00  0.00    +0.000 C 
ATOM     23  C   UNL     1       2.523   5.908  20.051  0.00  0.00    +0.000 C 
ENDBRANCH  17  23
ENDBRANCH  16  21
ENDBRANCH   1  16
TORSDOF 6
ENDMDL
MODEL 2
REMARK VINA RESULT:      -7.4      0.857      1.538
REMARK  Name = 
REMARK  8 active torsions:
REMARK  status: ('A' for Active; 'I' for Inactive)
REMARK    1  A    between atoms: C_1  and  C_2
REMARK    2  A    between atoms: C_2  and  N_3
REMARK    3  A    between atoms: C_7  and  C_8
REMARK    4  A    between atoms: C_8  and  N_9
REMARK    5  A    between atoms: C_10  and  S_11
REMARK    6  A    between atoms: N_12  and  C_13
REMARK    7  A    between atoms: C_16  and  C_17
REMARK    8  A    between atoms: C_17  and  C_18
REMARK                            x       y       z     vdW  Elec       q    Type
REMARK                         _______ _______ _______ _____ _____    ______ ____
ROOT
ATOM      1  N   UNL     1       6.401   5.068  17.679  0.00  0.00    +0.000 NA
ATOM      2  C   UNL     1       7.007   5.945  16.955  0.00  0.00    +0.000 C 
ATOM      3  N   UNL     1       7.459   5.713  15.683  0.00  0.00    +0.000 N 
ATOM      4  H   UNL     1       7.973   6.490  15.286  0.00  0.00    +0.000 HD
ENDROOT
BRANCH   3   5
ATOM      5  C   UNL     1       6.807   4.948  14.699  0.00  0.00    +0.000 A 
ATOM      6  C   UNL     1       5.548   4.368  14.877  0.00  0.00    +0.000 A 
ATOM      7  C   UNL     1       4.927   3.651  13.845  0.00  0.00    +0.000 A 
ATOM      8  C   UNL     1       5.572   3.480  12.617  0.00  0.00    +0.000 A 
ATOM      9  C   UNL     1       6.851   4.027  12.448  0.00  0.00    +0.000 A 
ATOM     10  C   UNL     1       7.458   4.755  13.471  0.00  0.00    +0.000 A 
BRANCH   8  11
ATOM     11  C   UNL     1       4.974   2.747  11.457  0.00  0.00    +0.000 C 
ATOM     12  C   UNL     1       3.750   3.267  10.749  0.00  0.00    +0.000 C 
ATOM     13  O   UNL     1       5.515   1.713  11.060  0.00  0.00    +0.000 OA
ENDBRANCH   8  11
ENDBRANCH   3   5
BRANCH   2  14
ATOM     14  S   UNL     1       7.411   7.588  17.451  0.00  0.00    +0.000 S 
ATOM     15  H   UNL     1       7.491   7.397  18.771  0.00  0.00    +0.000 HD
ENDBRANCH   2  14
BRANCH   1  16
ATOM     16  C   UNL     1       5.959   5.387  19.028  0.00  0.00    +0.000 C 
BRANCH  16  21
ATOM     17  N   UNL     1       3.673   5.295  18.231  0.00  0.00    +0.000 NA
ATOM     18  C   UNL     1       2.987   4.142  17.646  0.00  0.00    +0.000 C 
ATOM     19  C   UNL     1       3.163   2.999  18.624  0.00  0.00    +0.000 C 
ATOM     20  C   UNL     1       4.498   3.292  19.275  0.00  0.00    +0.000 C 
ATOM     21  C   UNL     1       4.560   4.818  19.316  0.00  0.00    +0.000 C 
BRANCH  17  23
ATOM     22  C   UNL     1       3.052   7.639  17.824  0.00  0.00    +0.000 C 
ATOM     23  C   UNL     1       2.800   6.388  18.655  0.00  0.00    +0.000 C 
ENDBRANCH  17  23
ENDBRANCH  16  21
ENDBRANCH   1  16
TORSDOF 6
ENDMDL
MODEL 3
REMARK VINA RESULT:      -7.3      0.891      1.888
REMARK  Name = 
REMARK  8 active torsions:
REMARK  status: ('A' for Active; 'I' for Inactive)
REMARK    1  A    between atoms: C_1  and  C_2
REMARK    2  A    between atoms: C_2  and  N_3
REMARK    3  A    between atoms: C_7  and  C_8
REMARK    4  A    between atoms: C_8  and  N_9
REMARK    5  A    between atoms: C_10  and  S_11
REMARK    6  A    between atoms: N_12  and  C_13
REMARK    7  A    between atoms: C_16  and  C_17
REMARK    8  A    between atoms: C_17  and  C_18
REMARK                            x       y       z     vdW  Elec       q    Type
REMARK                         _______ _______ _______ _____ _____    ______ ____
ROOT
ATOM      1  N   UNL     1       6.068   5.156  17.568  0.00  0.00    +0.000 NA
ATOM      2  C   UNL     1       6.856   5.987  16.976  0.00  0.00    +0.000 C 
ATOM      3  N   UNL     1       7.519   5.719  15.808  0.00  0.00    +0.000 N 
ATOM      4  H   UNL     1       8.149   6.458  15.518  0.00  0.00    +0.000 HD
ENDROOT
BRANCH   3   5
ATOM      5  C   UNL     1       7.011   4.996  14.713  0.00  0.00    +0.000 A 
ATOM      6  C   UNL     1       7.601   4.993  13.446  0.00  0.00    +0.000 A 
ATOM      7  C   UNL     1       7.076   4.218  12.403  0.00  0.00    +0.000 A 
ATOM      8  C   UNL     1       5.926   3.448  12.605  0.00  0.00    +0.000 A 
ATOM      9  C   UNL     1       5.310   3.479  13.863  0.00  0.00    +0.000 A 
ATOM     10  C   UNL     1       5.846   4.237  14.904  0.00  0.00    +0.000 A 
BRANCH   8  11
ATOM     11  C   UNL     1       5.311   2.580  11.553  0.00  0.00    +0.000 C 
ATOM     12  C   UNL     1       5.992   1.323  11.078  0.00  0.00    +0.000 C 
ATOM     13  O   UNL     1       4.210   2.888  11.091  0.00  0.00    +0.000 OA
ENDBRANCH   8  11
ENDBRANCH   3   5
BRANCH   2  14
ATOM     14  S   UNL     1       7.270   7.601  17.551  0.00  0.00    +0.000 S 
ATOM     15  H   UNL     1       7.030   8.292  16.433  0.00  0.00    +0.000 HD
ENDBRANCH   2  14
BRANCH   1  16
ATOM     16  C   UNL     1       5.406   5.511  18.814  0.00  0.00    +0.000 C 
BRANCH  16  21
ATOM     17  N   UNL     1       3.728   3.875  19.429  0.00  0.00    +0.000 NA
ATOM     18  C   UNL     1       2.706   4.006  20.467  0.00  0.00    +0.000 C 
ATOM     19  C   UNL     1       1.979   5.306  20.190  0.00  0.00    +0.000 C 
ATOM     20  C   UNL     1       3.040   6.176  19.552  0.00  0.00    +0.000 C 
ATOM     21  C   UNL     1       3.904   5.189  18.769  0.00  0.00    +0.000 C 
BRANCH  17  23
ATOM     22  C   UNL     1       2.837   3.305  17.210  0.00  0.00    +0.000 C 
ATOM     23  C   UNL     1       3.510   2.790  18.475  0.00  0.00    +0.000 C 
ENDBRANCH  17  23
ENDBRANCH  16  21
ENDBRANCH   1  16
TORSDOF 6
ENDMDL
MODEL 4
REMARK VINA RESULT:      -7.1      0.797      1.609
REMARK  Name = 
REMARK  8 active torsions:
REMARK  status: ('A' for Active; 'I' for Inactive)
REMARK    1  A    between atoms: C_1  and  C_2
REMARK    2  A    between atoms: C_2  and  N_3
REMARK    3  A    between atoms: C_7  and  C_8
REMARK    4  A    between atoms: C_8  and  N_9
REMARK    5  A    between atoms: C_10  and  S_11
REMARK    6  A    between atoms: N_12  and  C_13
REMARK    7  A    between atoms: C_16  and  C_17
REMARK    8  A    between atoms: C_17  and  C_18
REMARK                            x       y       z     vdW  Elec       q    Type
REMARK                         _______ _______ _______ _____ _____    ______ ____
ROOT
ATOM      1  N   UNL     1       6.187   4.927  17.615  0.00  0.00    +0.000 NA
ATOM      2  C   UNL     1       6.889   5.835  17.029  0.00  0.00    +0.000 C 
ATOM      3  N   UNL     1       7.492   5.673  15.810  0.00  0.00    +0.000 N 
ATOM      4  H   UNL     1       8.061   6.463  15.529  0.00  0.00    +0.000 HD
ENDROOT
BRANCH   3   5
ATOM      5  C   UNL     1       6.958   4.985  14.705  0.00  0.00    +0.000 A 
ATOM      6  C   UNL     1       7.599   4.893  13.467  0.00  0.00    +0.000 A 
ATOM      7  C   UNL     1       7.040   4.156  12.413  0.00  0.00    +0.000 A 
ATOM      8  C   UNL     1       5.807   3.517  12.575  0.00  0.00    +0.000 A 
ATOM      9  C   UNL     1       5.143   3.639  13.803  0.00  0.00    +0.000 A 
ATOM     10  C   UNL     1       5.712   4.358  14.855  0.00  0.00    +0.000 A 
BRANCH   8  11
ATOM     11  C   UNL     1       5.149   2.696  11.511  0.00  0.00    +0.000 C 
ATOM     12  C   UNL     1       3.898   3.170  10.818  0.00  0.00    +0.000 C 
ATOM     13  O   UNL     1       5.661   1.625  11.179  0.00  0.00    +0.000 OA
ENDBRANCH   8  11
ENDBRANCH   3   5
BRANCH   2  14
ATOM     14  S   UNL     1       7.249   7.436  17.675  0.00  0.00    +0.000 S 
ATOM     15  H   UNL     1       6.001   7.890  17.821  0.00  0.00    +0.000 HD
ENDBRANCH   2  14
BRANCH   1  16
ATOM     16  C   UNL     1       5.585   5.171  18.917  0.00  0.00    +0.000 C 
BRANCH  16  21
ATOM     17  N   UNL     1       3.662   4.001  19.812  0.00  0.00    +0.000 NA
ATOM     18  C   UNL     1       2.647   4.534  20.722  0.00  0.00    +0.000 C 
ATOM     19  C   UNL     1       2.135   5.812  20.089  0.00  0.00    +0.000 C 
ATOM     20  C   UNL     1       3.333   6.332  19.323  0.00  0.00    +0.000 C 
ATOM     21  C   UNL     1       4.052   5.066  18.861  0.00  0.00    +0.000 C 
BRANCH  17  23
ATOM     22  C   UNL     1       1.959   2.236  19.642  0.00  0.00    +0.000 C 
ATOM     23  C   UNL     1       3.302   2.752  19.143  0.00  0.00    +0.000 C 
ENDBRANCH  17  23
ENDBRANCH  16  21
ENDBRANCH   1  16
TORSDOF 6
ENDMDL
MODEL 5
REMARK VINA RESULT:      -7.1      4.118      7.551
REMARK  Name = 
REMARK  8 active torsions:
REMARK  status: ('A' for Active; 'I' for Inactive)
REMARK    1  A    between atoms: C_1  and  C_2
REMARK    2  A    between atoms: C_2  and  N_3
REMARK    3  A    between atoms: C_7  and  C_8
REMARK    4  A    between atoms: C_8  and  N_9
REMARK    5  A    between atoms: C_10  and  S_11
REMARK    6  A    between atoms: N_12  and  C_13
REMARK    7  A    between atoms: C_16  and  C_17
REMARK    8  A    between atoms: C_17  and  C_18
REMARK                            x       y       z     vdW  Elec       q    Type
REMARK                         _______ _______ _______ _____ _____    ______ ____
ROOT
ATOM      1  N   UNL     1       4.666   5.333  19.423  0.00  0.00    +0.000 NA
ATOM      2  C   UNL     1       3.541   4.872  19.850  0.00  0.00    +0.000 C 
ATOM      3  N   UNL     1       2.536   5.649  20.362  0.00  0.00    +0.000 N 
ATOM      4  H   UNL     1       1.748   5.118  20.713  0.00  0.00    +0.000 HD
ENDROOT
BRANCH   3   5
ATOM      5  C   UNL     1       2.152   6.921  19.898  0.00  0.00    +0.000 A 
ATOM      6  C   UNL     1       2.399   7.377  18.599  0.00  0.00    +0.000 A 
ATOM      7  C   UNL     1       1.956   8.639  18.178  0.00  0.00    +0.000 A 
ATOM      8  C   UNL     1       1.277   9.481  19.063  0.00  0.00    +0.000 A 
ATOM      9  C   UNL     1       1.063   9.042  20.377  0.00  0.00    +0.000 A 
ATOM     10  C   UNL     1       1.489   7.779  20.787  0.00  0.00    +0.000 A 
BRANCH   8  11
ATOM     11  C   UNL     1       0.754  10.833  18.691  0.00  0.00    +0.000 C 
ATOM     12  C   UNL     1      -0.721  11.080  18.513  0.00  0.00    +0.000 C 
ATOM     13  O   UNL     1       1.549  11.766  18.558  0.00  0.00    +0.000 OA
ENDBRANCH   8  11
ENDBRANCH   3   5
BRANCH   2  14
ATOM     14  S   UNL     1       3.077   3.172  19.901  0.00  0.00    +0.000 S 
ATOM     15  H   UNL     1       2.632   3.112  21.159  0.00  0.00    +0.000 HD
ENDBRANCH   2  14
BRANCH   1  16
ATOM     16  C   UNL     1       5.690   4.441  18.900  0.00  0.00    +0.000 C 
BRANCH  16  21
ATOM     17  N   UNL     1       5.796   6.031  17.075  0.00  0.00    +0.000 NA
ATOM     18  C   UNL     1       6.319   7.397  17.122  0.00  0.00    +0.000 C 
ATOM     19  C   UNL     1       7.712   7.301  17.711  0.00  0.00    +0.000 C 
ATOM     20  C   UNL     1       7.624   6.106  18.636  0.00  0.00    +0.000 C 
ATOM     21  C   UNL     1       6.639   5.171  17.937  0.00  0.00    +0.000 C 
BRANCH  17  23
ATOM     22  C   UNL     1       6.807   4.619  15.334  0.00  0.00    +0.000 C 
ATOM     23  C   UNL     1       5.616   5.480  15.733  0.00  0.00    +0.000 C 
ENDBRANCH  17  23
ENDBRANCH  16  21
ENDBRANCH   1  16
TORSDOF 6
ENDMDL
MODEL 6
REMARK VINA RESULT:      -7.0      5.210      8.057
REMARK  Name = 
REMARK  8 active torsions:
REMARK  status: ('A' for Active; 'I' for Inactive)
REMARK    1  A    between atoms: C_1  and  C_2
REMARK    2  A    between atoms: C_2  and  N_3
REMARK    3  A    between atoms: C_7  and  C_8
REMARK    4  A    between atoms: C_8  and  N_9
REMARK    5  A    between atoms: C_10  and  S_11
REMARK    6  A    between atoms: N_12  and  C_13
REMARK    7  A    between atoms: C_16  and  C_17
REMARK    8  A    between atoms: C_17  and  C_18
REMARK                            x       y       z     vdW  Elec       q    Type
REMARK                         _______ _______ _______ _____ _____    ______ ____
ROOT
ATOM      1  N   UNL     1       3.519   5.827  19.217  0.00  0.00    +0.000 NA
ATOM      2  C   UNL     1       3.441   6.666  18.243  0.00  0.00    +0.000 C 
ATOM      3  N   UNL     1       2.438   7.589  18.100  0.00  0.00    +0.000 N 
ATOM      4  H   UNL     1       2.495   8.123  17.242  0.00  0.00    +0.000 HD
ENDROOT
BRANCH   3   5
ATOM      5  C   UNL     1       1.827   8.316  19.138  0.00  0.00    +0.000 A 
ATOM      6  C   UNL     1       1.268   9.586  18.969  0.00  0.00    +0.000 A 
ATOM      7  C   UNL     1       0.633  10.246  20.030  0.00  0.00    +0.000 A 
ATOM      8  C   UNL     1       0.570   9.653  21.294  0.00  0.00    +0.000 A 
ATOM      9  C   UNL     1       1.164   8.397  21.478  0.00  0.00    +0.000 A 
ATOM     10  C   UNL     1       1.779   7.735  20.415  0.00  0.00    +0.000 A 
BRANCH   8  11
ATOM     11  C   UNL     1      -0.103  10.279  22.475  0.00  0.00    +0.000 C 
ATOM     12  C   UNL     1      -1.107  11.390  22.306  0.00  0.00    +0.000 C 
ATOM     13  O   UNL     1       0.150   9.853  23.604  0.00  0.00    +0.000 OA
ENDBRANCH   8  11
ENDBRANCH   3   5
BRANCH   2  14
ATOM     14  S   UNL     1       4.566   6.782  16.890  0.00  0.00    +0.000 S 
ATOM     15  H   UNL     1       5.425   5.823  17.246  0.00  0.00    +0.000 HD
ENDBRANCH   2  14
BRANCH   1  16
ATOM     16  C   UNL     1       4.611   4.869  19.294  0.00  0.00    +0.000 C 
BRANCH  16  21
ATOM     17  N   UNL     1       2.763   3.368  19.739  0.00  0.00    +0.000 NA
ATOM     18  C   UNL     1       1.834   2.797  18.763  0.00  0.00    +0.000 C 
ATOM     19  C   UNL     1       2.685   2.148  17.691  0.00  0.00    +0.000 C 
ATOM     20  C   UNL     1       3.940   2.994  17.676  0.00  0.00    +0.000 C 
ATOM     21  C   UNL     1       4.112   3.425  19.131  0.00  0.00    +0.000 C 
BRANCH  17  23
ATOM     22  C   UNL     1       1.361   2.709  21.648  0.00  0.00    +0.000 C 
ATOM     23  C   UNL     1       2.761   2.723  21.050  0.00  0.00    +0.000 C 
ENDBRANCH  17  23
ENDBRANCH  16  21
ENDBRANCH   1  16
TORSDOF 6
ENDMDL
MODEL 7
REMARK VINA RESULT:      -6.9      5.229      8.062
REMARK  Name = 
REMARK  8 active torsions:
REMARK  status: ('A' for Active; 'I' for Inactive)
REMARK    1  A    between atoms: C_1  and  C_2
REMARK    2  A    between atoms: C_2  and  N_3
REMARK    3  A    between atoms: C_7  and  C_8
REMARK    4  A    between atoms: C_8  and  N_9
REMARK    5  A    between atoms: C_10  and  S_11
REMARK    6  A    between atoms: N_12  and  C_13
REMARK    7  A    between atoms: C_16  and  C_17
REMARK    8  A    between atoms: C_17  and  C_18
REMARK                            x       y       z     vdW  Elec       q    Type
REMARK                         _______ _______ _______ _____ _____    ______ ____
ROOT
ATOM      1  N   UNL     1       3.526   5.772  19.156  0.00  0.00    +0.000 NA
ATOM      2  C   UNL     1       3.503   6.676  18.238  0.00  0.00    +0.000 C 
ATOM      3  N   UNL     1       2.507   7.605  18.098  0.00  0.00    +0.000 N 
ATOM      4  H   UNL     1       2.613   8.197  17.283  0.00  0.00    +0.000 HD
ENDROOT
BRANCH   3   5
ATOM      5  C   UNL     1       1.830   8.259  19.144  0.00  0.00    +0.000 A 
ATOM      6  C   UNL     1       1.724   7.744  20.439  0.00  0.00    +0.000 A 
ATOM      7  C   UNL     1       1.074   8.460  21.454  0.00  0.00    +0.000 A 
ATOM      8  C   UNL     1       0.492   9.701  21.180  0.00  0.00    +0.000 A 
ATOM      9  C   UNL     1       0.562  10.203  19.874  0.00  0.00    +0.000 A 
ATOM     10  C   UNL     1       1.225   9.496  18.871  0.00  0.00    +0.000 A 
BRANCH   8  11
ATOM     11  C   UNL     1      -0.203  10.539  22.207  0.00  0.00    +0.000 C 
ATOM     12  C   UNL     1      -1.129  11.659  21.808  0.00  0.00    +0.000 C 
ATOM     13  O   UNL     1      -0.035  10.283  23.402  0.00  0.00    +0.000 OA
ENDBRANCH   8  11
ENDBRANCH   3   5
BRANCH   2  14
ATOM     14  S   UNL     1       4.708   6.884  16.967  0.00  0.00    +0.000 S 
ATOM     15  H   UNL     1       3.898   6.869  15.904  0.00  0.00    +0.000 HD
ENDBRANCH   2  14
BRANCH   1  16
ATOM     16  C   UNL     1       4.617   4.812  19.234  0.00  0.00    +0.000 C 
BRANCH  16  21
ATOM     17  N   UNL     1       2.774   3.324  19.744  0.00  0.00    +0.000 NA
ATOM     18  C   UNL     1       1.823   2.739  18.799  0.00  0.00    +0.000 C 
ATOM     19  C   UNL     1       2.650   2.070  17.720  0.00  0.00    +0.000 C 
ATOM     20  C   UNL     1       3.906   2.913  17.663  0.00  0.00    +0.000 C 
ATOM     21  C   UNL     1       4.110   3.367  19.107  0.00  0.00    +0.000 C 
BRANCH  17  23
ATOM     22  C   UNL     1       1.403   2.649  21.670  0.00  0.00    +0.000 C 
ATOM     23  C   UNL     1       2.800   2.701  21.066  0.00  0.00    +0.000 C 
ENDBRANCH  17  23
ENDBRANCH  16  21
ENDBRANCH   1  16
TORSDOF 6
ENDMDL
MODEL 8
REMARK VINA RESULT:      -6.9      3.957      7.494
REMARK  Name = 
REMARK  8 active torsions:
REMARK  status: ('A' for Active; 'I' for Inactive)
REMARK    1  A    between atoms: C_1  and  C_2
REMARK    2  A    between atoms: C_2  and  N_3
REMARK    3  A    between atoms: C_7  and  C_8
REMARK    4  A    between atoms: C_8  and  N_9
REMARK    5  A    between atoms: C_10  and  S_11
REMARK    6  A    between atoms: N_12  and  C_13
REMARK    7  A    between atoms: C_16  and  C_17
REMARK    8  A    between atoms: C_17  and  C_18
REMARK                            x       y       z     vdW  Elec       q    Type
REMARK                         _______ _______ _______ _____ _____    ______ ____
ROOT
ATOM      1  N   UNL     1       4.684   5.204  19.422  0.00  0.00    +0.000 NA
ATOM      2  C   UNL     1       3.562   4.704  19.811  0.00  0.00    +0.000 C 
ATOM      3  N   UNL     1       2.546   5.435  20.367  0.00  0.00    +0.000 N 
ATOM      4  H   UNL     1       1.762   4.873  20.678  0.00  0.00    +0.000 HD
ENDROOT
BRANCH   3   5
ATOM      5  C   UNL     1       2.151   6.731  19.985  0.00  0.00    +0.000 A 
ATOM      6  C   UNL     1       1.491   7.621  20.837  0.00  0.00    +0.000 A 
ATOM      7  C   UNL     1       1.160   8.917  20.416  0.00  0.00    +0.000 A 
ATOM      8  C   UNL     1       1.462   9.336  19.117  0.00  0.00    +0.000 A 
ATOM      9  C   UNL     1       2.089   8.433  18.248  0.00  0.00    +0.000 A 
ATOM     10  C   UNL     1       2.434   7.151  18.677  0.00  0.00    +0.000 A 
BRANCH   8  11
ATOM     11  C   UNL     1       1.162  10.705  18.593  0.00  0.00    +0.000 C 
ATOM     12  C   UNL     1      -0.225  11.288  18.674  0.00  0.00    +0.000 C 
ATOM     13  O   UNL     1       2.078  11.377  18.114  0.00  0.00    +0.000 OA
ENDBRANCH   8  11
ENDBRANCH   3   5
BRANCH   2  14
ATOM     14  S   UNL     1       3.116   3.000  19.747  0.00  0.00    +0.000 S 
ATOM     15  H   UNL     1       2.005   3.044  20.487  0.00  0.00    +0.000 HD
ENDBRANCH   2  14
BRANCH   1  16
ATOM     16  C   UNL     1       5.721   4.360  18.848  0.00  0.00    +0.000 C 
BRANCH  16  21
ATOM     17  N   UNL     1       5.692   5.990  17.056  0.00  0.00    +0.000 NA
ATOM     18  C   UNL     1       6.178   7.369  17.108  0.00  0.00    +0.000 C 
ATOM     19  C   UNL     1       7.600   7.301  17.626  0.00  0.00    +0.000 C 
ATOM     20  C   UNL     1       7.592   6.085  18.527  0.00  0.00    +0.000 C 
ATOM     21  C   UNL     1       6.601   5.137  17.856  0.00  0.00    +0.000 C 
BRANCH  17  23
ATOM     22  C   UNL     1       6.569   4.498  15.309  0.00  0.00    +0.000 C 
ATOM     23  C   UNL     1       5.461   5.462  15.713  0.00  0.00    +0.000 C 
ENDBRANCH  17  23
ENDBRANCH  16  21
ENDBRANCH   1  16
TORSDOF 6
ENDMDL
MODEL 9
REMARK VINA RESULT:      -6.8      5.291      7.753
REMARK  Name = 
REMARK  8 active torsions:
REMARK  status: ('A' for Active; 'I' for Inactive)
REMARK    1  A    between atoms: C_1  and  C_2
REMARK    2  A    between atoms: C_2  and  N_3
REMARK    3  A    between atoms: C_7  and  C_8
REMARK    4  A    between atoms: C_8  and  N_9
REMARK    5  A    between atoms: C_10  and  S_11
REMARK    6  A    between atoms: N_12  and  C_13
REMARK    7  A    between atoms: C_16  and  C_17
REMARK    8  A    between atoms: C_17  and  C_18
REMARK                            x       y       z     vdW  Elec       q    Type
REMARK                         _______ _______ _______ _____ _____    ______ ____
ROOT
ATOM      1  N   UNL     1       2.188   4.980  17.733  0.00  0.00    +0.000 NA
ATOM      2  C   UNL     1       3.236   5.728  17.675  0.00  0.00    +0.000 C 
ATOM      3  N   UNL     1       3.216   7.092  17.798  0.00  0.00    +0.000 N 
ATOM      4  H   UNL     1       4.120   7.527  17.659  0.00  0.00    +0.000 HD
ENDROOT
BRANCH   3   5
ATOM      5  C   UNL     1       2.398   7.833  18.671  0.00  0.00    +0.000 A 
ATOM      6  C   UNL     1       1.778   9.035  18.316  0.00  0.00    +0.000 A 
ATOM      7  C   UNL     1       0.939   9.710  19.214  0.00  0.00    +0.000 A 
ATOM      8  C   UNL     1       0.725   9.203  20.499  0.00  0.00    +0.000 A 
ATOM      9  C   UNL     1       1.376   8.019  20.871  0.00  0.00    +0.000 A 
ATOM     10  C   UNL     1       2.197   7.341  19.969  0.00  0.00    +0.000 A 
BRANCH   8  11
ATOM     11  C   UNL     1      -0.168   9.848  21.511  0.00  0.00    +0.000 C 
ATOM     12  C   UNL     1      -0.204   9.374  22.940  0.00  0.00    +0.000 C 
ATOM     13  O   UNL     1      -0.865  10.806  21.169  0.00  0.00    +0.000 OA
ENDBRANCH   8  11
ENDBRANCH   3   5
BRANCH   2  14
ATOM     14  S   UNL     1       4.885   5.171  17.391  0.00  0.00    +0.000 S 
ATOM     15  H   UNL     1       4.695   4.528  16.235  0.00  0.00    +0.000 HD
ENDBRANCH   2  14
BRANCH   1  16
ATOM     16  C   UNL     1       2.290   3.537  17.584  0.00  0.00    +0.000 C 
BRANCH  16  21
ATOM     17  N   UNL     1       3.195   3.260  19.814  0.00  0.00    +0.000 NA
ATOM     18  C   UNL     1       2.615   3.741  21.069  0.00  0.00    +0.000 C 
ATOM     19  C   UNL     1       1.188   3.233  21.102  0.00  0.00    +0.000 C 
ATOM     20  C   UNL     1       0.798   3.178  19.640  0.00  0.00    +0.000 C 
ATOM     21  C   UNL     1       2.098   2.813  18.926  0.00  0.00    +0.000 C 
BRANCH  17  23
ATOM     22  C   UNL     1       4.082   1.143  18.934  0.00  0.00    +0.000 C 
ATOM     23  C   UNL     1       4.248   2.257  19.959  0.00  0.00    +0.000 C 
ENDBRANCH  17  23
ENDBRANCH  16  21
ENDBRANCH   1  16
TORSDOF 6
ENDMDL
