MODEL 1
REMARK VINA RESULT:      -6.5      0.000      0.000
REMARK  Name = 
REMARK  8 active torsions:
REMARK  status: ('A' for Active; 'I' for Inactive)
REMARK    1  A    between atoms: C_1  and  C_2
REMARK    2  A    between atoms: C_2  and  C_3
REMARK    3  A    between atoms: C_3  and  C_4
REMARK    4  A    between atoms: C_4  and  C_5
REMARK    5  A    between atoms: C_5  and  C_6
REMARK    6  A    between atoms: C_5  and  C_8
REMARK    7  A    between atoms: C_6  and  C_7
REMARK    8  A    between atoms: C_8  and  C_9
REMARK                            x       y       z     vdW  Elec       q    Type
REMARK                         _______ _______ _______ _____ _____    ______ ____
ROOT
ATOM      1  C   UNL     1       4.033   5.020  18.066  0.00  0.00    +0.000 C 
ATOM      2  O   UNL     1       4.658   4.277  18.814  0.00  0.00    +0.000 OA
ATOM      3  N   UNL     1       4.486   5.571  16.883  0.00  0.00    +0.000 N 
ATOM      4  C   UNL     1       5.736   5.281  16.390  0.00  0.00    +0.000 A 
ATOM      5  N   UNL     1       6.689   4.521  16.876  0.00  0.00    +0.000 NA
ATOM      6  N   UNL     1       7.736   4.578  15.981  0.00  0.00    +0.000 NA
ATOM      7  N   UNL     1       7.439   5.358  14.953  0.00  0.00    +0.000 NA
ATOM      8  N   UNL     1       6.199   5.795  15.206  0.00  0.00    +0.000 N 
ATOM      9  H   UNL     1       3.882   6.193  16.365  0.00  0.00    +0.000 HD
ATOM     10  H   UNL     1       5.750   6.412  14.544  0.00  0.00    +0.000 HD
ENDROOT
BRANCH   1  11
ATOM     11  C   UNL     1       2.608   5.439  18.404  0.00  0.00    +0.000 C 
BRANCH  11  12
ATOM     12  C   UNL     1       2.484   6.108  19.787  0.00  0.00    +0.000 C 
BRANCH  12  13
ATOM     13  C   UNL     1       2.066   7.597  19.691  0.00  0.00    +0.000 C 
ATOM     14  C   UNL     1       1.336   8.175  20.898  0.00  0.00    +0.000 C 
ENDBRANCH  12  13
BRANCH  12  15
ATOM     15  C   UNL     1       1.539   5.331  20.733  0.00  0.00    +0.000 C 
BRANCH  15  16
ATOM     16  C   UNL     1       0.969   4.032  20.138  0.00  0.00    +0.000 C 
BRANCH  16  18
ATOM     17  C   UNL     1       2.722   2.682  21.397  0.00  0.00    +0.000 C 
ATOM     18  C   UNL     1       1.245   2.851  21.076  0.00  0.00    +0.000 C 
ENDBRANCH  16  18
ENDBRANCH  15  16
ENDBRANCH  12  15
ENDBRANCH  11  12
ENDBRANCH   1  11
TORSDOF 6
ENDMDL
MODEL 2
REMARK VINA RESULT:      -6.4      1.397      1.740
REMARK  Name = 
REMARK  8 active torsions:
REMARK  status: ('A' for Active; 'I' for Inactive)
REMARK    1  A    between atoms: C_1  and  C_2
REMARK    2  A    between atoms: C_2  and  C_3
REMARK    3  A    between atoms: C_3  and  C_4
REMARK    4  A    between atoms: C_4  and  C_5
REMARK    5  A    between atoms: C_5  and  C_6
REMARK    6  A    between atoms: C_5  and  C_8
REMARK    7  A    between atoms: C_6  and  C_7
REMARK    8  A    between atoms: C_8  and  C_9
REMARK                            x       y       z     vdW  Elec       q    Type
REMARK                         _______ _______ _______ _____ _____    ______ ____
ROOT
ATOM      1  C   UNL     1       5.411   4.407  18.335  0.00  0.00    +0.000 C 
ATOM      2  O   UNL     1       6.489   4.728  18.822  0.00  0.00    +0.000 OA
ATOM      3  N   UNL     1       5.084   4.390  16.993  0.00  0.00    +0.000 N 
ATOM      4  C   UNL     1       6.008   4.709  16.027  0.00  0.00    +0.000 A 
ATOM      5  N   UNL     1       7.262   5.081  16.136  0.00  0.00    +0.000 NA
ATOM      6  N   UNL     1       7.730   5.276  14.853  0.00  0.00    +0.000 NA
ATOM      7  N   UNL     1       6.784   5.027  13.962  0.00  0.00    +0.000 NA
ATOM      8  N   UNL     1       5.716   4.676  14.688  0.00  0.00    +0.000 N 
ATOM      9  H   UNL     1       4.149   4.128  16.716  0.00  0.00    +0.000 HD
ATOM     10  H   UNL     1       4.858   4.429  14.215  0.00  0.00    +0.000 HD
ENDROOT
BRANCH   1  11
ATOM     11  C   UNL     1       4.254   3.978  19.229  0.00  0.00    +0.000 C 
BRANCH  11  12
ATOM     12  C   UNL     1       3.345   5.150  19.649  0.00  0.00    +0.000 C 
BRANCH  12  13
ATOM     13  C   UNL     1       2.519   5.713  18.464  0.00  0.00    +0.000 C 
ATOM     14  C   UNL     1       2.533   7.227  18.287  0.00  0.00    +0.000 C 
ENDBRANCH  12  13
BRANCH  12  15
ATOM     15  C   UNL     1       2.426   4.785  20.836  0.00  0.00    +0.000 C 
BRANCH  15  16
ATOM     16  C   UNL     1       1.024   4.299  20.431  0.00  0.00    +0.000 C 
BRANCH  16  18
ATOM     17  C   UNL     1       0.838   2.356  18.797  0.00  0.00    +0.000 C 
ATOM     18  C   UNL     1       1.020   2.777  20.247  0.00  0.00    +0.000 C 
ENDBRANCH  16  18
ENDBRANCH  15  16
ENDBRANCH  12  15
ENDBRANCH  11  12
ENDBRANCH   1  11
TORSDOF 6
ENDMDL
MODEL 3
REMARK VINA RESULT:      -6.4      1.713      2.839
REMARK  Name = 
REMARK  8 active torsions:
REMARK  status: ('A' for Active; 'I' for Inactive)
REMARK    1  A    between atoms: C_1  and  C_2
REMARK    2  A    between atoms: C_2  and  C_3
REMARK    3  A    between atoms: C_3  and  C_4
REMARK    4  A    between atoms: C_4  and  C_5
REMARK    5  A    between atoms: C_5  and  C_6
REMARK    6  A    between atoms: C_5  and  C_8
REMARK    7  A    between atoms: C_6  and  C_7
REMARK    8  A    between atoms: C_8  and  C_9
REMARK                            x       y       z     vdW  Elec       q    Type
REMARK                         _______ _______ _______ _____ _____    ______ ____
ROOT
ATOM      1  C   UNL     1       5.505   4.709  17.675  0.00  0.00    +0.000 C 
ATOM      2  O   UNL     1       6.238   5.617  18.051  0.00  0.00    +0.000 OA
ATOM      3  N   UNL     1       5.461   4.155  16.410  0.00  0.00    +0.000 N 
ATOM      4  C   UNL     1       6.316   4.569  15.416  0.00  0.00    +0.000 A 
ATOM      5  N   UNL     1       7.250   5.491  15.425  0.00  0.00    +0.000 NA
ATOM      6  N   UNL     1       7.811   5.498  14.164  0.00  0.00    +0.000 NA
ATOM      7  N   UNL     1       7.235   4.594  13.386  0.00  0.00    +0.000 NA
ATOM      8  N   UNL     1       6.309   4.018  14.161  0.00  0.00    +0.000 N 
ATOM      9  H   UNL     1       4.792   3.425  16.215  0.00  0.00    +0.000 HD
ATOM     10  H   UNL     1       5.737   3.279  13.778  0.00  0.00    +0.000 HD
ENDROOT
BRANCH   1  11
ATOM     11  C   UNL     1       4.503   4.076  18.632  0.00  0.00    +0.000 C 
BRANCH  11  12
ATOM     12  C   UNL     1       3.056   4.104  18.101  0.00  0.00    +0.000 C 
BRANCH  12  13
ATOM     13  C   UNL     1       2.537   2.695  17.718  0.00  0.00    +0.000 C 
ATOM     14  C   UNL     1       3.441   1.521  18.075  0.00  0.00    +0.000 C 
ENDBRANCH  12  13
BRANCH  12  15
ATOM     15  C   UNL     1       2.085   4.801  19.081  0.00  0.00    +0.000 C 
BRANCH  15  16
ATOM     16  C   UNL     1       1.094   3.853  19.777  0.00  0.00    +0.000 C 
BRANCH  16  18
ATOM     17  C   UNL     1       2.586   2.700  21.487  0.00  0.00    +0.000 C 
ATOM     18  C   UNL     1       1.459   3.695  21.258  0.00  0.00    +0.000 C 
ENDBRANCH  16  18
ENDBRANCH  15  16
ENDBRANCH  12  15
ENDBRANCH  11  12
ENDBRANCH   1  11
TORSDOF 6
ENDMDL
MODEL 4
REMARK VINA RESULT:      -6.3      1.778      2.740
REMARK  Name = 
REMARK  8 active torsions:
REMARK  status: ('A' for Active; 'I' for Inactive)
REMARK    1  A    between atoms: C_1  and  C_2
REMARK    2  A    between atoms: C_2  and  C_3
REMARK    3  A    between atoms: C_3  and  C_4
REMARK    4  A    between atoms: C_4  and  C_5
REMARK    5  A    between atoms: C_5  and  C_6
REMARK    6  A    between atoms: C_5  and  C_8
REMARK    7  A    between atoms: C_6  and  C_7
REMARK    8  A    between atoms: C_8  and  C_9
REMARK                            x       y       z     vdW  Elec       q    Type
REMARK                         _______ _______ _______ _____ _____    ______ ____
ROOT
ATOM      1  C   UNL     1       3.618   5.435  18.396  0.00  0.00    +0.000 C 
ATOM      2  O   UNL     1       4.119   5.163  19.481  0.00  0.00    +0.000 OA
ATOM      3  N   UNL     1       4.273   5.931  17.286  0.00  0.00    +0.000 N 
ATOM      4  C   UNL     1       5.633   6.135  17.288  0.00  0.00    +0.000 A 
ATOM      5  N   UNL     1       6.521   5.948  18.236  0.00  0.00    +0.000 NA
ATOM      6  N   UNL     1       7.744   6.307  17.709  0.00  0.00    +0.000 NA
ATOM      7  N   UNL     1       7.618   6.709  16.453  0.00  0.00    +0.000 NA
ATOM      8  N   UNL     1       6.310   6.602  16.192  0.00  0.00    +0.000 N 
ATOM      9  H   UNL     1       3.743   6.141  16.452  0.00  0.00    +0.000 HD
ATOM     10  H   UNL     1       5.970   6.852  15.274  0.00  0.00    +0.000 HD
ENDROOT
BRANCH   1  11
ATOM     11  C   UNL     1       2.124   5.246  18.163  0.00  0.00    +0.000 C 
BRANCH  11  12
ATOM     12  C   UNL     1       1.730   3.776  17.916  0.00  0.00    +0.000 C 
BRANCH  12  13
ATOM     13  C   UNL     1       2.859   2.968  17.226  0.00  0.00    +0.000 C 
ATOM     14  C   UNL     1       3.419   1.785  18.008  0.00  0.00    +0.000 C 
ENDBRANCH  12  13
BRANCH  12  15
ATOM     15  C   UNL     1       1.258   3.069  19.207  0.00  0.00    +0.000 C 
BRANCH  15  16
ATOM     16  C   UNL     1       0.907   4.021  20.362  0.00  0.00    +0.000 C 
BRANCH  16  18
ATOM     17  C   UNL     1       2.616   2.489  21.462  0.00  0.00    +0.000 C 
ATOM     18  C   UNL     1       1.871   3.813  21.537  0.00  0.00    +0.000 C 
ENDBRANCH  16  18
ENDBRANCH  15  16
ENDBRANCH  12  15
ENDBRANCH  11  12
ENDBRANCH   1  11
TORSDOF 6
ENDMDL
MODEL 5
REMARK VINA RESULT:      -6.3      1.326      1.566
REMARK  Name = 
REMARK  8 active torsions:
REMARK  status: ('A' for Active; 'I' for Inactive)
REMARK    1  A    between atoms: C_1  and  C_2
REMARK    2  A    between atoms: C_2  and  C_3
REMARK    3  A    between atoms: C_3  and  C_4
REMARK    4  A    between atoms: C_4  and  C_5
REMARK    5  A    between atoms: C_5  and  C_6
REMARK    6  A    between atoms: C_5  and  C_8
REMARK    7  A    between atoms: C_6  and  C_7
REMARK    8  A    between atoms: C_8  and  C_9
REMARK                            x       y       z     vdW  Elec       q    Type
REMARK                         _______ _______ _______ _____ _____    ______ ____
ROOT
ATOM      1  C   UNL     1       4.696   4.752  18.183  0.00  0.00    +0.000 C 
ATOM      2  O   UNL     1       4.087   3.805  17.698  0.00  0.00    +0.000 OA
ATOM      3  N   UNL     1       5.763   5.424  17.619  0.00  0.00    +0.000 N 
ATOM      4  C   UNL     1       6.235   5.097  16.370  0.00  0.00    +0.000 A 
ATOM      5  N   UNL     1       5.846   4.168  15.528  0.00  0.00    +0.000 NA
ATOM      6  N   UNL     1       6.660   4.275  14.419  0.00  0.00    +0.000 NA
ATOM      7  N   UNL     1       7.538   5.254  14.569  0.00  0.00    +0.000 NA
ATOM      8  N   UNL     1       7.276   5.764  15.777  0.00  0.00    +0.000 N 
ATOM      9  H   UNL     1       6.198   6.177  18.131  0.00  0.00    +0.000 HD
ATOM     10  H   UNL     1       7.825   6.543  16.113  0.00  0.00    +0.000 HD
ENDROOT
BRANCH   1  11
ATOM     11  C   UNL     1       4.308   5.303  19.550  0.00  0.00    +0.000 C 
BRANCH  11  12
ATOM     12  C   UNL     1       2.991   6.104  19.529  0.00  0.00    +0.000 C 
BRANCH  12  13
ATOM     13  C   UNL     1       2.711   6.749  18.148  0.00  0.00    +0.000 C 
ATOM     14  C   UNL     1       2.202   8.186  18.163  0.00  0.00    +0.000 C 
ENDBRANCH  12  13
BRANCH  12  15
ATOM     15  C   UNL     1       1.783   5.261  19.997  0.00  0.00    +0.000 C 
BRANCH  15  16
ATOM     16  C   UNL     1       2.094   4.284  21.143  0.00  0.00    +0.000 C 
BRANCH  16  18
ATOM     17  C   UNL     1       0.822   2.799  19.514  0.00  0.00    +0.000 C 
ATOM     18  C   UNL     1       1.353   2.958  20.930  0.00  0.00    +0.000 C 
ENDBRANCH  16  18
ENDBRANCH  15  16
ENDBRANCH  12  15
ENDBRANCH  11  12
ENDBRANCH   1  11
TORSDOF 6
ENDMDL
MODEL 6
REMARK VINA RESULT:      -6.3      0.861      1.010
REMARK  Name = 
REMARK  8 active torsions:
REMARK  status: ('A' for Active; 'I' for Inactive)
REMARK    1  A    between atoms: C_1  and  C_2
REMARK    2  A    between atoms: C_2  and  C_3
REMARK    3  A    between atoms: C_3  and  C_4
REMARK    4  A    between atoms: C_4  and  C_5
REMARK    5  A    between atoms: C_5  and  C_6
REMARK    6  A    between atoms: C_5  and  C_8
REMARK    7  A    between atoms: C_6  and  C_7
REMARK    8  A    between atoms: C_8  and  C_9
REMARK                            x       y       z     vdW  Elec       q    Type
REMARK                         _______ _______ _______ _____ _____    ______ ____
ROOT
ATOM      1  C   UNL     1       3.525   4.705  17.537  0.00  0.00    +0.000 C 
ATOM      2  O   UNL     1       3.741   3.498  17.532  0.00  0.00    +0.000 OA
ATOM      3  N   UNL     1       4.371   5.696  17.079  0.00  0.00    +0.000 N 
ATOM      4  C   UNL     1       5.583   5.395  16.506  0.00  0.00    +0.000 A 
ATOM      5  N   UNL     1       6.164   4.236  16.299  0.00  0.00    +0.000 NA
ATOM      6  N   UNL     1       7.371   4.502  15.688  0.00  0.00    +0.000 NA
ATOM      7  N   UNL     1       7.537   5.804  15.515  0.00  0.00    +0.000 NA
ATOM      8  N   UNL     1       6.430   6.358  16.021  0.00  0.00    +0.000 N 
ATOM      9  H   UNL     1       4.088   6.662  17.160  0.00  0.00    +0.000 HD
ATOM     10  H   UNL     1       6.325   7.363  15.995  0.00  0.00    +0.000 HD
ENDROOT
BRANCH   1  11
ATOM     11  C   UNL     1       2.218   5.255  18.094  0.00  0.00    +0.000 C 
BRANCH  11  12
ATOM     12  C   UNL     1       2.356   5.810  19.526  0.00  0.00    +0.000 C 
BRANCH  12  13
ATOM     13  C   UNL     1       2.297   7.358  19.570  0.00  0.00    +0.000 C 
ATOM     14  C   UNL     1       2.086   8.066  18.237  0.00  0.00    +0.000 C 
ENDBRANCH  12  13
BRANCH  12  15
ATOM     15  C   UNL     1       1.323   5.193  20.497  0.00  0.00    +0.000 C 
BRANCH  15  16
ATOM     16  C   UNL     1       1.154   3.670  20.363  0.00  0.00    +0.000 C 
BRANCH  16  18
ATOM     17  C   UNL     1       3.323   2.431  20.853  0.00  0.00    +0.000 C 
ATOM     18  C   UNL     1       2.005   2.945  21.412  0.00  0.00    +0.000 C 
ENDBRANCH  16  18
ENDBRANCH  15  16
ENDBRANCH  12  15
ENDBRANCH  11  12
ENDBRANCH   1  11
TORSDOF 6
ENDMDL
MODEL 7
REMARK VINA RESULT:      -6.2      1.477      1.757
REMARK  Name = 
REMARK  8 active torsions:
REMARK  status: ('A' for Active; 'I' for Inactive)
REMARK    1  A    between atoms: C_1  and  C_2
REMARK    2  A    between atoms: C_2  and  C_3
REMARK    3  A    between atoms: C_3  and  C_4
REMARK    4  A    between atoms: C_4  and  C_5
REMARK    5  A    between atoms: C_5  and  C_6
REMARK    6  A    between atoms: C_5  and  C_8
REMARK    7  A    between atoms: C_6  and  C_7
REMARK    8  A    between atoms: C_8  and  C_9
REMARK                            x       y       z     vdW  Elec       q    Type
REMARK                         _______ _______ _______ _____ _____    ______ ____
ROOT
ATOM      1  C   UNL     1       3.668   6.212  17.634  0.00  0.00    +0.000 C 
ATOM      2  O   UNL     1       3.912   7.374  17.329  0.00  0.00    +0.000 OA
ATOM      3  N   UNL     1       4.477   5.114  17.414  0.00  0.00    +0.000 N 
ATOM      4  C   UNL     1       5.718   5.243  16.837  0.00  0.00    +0.000 A 
ATOM      5  N   UNL     1       6.346   6.307  16.394  0.00  0.00    +0.000 NA
ATOM      6  N   UNL     1       7.565   5.876  15.915  0.00  0.00    +0.000 NA
ATOM      7  N   UNL     1       7.694   4.566  16.059  0.00  0.00    +0.000 NA
ATOM      8  N   UNL     1       6.550   4.173  16.631  0.00  0.00    +0.000 N 
ATOM      9  H   UNL     1       4.152   4.199  17.690  0.00  0.00    +0.000 HD
ATOM     10  H   UNL     1       6.418   3.195  16.848  0.00  0.00    +0.000 HD
ENDROOT
BRANCH   1  11
ATOM     11  C   UNL     1       2.358   5.851  18.322  0.00  0.00    +0.000 C 
BRANCH  11  12
ATOM     12  C   UNL     1       2.526   5.544  19.823  0.00  0.00    +0.000 C 
BRANCH  12  13
ATOM     13  C   UNL     1       1.601   6.412  20.713  0.00  0.00    +0.000 C 
ATOM     14  C   UNL     1       1.668   7.919  20.492  0.00  0.00    +0.000 C 
ENDBRANCH  12  13
BRANCH  12  15
ATOM     15  C   UNL     1       2.342   4.042  20.140  0.00  0.00    +0.000 C 
BRANCH  15  16
ATOM     16  C   UNL     1       0.906   3.523  19.956  0.00  0.00    +0.000 C 
BRANCH  16  18
ATOM     17  C   UNL     1       2.156   2.283  18.118  0.00  0.00    +0.000 C 
ATOM     18  C   UNL     1       0.880   2.375  18.941  0.00  0.00    +0.000 C 
ENDBRANCH  16  18
ENDBRANCH  15  16
ENDBRANCH  12  15
ENDBRANCH  11  12
ENDBRANCH   1  11
TORSDOF 6
ENDMDL
MODEL 8
REMARK VINA RESULT:      -6.2      1.571      2.071
REMARK  Name = 
REMARK  8 active torsions:
REMARK  status: ('A' for Active; 'I' for Inactive)
REMARK    1  A    between atoms: C_1  and  C_2
REMARK    2  A    between atoms: C_2  and  C_3
REMARK    3  A    between atoms: C_3  and  C_4
REMARK    4  A    between atoms: C_4  and  C_5
REMARK    5  A    between atoms: C_5  and  C_6
REMARK    6  A    between atoms: C_5  and  C_8
REMARK    7  A    between atoms: C_6  and  C_7
REMARK    8  A    between atoms: C_8  and  C_9
REMARK                            x       y       z     vdW  Elec       q    Type
REMARK                         _______ _______ _______ _____ _____    ______ ____
ROOT
ATOM      1  C   UNL     1       3.817   5.059  17.942  0.00  0.00    +0.000 C 
ATOM      2  O   UNL     1       3.986   4.484  16.873  0.00  0.00    +0.000 OA
ATOM      3  N   UNL     1       4.787   5.364  18.878  0.00  0.00    +0.000 N 
ATOM      4  C   UNL     1       6.111   5.070  18.658  0.00  0.00    +0.000 A 
ATOM      5  N   UNL     1       6.697   4.483  17.640  0.00  0.00    +0.000 NA
ATOM      6  N   UNL     1       8.045   4.440  17.929  0.00  0.00    +0.000 NA
ATOM      7  N   UNL     1       8.294   4.993  19.106  0.00  0.00    +0.000 NA
ATOM      8  N   UNL     1       7.096   5.384  19.559  0.00  0.00    +0.000 N 
ATOM      9  H   UNL     1       4.518   5.820  19.737  0.00  0.00    +0.000 HD
ATOM     10  H   UNL     1       7.035   5.847  20.454  0.00  0.00    +0.000 HD
ENDROOT
BRANCH   1  11
ATOM     11  C   UNL     1       2.425   5.510  18.368  0.00  0.00    +0.000 C 
BRANCH  11  12
ATOM     12  C   UNL     1       2.403   6.182  19.755  0.00  0.00    +0.000 C 
BRANCH  12  13
ATOM     13  C   UNL     1       1.950   7.662  19.690  0.00  0.00    +0.000 C 
ATOM     14  C   UNL     1       2.141   8.371  18.354  0.00  0.00    +0.000 C 
ENDBRANCH  12  13
BRANCH  12  15
ATOM     15  C   UNL     1       1.555   5.391  20.777  0.00  0.00    +0.000 C 
BRANCH  15  16
ATOM     16  C   UNL     1       0.895   4.123  20.211  0.00  0.00    +0.000 C 
BRANCH  16  18
ATOM     17  C   UNL     1       2.081   2.005  19.446  0.00  0.00    +0.000 C 
ATOM     18  C   UNL     1       1.687   2.878  20.628  0.00  0.00    +0.000 C 
ENDBRANCH  16  18
ENDBRANCH  15  16
ENDBRANCH  12  15
ENDBRANCH  11  12
ENDBRANCH   1  11
TORSDOF 6
ENDMDL
MODEL 9
REMARK VINA RESULT:      -6.1      1.484      3.126
REMARK  Name = 
REMARK  8 active torsions:
REMARK  status: ('A' for Active; 'I' for Inactive)
REMARK    1  A    between atoms: C_1  and  C_2
REMARK    2  A    between atoms: C_2  and  C_3
REMARK    3  A    between atoms: C_3  and  C_4
REMARK    4  A    between atoms: C_4  and  C_5
REMARK    5  A    between atoms: C_5  and  C_6
REMARK    6  A    between atoms: C_5  and  C_8
REMARK    7  A    between atoms: C_6  and  C_7
REMARK    8  A    between atoms: C_8  and  C_9
REMARK                            x       y       z     vdW  Elec       q    Type
REMARK                         _______ _______ _______ _____ _____    ______ ____
ROOT
ATOM      1  C   UNL     1       4.818   3.389  18.276  0.00  0.00    +0.000 C 
ATOM      2  O   UNL     1       5.433   4.023  19.126  0.00  0.00    +0.000 OA
ATOM      3  N   UNL     1       5.001   3.451  16.908  0.00  0.00    +0.000 N 
ATOM      4  C   UNL     1       5.975   4.244  16.351  0.00  0.00    +0.000 A 
ATOM      5  N   UNL     1       6.845   5.049  16.915  0.00  0.00    +0.000 NA
ATOM      6  N   UNL     1       7.592   5.601  15.895  0.00  0.00    +0.000 NA
ATOM      7  N   UNL     1       7.195   5.145  14.717  0.00  0.00    +0.000 NA
ATOM      8  N   UNL     1       6.193   4.304  14.998  0.00  0.00    +0.000 N 
ATOM      9  H   UNL     1       4.411   2.895  16.306  0.00  0.00    +0.000 HD
ATOM     10  H   UNL     1       5.728   3.821  14.242  0.00  0.00    +0.000 HD
ENDROOT
BRANCH   1  11
ATOM     11  C   UNL     1       3.717   2.417  18.681  0.00  0.00    +0.000 C 
BRANCH  11  12
ATOM     12  C   UNL     1       2.434   3.123  19.165  0.00  0.00    +0.000 C 
BRANCH  12  13
ATOM     13  C   UNL     1       2.459   3.420  20.685  0.00  0.00    +0.000 C 
ATOM     14  C   UNL     1       1.403   2.717  21.530  0.00  0.00    +0.000 C 
ENDBRANCH  12  13
BRANCH  12  15
ATOM     15  C   UNL     1       2.129   4.406  18.358  0.00  0.00    +0.000 C 
BRANCH  15  16
ATOM     16  C   UNL     1       2.352   5.714  19.135  0.00  0.00    +0.000 C 
BRANCH  16  18
ATOM     17  C   UNL     1       3.849   7.113  17.624  0.00  0.00    +0.000 C 
ATOM     18  C   UNL     1       2.444   6.900  18.167  0.00  0.00    +0.000 C 
ENDBRANCH  16  18
ENDBRANCH  15  16
ENDBRANCH  12  15
ENDBRANCH  11  12
ENDBRANCH   1  11
TORSDOF 6
ENDMDL
