MODEL 1
REMARK VINA RESULT:      -7.3      0.000      0.000
REMARK  Name = 
REMARK  1 active torsions:
REMARK  status: ('A' for Active; 'I' for Inactive)
REMARK    1  A    between atoms: N_3  and  C_4
REMARK                            x       y       z     vdW  Elec       q    Type
REMARK                         _______ _______ _______ _____ _____    ______ ____
ROOT
ATOM      1  O   UNL     1      -1.059  11.722  19.385  0.00  0.00    +0.000 OA
ATOM      2  C   UNL     1      -0.383  11.014  20.126  0.00  0.00    +0.000 C 
ATOM      3  N   UNL     1      -0.195  11.239  21.473  0.00  0.00    +0.000 N 
ATOM      4  N   UNL     1       0.336   9.930  19.636  0.00  0.00    +0.000 N 
ATOM      5  C   UNL     1       0.398   9.773  18.168  0.00  0.00    +0.000 C 
ATOM      6  C   UNL     1       1.798   9.325  17.712  0.00  0.00    +0.000 C 
ATOM      7  C   UNL     1       2.250   8.185  18.556  0.00  0.00    +0.000 A 
ATOM      8  C   UNL     1       1.681   7.944  19.790  0.00  0.00    +0.000 A 
ATOM      9  N   UNL     1       2.279   6.836  20.323  0.00  0.00    +0.000 N 
ATOM     10  C   UNL     1       3.247   6.369  19.458  0.00  0.00    +0.000 A 
ATOM     11  C   UNL     1       4.111   5.277  19.584  0.00  0.00    +0.000 A 
ATOM     12  C   UNL     1       5.008   5.038  18.538  0.00  0.00    +0.000 A 
ATOM     13  C   UNL     1       5.035   5.858  17.412  0.00  0.00    +0.000 A 
ATOM     14  C   UNL     1       4.162   6.945  17.299  0.00  0.00    +0.000 A 
ATOM     15  C   UNL     1       3.251   7.207  18.339  0.00  0.00    +0.000 A 
ATOM     16  C   UNL     1       0.590   8.718  20.435  0.00  0.00    +0.000 C 
ATOM     17  H   UNL     1       0.655  10.854  21.849  0.00  0.00    +0.000 HD
ATOM     18  H   UNL     1       2.057   6.412  21.212  0.00  0.00    +0.000 HD
ENDROOT
BRANCH   3  19
ATOM     19  C   UNL     1      -0.789  12.261  22.240  0.00  0.00    +0.000 A 
ATOM     20  C   UNL     1      -0.275  13.556  22.321  0.00  0.00    +0.000 A 
ATOM     21  C   UNL     1      -0.884  14.507  23.143  0.00  0.00    +0.000 A 
ATOM     22  C   UNL     1      -2.017  14.166  23.872  0.00  0.00    +0.000 A 
ATOM     23 BR   UNL     1      -2.827  15.449  24.998  0.00  0.00    +0.000 Br
ATOM     24  C   UNL     1      -2.558  12.887  23.779  0.00  0.00    +0.000 A 
ATOM     25  C   UNL     1      -1.947  11.936  22.956  0.00  0.00    +0.000 A 
ENDBRANCH   3  19
TORSDOF 1
ENDMDL
MODEL 2
REMARK VINA RESULT:      -7.3      3.339      5.582
REMARK  Name = 
REMARK  1 active torsions:
REMARK  status: ('A' for Active; 'I' for Inactive)
REMARK    1  A    between atoms: N_3  and  C_4
REMARK                            x       y       z     vdW  Elec       q    Type
REMARK                         _______ _______ _______ _____ _____    ______ ____
ROOT
ATOM      1  O   UNL     1       1.845   5.468  19.993  0.00  0.00    +0.000 OA
ATOM      2  C   UNL     1       2.539   6.189  19.282  0.00  0.00    +0.000 C 
ATOM      3  N   UNL     1       2.483   7.566  19.267  0.00  0.00    +0.000 N 
ATOM      4  N   UNL     1       3.418   5.655  18.346  0.00  0.00    +0.000 N 
ATOM      5  C   UNL     1       3.352   4.197  18.117  0.00  0.00    +0.000 C 
ATOM      6  C   UNL     1       3.507   3.858  16.624  0.00  0.00    +0.000 C 
ATOM      7  C   UNL     1       4.673   4.600  16.070  0.00  0.00    +0.000 A 
ATOM      8  C   UNL     1       5.174   5.717  16.707  0.00  0.00    +0.000 A 
ATOM      9  N   UNL     1       6.241   6.173  15.985  0.00  0.00    +0.000 N 
ATOM     10  C   UNL     1       6.424   5.378  14.872  0.00  0.00    +0.000 A 
ATOM     11  C   UNL     1       7.377   5.467  13.852  0.00  0.00    +0.000 A 
ATOM     12  C   UNL     1       7.322   4.514  12.831  0.00  0.00    +0.000 A 
ATOM     13  C   UNL     1       6.354   3.511  12.834  0.00  0.00    +0.000 A 
ATOM     14  C   UNL     1       5.410   3.433  13.863  0.00  0.00    +0.000 A 
ATOM     15  C   UNL     1       5.444   4.382  14.902  0.00  0.00    +0.000 A 
ATOM     16  C   UNL     1       4.678   6.320  17.970  0.00  0.00    +0.000 C 
ATOM     17  H   UNL     1       2.783   7.989  18.404  0.00  0.00    +0.000 HD
ATOM     18  H   UNL     1       6.818   6.969  16.217  0.00  0.00    +0.000 HD
ENDROOT
BRANCH   3  19
ATOM     19  C   UNL     1       1.687   8.379  20.096  0.00  0.00    +0.000 A 
ATOM     20  C   UNL     1       1.580   8.197  21.475  0.00  0.00    +0.000 A 
ATOM     21  C   UNL     1       0.729   9.007  22.232  0.00  0.00    +0.000 A 
ATOM     22  C   UNL     1      -0.002  10.011  21.608  0.00  0.00    +0.000 A 
ATOM     23 BR   UNL     1      -1.165  11.093  22.630  0.00  0.00    +0.000 Br
ATOM     24  C   UNL     1       0.116  10.224  20.238  0.00  0.00    +0.000 A 
ATOM     25  C   UNL     1       0.967   9.412  19.483  0.00  0.00    +0.000 A 
ENDBRANCH   3  19
TORSDOF 1
ENDMDL
MODEL 3
REMARK VINA RESULT:      -7.3      3.333      5.541
REMARK  Name = 
REMARK  1 active torsions:
REMARK  status: ('A' for Active; 'I' for Inactive)
REMARK    1  A    between atoms: N_3  and  C_4
REMARK                            x       y       z     vdW  Elec       q    Type
REMARK                         _______ _______ _______ _____ _____    ______ ____
ROOT
ATOM      1  O   UNL     1       1.823   5.507  19.935  0.00  0.00    +0.000 OA
ATOM      2  C   UNL     1       2.502   6.230  19.212  0.00  0.00    +0.000 C 
ATOM      3  N   UNL     1       2.403   7.604  19.160  0.00  0.00    +0.000 N 
ATOM      4  N   UNL     1       3.406   5.700  18.299  0.00  0.00    +0.000 N 
ATOM      5  C   UNL     1       3.388   4.235  18.108  0.00  0.00    +0.000 C 
ATOM      6  C   UNL     1       3.570   3.862  16.626  0.00  0.00    +0.000 C 
ATOM      7  C   UNL     1       4.717   4.625  16.064  0.00  0.00    +0.000 A 
ATOM      8  C   UNL     1       5.177   5.774  16.676  0.00  0.00    +0.000 A 
ATOM      9  N   UNL     1       6.236   6.244  15.952  0.00  0.00    +0.000 N 
ATOM     10  C   UNL     1       6.456   5.427  14.863  0.00  0.00    +0.000 A 
ATOM     11  C   UNL     1       7.416   5.519  13.850  0.00  0.00    +0.000 A 
ATOM     12  C   UNL     1       7.401   4.537  12.855  0.00  0.00    +0.000 A 
ATOM     13  C   UNL     1       6.466   3.505  12.875  0.00  0.00    +0.000 A 
ATOM     14  C   UNL     1       5.513   3.424  13.896  0.00  0.00    +0.000 A 
ATOM     15  C   UNL     1       5.507   4.401  14.909  0.00  0.00    +0.000 A 
ATOM     16  C   UNL     1       4.649   6.394  17.918  0.00  0.00    +0.000 C 
ATOM     17  H   UNL     1       2.698   8.013  18.289  0.00  0.00    +0.000 HD
ATOM     18  H   UNL     1       6.786   7.064  16.169  0.00  0.00    +0.000 HD
ENDROOT
BRANCH   3  19
ATOM     19  C   UNL     1       1.573   8.413  19.959  0.00  0.00    +0.000 A 
ATOM     20  C   UNL     1       0.808   9.465  19.451  0.00  0.00    +0.000 A 
ATOM     21  C   UNL     1       0.046  10.263  20.308  0.00  0.00    +0.000 A 
ATOM     22  C   UNL     1       0.037   9.998  21.673  0.00  0.00    +0.000 A 
ATOM     23 BR   UNL     1      -0.979  11.090  22.832  0.00  0.00    +0.000 Br
ATOM     24  C   UNL     1       0.772   8.934  22.190  0.00  0.00    +0.000 A 
ATOM     25  C   UNL     1       1.534   8.138  21.331  0.00  0.00    +0.000 A 
ENDBRANCH   3  19
TORSDOF 1
ENDMDL
MODEL 4
REMARK VINA RESULT:      -7.2      0.141      1.014
REMARK  Name = 
REMARK  1 active torsions:
REMARK  status: ('A' for Active; 'I' for Inactive)
REMARK    1  A    between atoms: N_3  and  C_4
REMARK                            x       y       z     vdW  Elec       q    Type
REMARK                         _______ _______ _______ _____ _____    ______ ____
ROOT
ATOM      1  O   UNL     1      -1.079  11.744  19.431  0.00  0.00    +0.000 OA
ATOM      2  C   UNL     1      -0.407  11.026  20.165  0.00  0.00    +0.000 C 
ATOM      3  N   UNL     1      -0.225  11.233  21.516  0.00  0.00    +0.000 N 
ATOM      4  N   UNL     1       0.314   9.948  19.664  0.00  0.00    +0.000 N 
ATOM      5  C   UNL     1       0.382   9.810  18.195  0.00  0.00    +0.000 C 
ATOM      6  C   UNL     1       1.784   9.369  17.738  0.00  0.00    +0.000 C 
ATOM      7  C   UNL     1       2.231   8.217  18.569  0.00  0.00    +0.000 A 
ATOM      8  C   UNL     1       1.657   7.960  19.797  0.00  0.00    +0.000 A 
ATOM      9  N   UNL     1       2.252   6.845  20.317  0.00  0.00    +0.000 N 
ATOM     10  C   UNL     1       3.224   6.389  19.451  0.00  0.00    +0.000 A 
ATOM     11  C   UNL     1       4.088   5.295  19.565  0.00  0.00    +0.000 A 
ATOM     12  C   UNL     1       4.988   5.070  18.520  0.00  0.00    +0.000 A 
ATOM     13  C   UNL     1       5.020   5.905  17.405  0.00  0.00    +0.000 A 
ATOM     14  C   UNL     1       4.148   6.994  17.303  0.00  0.00    +0.000 A 
ATOM     15  C   UNL     1       3.233   7.241  18.343  0.00  0.00    +0.000 A 
ATOM     16  C   UNL     1       0.563   8.726  20.447  0.00  0.00    +0.000 C 
ATOM     17  H   UNL     1       0.624  10.842  21.890  0.00  0.00    +0.000 HD
ATOM     18  H   UNL     1       2.027   6.408  21.200  0.00  0.00    +0.000 HD
ENDROOT
BRANCH   3  19
ATOM     19  C   UNL     1      -0.821  12.244  22.294  0.00  0.00    +0.000 A 
ATOM     20  C   UNL     1      -1.980  12.049  23.048  0.00  0.00    +0.000 A 
ATOM     21  C   UNL     1      -2.549  13.110  23.756  0.00  0.00    +0.000 A 
ATOM     22  C   UNL     1      -1.949  14.364  23.722  0.00  0.00    +0.000 A 
ATOM     23 BR   UNL     1      -2.732  15.801  24.665  0.00  0.00    +0.000 Br
ATOM     24  C   UNL     1      -0.778  14.566  22.998  0.00  0.00    +0.000 A 
ATOM     25  C   UNL     1      -0.210  13.503  22.290  0.00  0.00    +0.000 A 
ENDBRANCH   3  19
TORSDOF 1
ENDMDL
MODEL 5
REMARK VINA RESULT:      -7.2      7.402      8.524
REMARK  Name = 
REMARK  1 active torsions:
REMARK  status: ('A' for Active; 'I' for Inactive)
REMARK    1  A    between atoms: N_3  and  C_4
REMARK                            x       y       z     vdW  Elec       q    Type
REMARK                         _______ _______ _______ _____ _____    ______ ____
ROOT
ATOM      1  O   UNL     1       8.576   7.485  16.465  0.00  0.00    +0.000 OA
ATOM      2  C   UNL     1       7.550   7.646  17.120  0.00  0.00    +0.000 C 
ATOM      3  N   UNL     1       7.336   8.683  18.003  0.00  0.00    +0.000 N 
ATOM      4  N   UNL     1       6.512   6.723  17.081  0.00  0.00    +0.000 N 
ATOM      5  C   UNL     1       6.765   5.457  16.363  0.00  0.00    +0.000 C 
ATOM      6  C   UNL     1       6.150   4.258  17.108  0.00  0.00    +0.000 C 
ATOM      7  C   UNL     1       4.746   4.580  17.483  0.00  0.00    +0.000 A 
ATOM      8  C   UNL     1       4.306   5.886  17.542  0.00  0.00    +0.000 A 
ATOM      9  N   UNL     1       2.986   5.873  17.894  0.00  0.00    +0.000 N 
ATOM     10  C   UNL     1       2.569   4.572  18.088  0.00  0.00    +0.000 A 
ATOM     11  C   UNL     1       1.315   4.078  18.462  0.00  0.00    +0.000 A 
ATOM     12  C   UNL     1       1.179   2.692  18.589  0.00  0.00    +0.000 A 
ATOM     13  C   UNL     1       2.253   1.838  18.350  0.00  0.00    +0.000 A 
ATOM     14  C   UNL     1       3.501   2.348  17.974  0.00  0.00    +0.000 A 
ATOM     15  C   UNL     1       3.663   3.739  17.840  0.00  0.00    +0.000 A 
ATOM     16  C   UNL     1       5.100   7.107  17.250  0.00  0.00    +0.000 C 
ATOM     17  H   UNL     1       6.673   8.482  18.733  0.00  0.00    +0.000 HD
ATOM     18  H   UNL     1       2.391   6.683  18.000  0.00  0.00    +0.000 HD
ENDROOT
BRANCH   3  19
ATOM     19  C   UNL     1       8.209   9.759  18.255  0.00  0.00    +0.000 A 
ATOM     20  C   UNL     1       9.230   9.712  19.205  0.00  0.00    +0.000 A 
ATOM     21  C   UNL     1      10.026  10.835  19.443  0.00  0.00    +0.000 A 
ATOM     22  C   UNL     1       9.811  12.000  18.717  0.00  0.00    +0.000 A 
ATOM     23 BR   UNL     1      10.876  13.523  19.054  0.00  0.00    +0.000 Br
ATOM     24  C   UNL     1       8.815  12.053  17.746  0.00  0.00    +0.000 A 
ATOM     25  C   UNL     1       8.018  10.929  17.510  0.00  0.00    +0.000 A 
ENDBRANCH   3  19
TORSDOF 1
ENDMDL
MODEL 6
REMARK VINA RESULT:      -7.2      8.116      8.786
REMARK  Name = 
REMARK  1 active torsions:
REMARK  status: ('A' for Active; 'I' for Inactive)
REMARK    1  A    between atoms: N_3  and  C_4
REMARK                            x       y       z     vdW  Elec       q    Type
REMARK                         _______ _______ _______ _____ _____    ______ ____
ROOT
ATOM      1  O   UNL     1       5.636  17.962  19.517  0.00  0.00    +0.000 OA
ATOM      2  C   UNL     1       5.704  16.858  18.986  0.00  0.00    +0.000 C 
ATOM      3  N   UNL     1       4.625  16.153  18.497  0.00  0.00    +0.000 N 
ATOM      4  N   UNL     1       6.907  16.168  18.897  0.00  0.00    +0.000 N 
ATOM      5  C   UNL     1       8.062  16.736  19.624  0.00  0.00    +0.000 C 
ATOM      6  C   UNL     1       8.902  15.630  20.289  0.00  0.00    +0.000 C 
ATOM      7  C   UNL     1       9.163  14.549  19.300  0.00  0.00    +0.000 A 
ATOM      8  C   UNL     1       8.374  14.406  18.176  0.00  0.00    +0.000 A 
ATOM      9  N   UNL     1       8.854  13.351  17.453  0.00  0.00    +0.000 N 
ATOM     10  C   UNL     1       9.932  12.791  18.107  0.00  0.00    +0.000 A 
ATOM     11  C   UNL     1      10.729  11.697  17.751  0.00  0.00    +0.000 A 
ATOM     12  C   UNL     1      11.766  11.344  18.619  0.00  0.00    +0.000 A 
ATOM     13  C   UNL     1      11.997  12.058  19.793  0.00  0.00    +0.000 A 
ATOM     14  C   UNL     1      11.194  13.152  20.134  0.00  0.00    +0.000 A 
ATOM     15  C   UNL     1      10.143  13.526  19.276  0.00  0.00    +0.000 A 
ATOM     16  C   UNL     1       7.220  15.255  17.784  0.00  0.00    +0.000 C 
ATOM     17  H   UNL     1       4.753  15.155  18.469  0.00  0.00    +0.000 HD
ATOM     18  H   UNL     1       8.487  13.019  16.572  0.00  0.00    +0.000 HD
ENDROOT
BRANCH   3  19
ATOM     19  C   UNL     1       3.287  16.593  18.456  0.00  0.00    +0.000 A 
ATOM     20  C   UNL     1       2.390  16.417  19.510  0.00  0.00    +0.000 A 
ATOM     21  C   UNL     1       1.061  16.831  19.384  0.00  0.00    +0.000 A 
ATOM     22  C   UNL     1       0.636  17.437  18.207  0.00  0.00    +0.000 A 
ATOM     23 BR   UNL     1      -1.165  17.978  18.031  0.00  0.00    +0.000 Br
ATOM     24  C   UNL     1       1.527  17.645  17.158  0.00  0.00    +0.000 A 
ATOM     25  C   UNL     1       2.856  17.229  17.286  0.00  0.00    +0.000 A 
ENDBRANCH   3  19
TORSDOF 1
ENDMDL
MODEL 7
REMARK VINA RESULT:      -7.1      7.434      8.535
REMARK  Name = 
REMARK  1 active torsions:
REMARK  status: ('A' for Active; 'I' for Inactive)
REMARK    1  A    between atoms: N_3  and  C_4
REMARK                            x       y       z     vdW  Elec       q    Type
REMARK                         _______ _______ _______ _____ _____    ______ ____
ROOT
ATOM      1  O   UNL     1       8.566   7.539  16.490  0.00  0.00    +0.000 OA
ATOM      2  C   UNL     1       7.532   7.694  17.133  0.00  0.00    +0.000 C 
ATOM      3  N   UNL     1       7.297   8.736  18.004  0.00  0.00    +0.000 N 
ATOM      4  N   UNL     1       6.505   6.759  17.091  0.00  0.00    +0.000 N 
ATOM      5  C   UNL     1       6.780   5.489  16.387  0.00  0.00    +0.000 C 
ATOM      6  C   UNL     1       6.172   4.290  17.137  0.00  0.00    +0.000 C 
ATOM      7  C   UNL     1       4.761   4.598  17.494  0.00  0.00    +0.000 A 
ATOM      8  C   UNL     1       4.305   5.900  17.537  0.00  0.00    +0.000 A 
ATOM      9  N   UNL     1       2.981   5.874  17.875  0.00  0.00    +0.000 N 
ATOM     10  C   UNL     1       2.577   4.571  18.077  0.00  0.00    +0.000 A 
ATOM     11  C   UNL     1       1.326   4.065  18.442  0.00  0.00    +0.000 A 
ATOM     12  C   UNL     1       1.204   2.679  18.581  0.00  0.00    +0.000 A 
ATOM     13  C   UNL     1       2.291   1.835  18.360  0.00  0.00    +0.000 A 
ATOM     14  C   UNL     1       3.536   2.356  17.992  0.00  0.00    +0.000 A 
ATOM     15  C   UNL     1       3.684   3.748  17.847  0.00  0.00    +0.000 A 
ATOM     16  C   UNL     1       5.087   7.128  17.242  0.00  0.00    +0.000 C 
ATOM     17  H   UNL     1       6.628   8.534  18.729  0.00  0.00    +0.000 HD
ATOM     18  H   UNL     1       2.376   6.678  17.968  0.00  0.00    +0.000 HD
ENDROOT
BRANCH   3  19
ATOM     19  C   UNL     1       8.154   9.825  18.255  0.00  0.00    +0.000 A 
ATOM     20  C   UNL     1       8.122  11.011  17.520  0.00  0.00    +0.000 A 
ATOM     21  C   UNL     1       9.037  12.033  17.788  0.00  0.00    +0.000 A 
ATOM     22  C   UNL     1       9.973  11.873  18.803  0.00  0.00    +0.000 A 
ATOM     23 BR   UNL     1      11.221  13.248  19.151  0.00  0.00    +0.000 Br
ATOM     24  C   UNL     1       9.998  10.707  19.564  0.00  0.00    +0.000 A 
ATOM     25  C   UNL     1       9.082   9.686  19.293  0.00  0.00    +0.000 A 
ENDBRANCH   3  19
TORSDOF 1
ENDMDL
MODEL 8
REMARK VINA RESULT:      -7.0      3.577      9.247
REMARK  Name = 
REMARK  1 active torsions:
REMARK  status: ('A' for Active; 'I' for Inactive)
REMARK    1  A    between atoms: N_3  and  C_4
REMARK                            x       y       z     vdW  Elec       q    Type
REMARK                         _______ _______ _______ _____ _____    ______ ____
ROOT
ATOM      1  O   UNL     1       1.459  12.085  21.205  0.00  0.00    +0.000 OA
ATOM      2  C   UNL     1       0.342  11.588  21.313  0.00  0.00    +0.000 C 
ATOM      3  N   UNL     1      -0.036  10.377  20.774  0.00  0.00    +0.000 N 
ATOM      4  N   UNL     1      -0.694  12.264  21.947  0.00  0.00    +0.000 N 
ATOM      5  C   UNL     1      -0.447  13.671  22.326  0.00  0.00    +0.000 C 
ATOM      6  C   UNL     1      -1.689  14.545  22.071  0.00  0.00    +0.000 C 
ATOM      7  C   UNL     1      -2.889  13.870  22.636  0.00  0.00    +0.000 A 
ATOM      8  C   UNL     1      -2.888  12.515  22.896  0.00  0.00    +0.000 A 
ATOM      9  N   UNL     1      -4.107  12.183  23.418  0.00  0.00    +0.000 N 
ATOM     10  C   UNL     1      -4.908  13.304  23.478  0.00  0.00    +0.000 A 
ATOM     11  C   UNL     1      -6.225  13.444  23.929  0.00  0.00    +0.000 A 
ATOM     12  C   UNL     1      -6.797  14.718  23.868  0.00  0.00    +0.000 A 
ATOM     13  C   UNL     1      -6.079  15.807  23.380  0.00  0.00    +0.000 A 
ATOM     14  C   UNL     1      -4.762  15.653  22.936  0.00  0.00    +0.000 A 
ATOM     15  C   UNL     1      -4.164  14.380  22.986  0.00  0.00    +0.000 A 
ATOM     16  C   UNL     1      -1.764  11.568  22.682  0.00  0.00    +0.000 C 
ATOM     17  H   UNL     1      -1.022  10.288  20.591  0.00  0.00    +0.000 HD
ATOM     18  H   UNL     1      -4.393  11.262  23.720  0.00  0.00    +0.000 HD
ENDROOT
BRANCH   3  19
ATOM     19  C   UNL     1       0.794   9.479  20.076  0.00  0.00    +0.000 A 
ATOM     20  C   UNL     1       1.131   9.633  18.730  0.00  0.00    +0.000 A 
ATOM     21  C   UNL     1       1.917   8.675  18.084  0.00  0.00    +0.000 A 
ATOM     22  C   UNL     1       2.378   7.570  18.790  0.00  0.00    +0.000 A 
ATOM     23 BR   UNL     1       3.424   6.267  17.909  0.00  0.00    +0.000 Br
ATOM     24  C   UNL     1       2.074   7.417  20.140  0.00  0.00    +0.000 A 
ATOM     25  C   UNL     1       1.287   8.377  20.784  0.00  0.00    +0.000 A 
ENDBRANCH   3  19
TORSDOF 1
ENDMDL
MODEL 9
REMARK VINA RESULT:      -6.9      3.285      4.171
REMARK  Name = 
REMARK  1 active torsions:
REMARK  status: ('A' for Active; 'I' for Inactive)
REMARK    1  A    between atoms: N_3  and  C_4
REMARK                            x       y       z     vdW  Elec       q    Type
REMARK                         _______ _______ _______ _____ _____    ______ ____
ROOT
ATOM      1  O   UNL     1      -1.032  10.497  20.501  0.00  0.00    +0.000 OA
ATOM      2  C   UNL     1      -0.644  10.055  19.424  0.00  0.00    +0.000 C 
ATOM      3  N   UNL     1      -1.337  10.157  18.237  0.00  0.00    +0.000 N 
ATOM      4  N   UNL     1       0.533   9.323  19.322  0.00  0.00    +0.000 N 
ATOM      5  C   UNL     1       1.202   8.947  20.584  0.00  0.00    +0.000 C 
ATOM      6  C   UNL     1       1.763   7.515  20.516  0.00  0.00    +0.000 C 
ATOM      7  C   UNL     1       2.520   7.344  19.246  0.00  0.00    +0.000 A 
ATOM      8  C   UNL     1       2.315   8.189  18.174  0.00  0.00    +0.000 A 
ATOM      9  N   UNL     1       3.151   7.804  17.165  0.00  0.00    +0.000 N 
ATOM     10  C   UNL     1       3.882   6.703  17.560  0.00  0.00    +0.000 A 
ATOM     11  C   UNL     1       4.845   5.967  16.862  0.00  0.00    +0.000 A 
ATOM     12  C   UNL     1       5.428   4.879  17.519  0.00  0.00    +0.000 A 
ATOM     13  C   UNL     1       5.063   4.544  18.821  0.00  0.00    +0.000 A 
ATOM     14  C   UNL     1       4.100   5.292  19.507  0.00  0.00    +0.000 A 
ATOM     15  C   UNL     1       3.498   6.391  18.867  0.00  0.00    +0.000 A 
ATOM     16  C   UNL     1       1.377   9.340  18.115  0.00  0.00    +0.000 C 
ATOM     17  H   UNL     1      -1.123   9.441  17.563  0.00  0.00    +0.000 HD
ATOM     18  H   UNL     1       3.234   8.248  16.261  0.00  0.00    +0.000 HD
ENDROOT
BRANCH   3  19
ATOM     19  C   UNL     1      -2.556  10.834  18.037  0.00  0.00    +0.000 A 
ATOM     20  C   UNL     1      -3.075  11.763  18.940  0.00  0.00    +0.000 A 
ATOM     21  C   UNL     1      -4.317  12.359  18.705  0.00  0.00    +0.000 A 
ATOM     22  C   UNL     1      -5.031  12.036  17.557  0.00  0.00    +0.000 A 
ATOM     23 BR   UNL     1      -6.718  12.829  17.251  0.00  0.00    +0.000 Br
ATOM     24  C   UNL     1      -4.513  11.133  16.633  0.00  0.00    +0.000 A 
ATOM     25  C   UNL     1      -3.271  10.538  16.870  0.00  0.00    +0.000 A 
ENDBRANCH   3  19
TORSDOF 1
ENDMDL
