MODEL 1
REMARK VINA RESULT:      -7.3      0.000      0.000
REMARK  Name = 
REMARK  7 active torsions:
REMARK  status: ('A' for Active; 'I' for Inactive)
REMARK    1  A    between atoms: C_1  and  O_2
REMARK    2  A    between atoms: O_2  and  C_3
REMARK    3  A    between atoms: C_6  and  N_7
REMARK    4  A    between atoms: N_10  and  S_11
REMARK    5  A    between atoms: S_11  and  C_14
REMARK    6  A    between atoms: C_17  and  C_18
REMARK    7  A    between atoms: N_20  and  C_21
REMARK                            x       y       z     vdW  Elec       q    Type
REMARK                         _______ _______ _______ _____ _____    ______ ____
ROOT
ATOM      1  S   UNL     1       0.013  11.375  19.602  0.00  0.00    +0.000 S 
ATOM      2  O   UNL     1      -1.382  10.995  19.617  0.00  0.00    +0.000 OA
ATOM      3  O   UNL     1       0.497  12.363  18.671  0.00  0.00    +0.000 OA
ENDROOT
BRANCH   1   7
ATOM      4  N   UNL     1      -1.607  13.526  22.326  0.00  0.00    +0.000 N 
ATOM      5  C   UNL     1      -0.655  14.068  21.347  0.00  0.00    +0.000 C 
ATOM      6  C   UNL     1       0.658  13.292  21.432  0.00  0.00    +0.000 C 
ATOM      7  N   UNL     1       0.447  11.831  21.196  0.00  0.00    +0.000 NA
ATOM      8  C   UNL     1      -0.470  11.310  22.279  0.00  0.00    +0.000 C 
ATOM      9  C   UNL     1      -1.823  12.066  22.319  0.00  0.00    +0.000 C 
BRANCH   4  13
ATOM     10  C   UNL     1      -3.392  16.469  24.729  0.00  0.00    +0.000 A 
ATOM     11  C   UNL     1      -3.288  16.648  23.357  0.00  0.00    +0.000 A 
ATOM     12  C   UNL     1      -2.781  15.624  22.561  0.00  0.00    +0.000 A 
ATOM     13  C   UNL     1      -2.299  14.424  23.110  0.00  0.00    +0.000 A 
ATOM     14  C   UNL     1      -2.442  14.249  24.489  0.00  0.00    +0.000 A 
ATOM     15  C   UNL     1      -2.974  15.265  25.296  0.00  0.00    +0.000 A 
BRANCH  10  17
ATOM     16  C   UNL     1      -5.205  17.923  25.075  0.00  0.00    +0.000 C 
ATOM     17  O   UNL     1      -3.876  17.546  25.415  0.00  0.00    +0.000 OA
ENDBRANCH  10  17
ENDBRANCH   4  13
ENDBRANCH   1   7
BRANCH   1  18
ATOM     18  C   UNL     1       0.983   9.901  19.359  0.00  0.00    +0.000 A 
ATOM     19  C   UNL     1       1.523   9.653  18.097  0.00  0.00    +0.000 A 
ATOM     20  C   UNL     1       2.190   8.448  17.865  0.00  0.00    +0.000 A 
ATOM     21  C   UNL     1       2.357   7.497  18.890  0.00  0.00    +0.000 A 
ATOM     22  C   UNL     1       1.804   7.763  20.152  0.00  0.00    +0.000 A 
ATOM     23  C   UNL     1       1.111   8.958  20.387  0.00  0.00    +0.000 A 
BRANCH  21  24
ATOM     24  C   UNL     1       3.158   6.267  18.568  0.00  0.00    +0.000 C 
ATOM     25  O   UNL     1       2.715   5.161  18.866  0.00  0.00    +0.000 OA
ATOM     26  N   UNL     1       4.360   6.428  17.909  0.00  0.00    +0.000 N 
ATOM     27  H   UNL     1       4.760   7.344  17.792  0.00  0.00    +0.000 HD
BRANCH  26  28
ATOM     28  C   UNL     1       5.164   5.297  17.493  0.00  0.00    +0.000 C 
ATOM     29  C   UNL     1       5.308   5.231  15.975  0.00  0.00    +0.000 C 
ATOM     30  C   UNL     1       6.518   4.337  15.757  0.00  0.00    +0.000 C 
ATOM     31  C   UNL     1       7.411   4.539  16.981  0.00  0.00    +0.000 C 
ATOM     32  C   UNL     1       6.613   5.391  17.967  0.00  0.00    +0.000 C 
ENDBRANCH  26  28
ENDBRANCH  21  24
ENDBRANCH   1  18
TORSDOF 6
ENDMDL
MODEL 2
REMARK VINA RESULT:      -7.1      0.437      1.275
REMARK  Name = 
REMARK  7 active torsions:
REMARK  status: ('A' for Active; 'I' for Inactive)
REMARK    1  A    between atoms: C_1  and  O_2
REMARK    2  A    between atoms: O_2  and  C_3
REMARK    3  A    between atoms: C_6  and  N_7
REMARK    4  A    between atoms: N_10  and  S_11
REMARK    5  A    between atoms: S_11  and  C_14
REMARK    6  A    between atoms: C_17  and  C_18
REMARK    7  A    between atoms: N_20  and  C_21
REMARK                            x       y       z     vdW  Elec       q    Type
REMARK                         _______ _______ _______ _____ _____    ______ ____
ROOT
ATOM      1  S   UNL     1      -0.256  11.396  19.587  0.00  0.00    +0.000 S 
ATOM      2  O   UNL     1      -1.649  11.013  19.636  0.00  0.00    +0.000 OA
ATOM      3  O   UNL     1       0.193  12.429  18.687  0.00  0.00    +0.000 OA
ENDROOT
BRANCH   1   7
ATOM      4  N   UNL     1      -1.374  13.941  22.222  0.00  0.00    +0.000 N 
ATOM      5  C   UNL     1      -0.298  14.214  21.260  0.00  0.00    +0.000 C 
ATOM      6  C   UNL     1       0.789  13.149  21.397  0.00  0.00    +0.000 C 
ATOM      7  N   UNL     1       0.239  11.775  21.184  0.00  0.00    +0.000 NA
ATOM      8  C   UNL     1      -0.802  11.517  22.249  0.00  0.00    +0.000 C 
ATOM      9  C   UNL     1      -1.934  12.575  22.237  0.00  0.00    +0.000 C 
BRANCH   4  13
ATOM     10  C   UNL     1      -3.090  16.920  24.630  0.00  0.00    +0.000 A 
ATOM     11  C   UNL     1      -2.192  16.010  25.169  0.00  0.00    +0.000 A 
ATOM     12  C   UNL     1      -1.558  15.088  24.340  0.00  0.00    +0.000 A 
ATOM     13  C   UNL     1      -1.849  14.998  22.968  0.00  0.00    +0.000 A 
ATOM     14  C   UNL     1      -2.730  15.943  22.438  0.00  0.00    +0.000 A 
ATOM     15  C   UNL     1      -3.355  16.892  23.261  0.00  0.00    +0.000 A 
BRANCH  10  17
ATOM     16  C   UNL     1      -5.079  17.914  25.391  0.00  0.00    +0.000 C 
ATOM     17  O   UNL     1      -3.673  17.760  25.536  0.00  0.00    +0.000 OA
ENDBRANCH  10  17
ENDBRANCH   4  13
ENDBRANCH   1   7
BRANCH   1  18
ATOM     18  C   UNL     1       0.705   9.937  19.236  0.00  0.00    +0.000 A 
ATOM     19  C   UNL     1       0.959   9.036  20.270  0.00  0.00    +0.000 A 
ATOM     20  C   UNL     1       1.803   7.949  20.035  0.00  0.00    +0.000 A 
ATOM     21  C   UNL     1       2.372   7.726  18.766  0.00  0.00    +0.000 A 
ATOM     22  C   UNL     1       2.107   8.646  17.738  0.00  0.00    +0.000 A 
ATOM     23  C   UNL     1       1.282   9.754  17.973  0.00  0.00    +0.000 A 
BRANCH  21  24
ATOM     24  C   UNL     1       3.201   6.487  18.587  0.00  0.00    +0.000 C 
ATOM     25  O   UNL     1       2.894   5.460  19.189  0.00  0.00    +0.000 OA
ATOM     26  N   UNL     1       4.270   6.539  17.715  0.00  0.00    +0.000 N 
ATOM     27  H   UNL     1       4.577   7.419  17.336  0.00  0.00    +0.000 HD
BRANCH  26  28
ATOM     28  C   UNL     1       5.080   5.374  17.424  0.00  0.00    +0.000 C 
ATOM     29  C   UNL     1       5.310   5.203  15.925  0.00  0.00    +0.000 C 
ATOM     30  C   UNL     1       6.518   4.284  15.838  0.00  0.00    +0.000 C 
ATOM     31  C   UNL     1       7.342   4.560  17.095  0.00  0.00    +0.000 C 
ATOM     32  C   UNL     1       6.502   5.486  17.973  0.00  0.00    +0.000 C 
ENDBRANCH  26  28
ENDBRANCH  21  24
ENDBRANCH   1  18
TORSDOF 6
ENDMDL
MODEL 3
REMARK VINA RESULT:      -6.9      1.227      1.464
REMARK  Name = 
REMARK  7 active torsions:
REMARK  status: ('A' for Active; 'I' for Inactive)
REMARK    1  A    between atoms: C_1  and  O_2
REMARK    2  A    between atoms: O_2  and  C_3
REMARK    3  A    between atoms: C_6  and  N_7
REMARK    4  A    between atoms: N_10  and  S_11
REMARK    5  A    between atoms: S_11  and  C_14
REMARK    6  A    between atoms: C_17  and  C_18
REMARK    7  A    between atoms: N_20  and  C_21
REMARK                            x       y       z     vdW  Elec       q    Type
REMARK                         _______ _______ _______ _____ _____    ______ ____
ROOT
ATOM      1  S   UNL     1       0.623  11.818  19.941  0.00  0.00    +0.000 S 
ATOM      2  O   UNL     1       0.342  12.580  18.745  0.00  0.00    +0.000 OA
ATOM      3  O   UNL     1       1.448  12.368  20.987  0.00  0.00    +0.000 OA
ENDROOT
BRANCH   1   7
ATOM      4  N   UNL     1      -2.303  13.592  21.661  0.00  0.00    +0.000 N 
ATOM      5  C   UNL     1      -1.178  13.011  22.406  0.00  0.00    +0.000 C 
ATOM      6  C   UNL     1      -1.058  11.526  22.069  0.00  0.00    +0.000 C 
ATOM      7  N   UNL     1      -0.876  11.310  20.601  0.00  0.00    +0.000 NA
ATOM      8  C   UNL     1      -2.097  11.849  19.893  0.00  0.00    +0.000 C 
ATOM      9  C   UNL     1      -2.347  13.347  20.207  0.00  0.00    +0.000 C 
BRANCH   4  13
ATOM     10  C   UNL     1      -4.756  15.989  24.082  0.00  0.00    +0.000 A 
ATOM     11  C   UNL     1      -3.581  16.498  23.546  0.00  0.00    +0.000 A 
ATOM     12  C   UNL     1      -2.827  15.724  22.669  0.00  0.00    +0.000 A 
ATOM     13  C   UNL     1      -3.179  14.401  22.353  0.00  0.00    +0.000 A 
ATOM     14  C   UNL     1      -4.381  13.917  22.876  0.00  0.00    +0.000 A 
ATOM     15  C   UNL     1      -5.160  14.698  23.742  0.00  0.00    +0.000 A 
BRANCH  10  17
ATOM     16  C   UNL     1      -5.318  18.204  24.628  0.00  0.00    +0.000 C 
ATOM     17  O   UNL     1      -5.401  16.822  24.951  0.00  0.00    +0.000 OA
ENDBRANCH  10  17
ENDBRANCH   4  13
ENDBRANCH   1   7
BRANCH   1  18
ATOM     18  C   UNL     1       1.357  10.270  19.449  0.00  0.00    +0.000 A 
ATOM     19  C   UNL     1       1.871  10.151  18.159  0.00  0.00    +0.000 A 
ATOM     20  C   UNL     1       2.345   8.911  17.725  0.00  0.00    +0.000 A 
ATOM     21  C   UNL     1       2.348   7.791  18.579  0.00  0.00    +0.000 A 
ATOM     22  C   UNL     1       1.824   7.930  19.874  0.00  0.00    +0.000 A 
ATOM     23  C   UNL     1       1.322   9.164  20.308  0.00  0.00    +0.000 A 
BRANCH  21  24
ATOM     24  C   UNL     1       2.953   6.521  18.052  0.00  0.00    +0.000 C 
ATOM     25  O   UNL     1       2.266   5.505  17.985  0.00  0.00    +0.000 OA
ATOM     26  N   UNL     1       4.265   6.554  17.624  0.00  0.00    +0.000 N 
ATOM     27  H   UNL     1       4.842   7.358  17.808  0.00  0.00    +0.000 HD
BRANCH  26  28
ATOM     28  C   UNL     1       4.909   5.399  17.033  0.00  0.00    +0.000 C 
ATOM     29  C   UNL     1       5.178   5.599  15.544  0.00  0.00    +0.000 C 
ATOM     30  C   UNL     1       6.242   4.562  15.218  0.00  0.00    +0.000 C 
ATOM     31  C   UNL     1       7.040   4.365  16.507  0.00  0.00    +0.000 C 
ATOM     32  C   UNL     1       6.305   5.143  17.598  0.00  0.00    +0.000 C 
ENDBRANCH  26  28
ENDBRANCH  21  24
ENDBRANCH   1  18
TORSDOF 6
ENDMDL
MODEL 4
REMARK VINA RESULT:      -6.8      0.791      1.232
REMARK  Name = 
REMARK  7 active torsions:
REMARK  status: ('A' for Active; 'I' for Inactive)
REMARK    1  A    between atoms: C_1  and  O_2
REMARK    2  A    between atoms: O_2  and  C_3
REMARK    3  A    between atoms: C_6  and  N_7
REMARK    4  A    between atoms: N_10  and  S_11
REMARK    5  A    between atoms: S_11  and  C_14
REMARK    6  A    between atoms: C_17  and  C_18
REMARK    7  A    between atoms: N_20  and  C_21
REMARK                            x       y       z     vdW  Elec       q    Type
REMARK                         _______ _______ _______ _____ _____    ______ ____
ROOT
ATOM      1  S   UNL     1      -0.202  11.358  19.533  0.00  0.00    +0.000 S 
ATOM      2  O   UNL     1      -1.577  10.953  19.719  0.00  0.00    +0.000 OA
ATOM      3  O   UNL     1       0.147  12.347  18.544  0.00  0.00    +0.000 OA
ENDROOT
BRANCH   1   7
ATOM      4  N   UNL     1      -1.314  13.839  22.231  0.00  0.00    +0.000 N 
ATOM      5  C   UNL     1      -0.384  14.202  21.153  0.00  0.00    +0.000 C 
ATOM      6  C   UNL     1       0.825  13.267  21.189  0.00  0.00    +0.000 C 
ATOM      7  N   UNL     1       0.414  11.836  21.060  0.00  0.00    +0.000 NA
ATOM      8  C   UNL     1      -0.472  11.495  22.237  0.00  0.00    +0.000 C 
ATOM      9  C   UNL     1      -1.711  12.422  22.330  0.00  0.00    +0.000 C 
BRANCH   4  13
ATOM     10  C   UNL     1      -2.503  17.074  24.627  0.00  0.00    +0.000 A 
ATOM     11  C   UNL     1      -2.297  17.245  23.265  0.00  0.00    +0.000 A 
ATOM     12  C   UNL     1      -1.996  16.145  22.467  0.00  0.00    +0.000 A 
ATOM     13  C   UNL     1      -1.823  14.859  23.006  0.00  0.00    +0.000 A 
ATOM     14  C   UNL     1      -2.067  14.701  24.373  0.00  0.00    +0.000 A 
ATOM     15  C   UNL     1      -2.394  15.799  25.181  0.00  0.00    +0.000 A 
BRANCH  10  17
ATOM     16  C   UNL     1      -1.737  18.630  26.213  0.00  0.00    +0.000 C 
ATOM     17  O   UNL     1      -2.765  18.223  25.318  0.00  0.00    +0.000 OA
ENDBRANCH  10  17
ENDBRANCH   4  13
ENDBRANCH   1   7
BRANCH   1  18
ATOM     18  C   UNL     1       0.761   9.900  19.183  0.00  0.00    +0.000 A 
ATOM     19  C   UNL     1       0.951   8.962  20.197  0.00  0.00    +0.000 A 
ATOM     20  C   UNL     1       1.795   7.873  19.970  0.00  0.00    +0.000 A 
ATOM     21  C   UNL     1       2.427   7.686  18.725  0.00  0.00    +0.000 A 
ATOM     22  C   UNL     1       2.225   8.642  17.717  0.00  0.00    +0.000 A 
ATOM     23  C   UNL     1       1.400   9.752  17.946  0.00  0.00    +0.000 A 
BRANCH  21  24
ATOM     24  C   UNL     1       3.251   6.443  18.548  0.00  0.00    +0.000 C 
ATOM     25  O   UNL     1       2.906   5.403  19.104  0.00  0.00    +0.000 OA
ATOM     26  N   UNL     1       4.359   6.509  17.727  0.00  0.00    +0.000 N 
ATOM     27  H   UNL     1       4.692   7.396  17.390  0.00  0.00    +0.000 HD
BRANCH  26  28
ATOM     28  C   UNL     1       5.171   5.344  17.439  0.00  0.00    +0.000 C 
ATOM     29  C   UNL     1       4.824   4.732  16.085  0.00  0.00    +0.000 C 
ATOM     30  C   UNL     1       6.035   3.879  15.743  0.00  0.00    +0.000 C 
ATOM     31  C   UNL     1       7.227   4.560  16.417  0.00  0.00    +0.000 C 
ATOM     32  C   UNL     1       6.655   5.676  17.290  0.00  0.00    +0.000 C 
ENDBRANCH  26  28
ENDBRANCH  21  24
ENDBRANCH   1  18
TORSDOF 6
ENDMDL
MODEL 5
REMARK VINA RESULT:      -6.8      2.464      3.063
REMARK  Name = 
REMARK  7 active torsions:
REMARK  status: ('A' for Active; 'I' for Inactive)
REMARK    1  A    between atoms: C_1  and  O_2
REMARK    2  A    between atoms: O_2  and  C_3
REMARK    3  A    between atoms: C_6  and  N_7
REMARK    4  A    between atoms: N_10  and  S_11
REMARK    5  A    between atoms: S_11  and  C_14
REMARK    6  A    between atoms: C_17  and  C_18
REMARK    7  A    between atoms: N_20  and  C_21
REMARK                            x       y       z     vdW  Elec       q    Type
REMARK                         _______ _______ _______ _____ _____    ______ ____
ROOT
ATOM      1  S   UNL     1       0.758   9.232  21.030  0.00  0.00    +0.000 S 
ATOM      2  O   UNL     1       1.597   9.536  22.167  0.00  0.00    +0.000 OA
ATOM      3  O   UNL     1      -0.577   8.723  21.215  0.00  0.00    +0.000 OA
ENDROOT
BRANCH   1   7
ATOM      4  N   UNL     1      -1.389  12.402  20.940  0.00  0.00    +0.000 N 
ATOM      5  C   UNL     1      -1.723  11.195  20.173  0.00  0.00    +0.000 C 
ATOM      6  C   UNL     1      -0.554  10.836  19.257  0.00  0.00    +0.000 C 
ATOM      7  N   UNL     1       0.705  10.626  20.033  0.00  0.00    +0.000 NA
ATOM      8  C   UNL     1       1.046  11.921  20.733  0.00  0.00    +0.000 C 
ATOM      9  C   UNL     1      -0.099  12.411  21.656  0.00  0.00    +0.000 C 
BRANCH   4  13
ATOM     10  C   UNL     1      -4.315  15.408  20.789  0.00  0.00    +0.000 A 
ATOM     11  C   UNL     1      -4.678  14.069  20.747  0.00  0.00    +0.000 A 
ATOM     12  C   UNL     1      -3.706  13.083  20.894  0.00  0.00    +0.000 A 
ATOM     13  C   UNL     1      -2.342  13.395  21.017  0.00  0.00    +0.000 A 
ATOM     14  C   UNL     1      -2.000  14.748  21.089  0.00  0.00    +0.000 A 
ATOM     15  C   UNL     1      -2.975  15.749  20.966  0.00  0.00    +0.000 A 
BRANCH  10  17
ATOM     16  C   UNL     1      -6.589  15.694  20.268  0.00  0.00    +0.000 C 
ATOM     17  O   UNL     1      -5.343  16.289  20.607  0.00  0.00    +0.000 OA
ENDBRANCH  10  17
ENDBRANCH   4  13
ENDBRANCH   1   7
BRANCH   1  18
ATOM     18  C   UNL     1       1.628   8.069  19.998  0.00  0.00    +0.000 A 
ATOM     19  C   UNL     1       1.844   6.777  20.477  0.00  0.00    +0.000 A 
ATOM     20  C   UNL     1       2.621   5.892  19.726  0.00  0.00    +0.000 A 
ATOM     21  C   UNL     1       3.158   6.268  18.480  0.00  0.00    +0.000 A 
ATOM     22  C   UNL     1       2.932   7.574  18.016  0.00  0.00    +0.000 A 
ATOM     23  C   UNL     1       2.176   8.476  18.775  0.00  0.00    +0.000 A 
BRANCH  21  24
ATOM     24  C   UNL     1       3.912   5.223  17.708  0.00  0.00    +0.000 C 
ATOM     25  O   UNL     1       3.643   4.036  17.874  0.00  0.00    +0.000 OA
ATOM     26  N   UNL     1       4.866   5.644  16.803  0.00  0.00    +0.000 N 
ATOM     27  H   UNL     1       5.157   6.607  16.780  0.00  0.00    +0.000 HD
BRANCH  26  28
ATOM     28  C   UNL     1       5.590   4.713  15.963  0.00  0.00    +0.000 C 
ATOM     29  C   UNL     1       4.912   4.527  14.608  0.00  0.00    +0.000 C 
ATOM     30  C   UNL     1       6.005   3.946  13.724  0.00  0.00    +0.000 C 
ATOM     31  C   UNL     1       7.321   4.491  14.278  0.00  0.00    +0.000 C 
ATOM     32  C   UNL     1       6.981   5.216  15.579  0.00  0.00    +0.000 C 
ENDBRANCH  26  28
ENDBRANCH  21  24
ENDBRANCH   1  18
TORSDOF 6
ENDMDL
MODEL 6
REMARK VINA RESULT:      -6.8      2.049      2.835
REMARK  Name = 
REMARK  7 active torsions:
REMARK  status: ('A' for Active; 'I' for Inactive)
REMARK    1  A    between atoms: C_1  and  O_2
REMARK    2  A    between atoms: O_2  and  C_3
REMARK    3  A    between atoms: C_6  and  N_7
REMARK    4  A    between atoms: N_10  and  S_11
REMARK    5  A    between atoms: S_11  and  C_14
REMARK    6  A    between atoms: C_17  and  C_18
REMARK    7  A    between atoms: N_20  and  C_21
REMARK                            x       y       z     vdW  Elec       q    Type
REMARK                         _______ _______ _______ _____ _____    ______ ____
ROOT
ATOM      1  S   UNL     1       0.647   9.080  21.076  0.00  0.00    +0.000 S 
ATOM      2  O   UNL     1       1.504   9.753  22.027  0.00  0.00    +0.000 OA
ATOM      3  O   UNL     1      -0.559   8.421  21.510  0.00  0.00    +0.000 OA
ENDROOT
BRANCH   1   7
ATOM      4  N   UNL     1      -0.250  12.803  20.973  0.00  0.00    +0.000 N 
ATOM      5  C   UNL     1      -1.264  11.743  21.052  0.00  0.00    +0.000 C 
ATOM      6  C   UNL     1      -1.099  10.792  19.867  0.00  0.00    +0.000 C 
ATOM      7  N   UNL     1       0.271  10.197  19.830  0.00  0.00    +0.000 NA
ATOM      8  C   UNL     1       1.267  11.322  19.664  0.00  0.00    +0.000 C 
ATOM      9  C   UNL     1       1.153  12.381  20.790  0.00  0.00    +0.000 C 
BRANCH   4  13
ATOM     10  C   UNL     1      -1.857  16.615  21.679  0.00  0.00    +0.000 A 
ATOM     11  C   UNL     1      -1.373  15.849  22.730  0.00  0.00    +0.000 A 
ATOM     12  C   UNL     1      -0.756  14.628  22.471  0.00  0.00    +0.000 A 
ATOM     13  C   UNL     1      -0.665  14.102  21.172  0.00  0.00    +0.000 A 
ATOM     14  C   UNL     1      -1.129  14.901  20.124  0.00  0.00    +0.000 A 
ATOM     15  C   UNL     1      -1.730  16.143  20.374  0.00  0.00    +0.000 A 
BRANCH  10  17
ATOM     16  C   UNL     1      -2.197  18.201  23.380  0.00  0.00    +0.000 C 
ATOM     17  O   UNL     1      -2.467  17.780  22.049  0.00  0.00    +0.000 OA
ENDBRANCH  10  17
ENDBRANCH   4  13
ENDBRANCH   1   7
BRANCH   1  18
ATOM     18  C   UNL     1       1.627   7.871  20.209  0.00  0.00    +0.000 A 
ATOM     19  C   UNL     1       2.148   8.200  18.958  0.00  0.00    +0.000 A 
ATOM     20  C   UNL     1       2.821   7.224  18.221  0.00  0.00    +0.000 A 
ATOM     21  C   UNL     1       3.016   5.926  18.733  0.00  0.00    +0.000 A 
ATOM     22  C   UNL     1       2.483   5.613  19.993  0.00  0.00    +0.000 A 
ATOM     23  C   UNL     1       1.783   6.580  20.729  0.00  0.00    +0.000 A 
BRANCH  21  24
ATOM     24  C   UNL     1       3.822   4.969  17.903  0.00  0.00    +0.000 C 
ATOM     25  O   UNL     1       3.634   3.760  18.019  0.00  0.00    +0.000 OA
ATOM     26  N   UNL     1       4.731   5.492  17.005  0.00  0.00    +0.000 N 
ATOM     27  H   UNL     1       4.958   6.472  17.021  0.00  0.00    +0.000 HD
BRANCH  26  28
ATOM     28  C   UNL     1       5.499   4.649  16.112  0.00  0.00    +0.000 C 
ATOM     29  C   UNL     1       4.877   4.583  14.719  0.00  0.00    +0.000 C 
ATOM     30  C   UNL     1       6.011   4.096  13.831  0.00  0.00    +0.000 C 
ATOM     31  C   UNL     1       7.298   4.600  14.484  0.00  0.00    +0.000 C 
ATOM     32  C   UNL     1       6.897   5.197  15.832  0.00  0.00    +0.000 C 
ENDBRANCH  26  28
ENDBRANCH  21  24
ENDBRANCH   1  18
TORSDOF 6
ENDMDL
MODEL 7
REMARK VINA RESULT:      -6.8      2.796      3.457
REMARK  Name = 
REMARK  7 active torsions:
REMARK  status: ('A' for Active; 'I' for Inactive)
REMARK    1  A    between atoms: C_1  and  O_2
REMARK    2  A    between atoms: O_2  and  C_3
REMARK    3  A    between atoms: C_6  and  N_7
REMARK    4  A    between atoms: N_10  and  S_11
REMARK    5  A    between atoms: S_11  and  C_14
REMARK    6  A    between atoms: C_17  and  C_18
REMARK    7  A    between atoms: N_20  and  C_21
REMARK                            x       y       z     vdW  Elec       q    Type
REMARK                         _______ _______ _______ _____ _____    ______ ____
ROOT
ATOM      1  S   UNL     1       1.141  12.034  19.826  0.00  0.00    +0.000 S 
ATOM      2  O   UNL     1       2.141  12.854  19.179  0.00  0.00    +0.000 OA
ATOM      3  O   UNL     1       0.950  12.093  21.253  0.00  0.00    +0.000 OA
ENDROOT
BRANCH   1   7
ATOM      4  N   UNL     1      -2.428  12.776  21.002  0.00  0.00    +0.000 N 
ATOM      5  C   UNL     1      -1.945  11.413  20.741  0.00  0.00    +0.000 C 
ATOM      6  C   UNL     1      -1.439  11.320  19.302  0.00  0.00    +0.000 C 
ATOM      7  N   UNL     1      -0.355  12.315  19.037  0.00  0.00    +0.000 NA
ATOM      8  C   UNL     1      -0.930  13.698  19.239  0.00  0.00    +0.000 C 
ATOM      9  C   UNL     1      -1.523  13.889  20.659  0.00  0.00    +0.000 C 
BRANCH   4  13
ATOM     10  C   UNL     1      -6.093  12.826  23.047  0.00  0.00    +0.000 A 
ATOM     11  C   UNL     1      -4.903  13.032  23.730  0.00  0.00    +0.000 A 
ATOM     12  C   UNL     1      -3.704  13.107  23.026  0.00  0.00    +0.000 A 
ATOM     13  C   UNL     1      -3.644  12.912  21.636  0.00  0.00    +0.000 A 
ATOM     14  C   UNL     1      -4.856  12.739  20.962  0.00  0.00    +0.000 A 
ATOM     15  C   UNL     1      -6.071  12.685  21.660  0.00  0.00    +0.000 A 
BRANCH  10  17
ATOM     16  C   UNL     1      -7.732  13.991  24.264  0.00  0.00    +0.000 C 
ATOM     17  O   UNL     1      -7.204  12.741  23.838  0.00  0.00    +0.000 OA
ENDBRANCH  10  17
ENDBRANCH   4  13
ENDBRANCH   1   7
BRANCH   1  18
ATOM     18  C   UNL     1       1.468  10.333  19.408  0.00  0.00    +0.000 A 
ATOM     19  C   UNL     1       1.344   9.362  20.401  0.00  0.00    +0.000 A 
ATOM     20  C   UNL     1       1.706   8.044  20.115  0.00  0.00    +0.000 A 
ATOM     21  C   UNL     1       2.158   7.672  18.834  0.00  0.00    +0.000 A 
ATOM     22  C   UNL     1       2.279   8.664  17.848  0.00  0.00    +0.000 A 
ATOM     23  C   UNL     1       1.942   9.994  18.134  0.00  0.00    +0.000 A 
BRANCH  21  24
ATOM     24  C   UNL     1       2.447   6.217  18.598  0.00  0.00    +0.000 C 
ATOM     25  O   UNL     1       3.145   5.885  17.643  0.00  0.00    +0.000 OA
ATOM     26  N   UNL     1       1.939   5.299  19.496  0.00  0.00    +0.000 N 
ATOM     27  H   UNL     1       1.268   5.581  20.190  0.00  0.00    +0.000 HD
BRANCH  26  28
ATOM     28  C   UNL     1       2.226   3.883  19.390  0.00  0.00    +0.000 C 
ATOM     29  C   UNL     1       1.776   3.311  18.049  0.00  0.00    +0.000 C 
ATOM     30  C   UNL     1       2.559   2.014  17.918  0.00  0.00    +0.000 C 
ATOM     31  C   UNL     1       3.862   2.235  18.686  0.00  0.00    +0.000 C 
ATOM     32  C   UNL     1       3.723   3.577  19.403  0.00  0.00    +0.000 C 
ENDBRANCH  26  28
ENDBRANCH  21  24
ENDBRANCH   1  18
TORSDOF 6
ENDMDL
MODEL 8
REMARK VINA RESULT:      -6.7      4.673     11.676
REMARK  Name = 
REMARK  7 active torsions:
REMARK  status: ('A' for Active; 'I' for Inactive)
REMARK    1  A    between atoms: C_1  and  O_2
REMARK    2  A    between atoms: O_2  and  C_3
REMARK    3  A    between atoms: C_6  and  N_7
REMARK    4  A    between atoms: N_10  and  S_11
REMARK    5  A    between atoms: S_11  and  C_14
REMARK    6  A    between atoms: C_17  and  C_18
REMARK    7  A    between atoms: N_20  and  C_21
REMARK                            x       y       z     vdW  Elec       q    Type
REMARK                         _______ _______ _______ _____ _____    ______ ____
ROOT
ATOM      1  S   UNL     1       1.615   2.842  19.958  0.00  0.00    +0.000 S 
ATOM      2  O   UNL     1       0.868   2.166  18.920  0.00  0.00    +0.000 OA
ATOM      3  O   UNL     1       1.172   2.801  21.329  0.00  0.00    +0.000 OA
ENDROOT
BRANCH   1   7
ATOM      4  N   UNL     1       4.583   3.615  17.665  0.00  0.00    +0.000 N 
ATOM      5  C   UNL     1       3.650   2.509  17.411  0.00  0.00    +0.000 C 
ATOM      6  C   UNL     1       3.627   1.576  18.620  0.00  0.00    +0.000 C 
ATOM      7  N   UNL     1       3.240   2.305  19.866  0.00  0.00    +0.000 NA
ATOM      8  C   UNL     1       4.278   3.373  20.125  0.00  0.00    +0.000 C 
ATOM      9  C   UNL     1       4.424   4.353  18.933  0.00  0.00    +0.000 C 
BRANCH   4  13
ATOM     10  C   UNL     1       7.151   4.980  14.638  0.00  0.00    +0.000 A 
ATOM     11  C   UNL     1       7.477   5.164  15.974  0.00  0.00    +0.000 A 
ATOM     12  C   UNL     1       6.664   4.623  16.967  0.00  0.00    +0.000 A 
ATOM     13  C   UNL     1       5.472   3.945  16.664  0.00  0.00    +0.000 A 
ATOM     14  C   UNL     1       5.177   3.741  15.314  0.00  0.00    +0.000 A 
ATOM     15  C   UNL     1       6.002   4.263  14.306  0.00  0.00    +0.000 A 
BRANCH  10  17
ATOM     16  C   UNL     1       7.744   5.277  12.383  0.00  0.00    +0.000 C 
ATOM     17  O   UNL     1       8.001   5.576  13.750  0.00  0.00    +0.000 OA
ENDBRANCH  10  17
ENDBRANCH   4  13
ENDBRANCH   1   7
BRANCH   1  18
ATOM     18  C   UNL     1       1.763   4.558  19.503  0.00  0.00    +0.000 A 
ATOM     19  C   UNL     1       1.874   5.513  20.512  0.00  0.00    +0.000 A 
ATOM     20  C   UNL     1       1.877   6.868  20.172  0.00  0.00    +0.000 A 
ATOM     21  C   UNL     1       1.808   7.284  18.829  0.00  0.00    +0.000 A 
ATOM     22  C   UNL     1       1.694   6.308  17.826  0.00  0.00    +0.000 A 
ATOM     23  C   UNL     1       1.663   4.947  18.161  0.00  0.00    +0.000 A 
BRANCH  21  24
ATOM     24  C   UNL     1       1.900   8.758  18.556  0.00  0.00    +0.000 C 
ATOM     25  O   UNL     1       2.604   9.160  17.633  0.00  0.00    +0.000 OA
ATOM     26  N   UNL     1       1.151   9.613  19.340  0.00  0.00    +0.000 N 
ATOM     27  H   UNL     1       0.686   9.273  20.165  0.00  0.00    +0.000 HD
BRANCH  26  28
ATOM     28  C   UNL     1       1.119  11.041  19.103  0.00  0.00    +0.000 C 
ATOM     29  C   UNL     1      -0.233  11.498  18.563  0.00  0.00    +0.000 C 
ATOM     30  C   UNL     1      -0.254  12.994  18.832  0.00  0.00    +0.000 C 
ATOM     31  C   UNL     1       0.609  13.205  20.076  0.00  0.00    +0.000 C 
ATOM     32  C   UNL     1       1.265  11.860  20.385  0.00  0.00    +0.000 C 
ENDBRANCH  26  28
ENDBRANCH  21  24
ENDBRANCH   1  18
TORSDOF 6
ENDMDL
MODEL 9
REMARK VINA RESULT:      -6.7      1.966      2.525
REMARK  Name = 
REMARK  7 active torsions:
REMARK  status: ('A' for Active; 'I' for Inactive)
REMARK    1  A    between atoms: C_1  and  O_2
REMARK    2  A    between atoms: O_2  and  C_3
REMARK    3  A    between atoms: C_6  and  N_7
REMARK    4  A    between atoms: N_10  and  S_11
REMARK    5  A    between atoms: S_11  and  C_14
REMARK    6  A    between atoms: C_17  and  C_18
REMARK    7  A    between atoms: N_20  and  C_21
REMARK                            x       y       z     vdW  Elec       q    Type
REMARK                         _______ _______ _______ _____ _____    ______ ____
ROOT
ATOM      1  S   UNL     1       0.626  12.035  19.922  0.00  0.00    +0.000 S 
ATOM      2  O   UNL     1       0.237  12.680  18.688  0.00  0.00    +0.000 OA
ATOM      3  O   UNL     1       1.540  12.679  20.833  0.00  0.00    +0.000 OA
ENDROOT
BRANCH   1   7
ATOM      4  N   UNL     1      -2.072  13.977  21.825  0.00  0.00    +0.000 N 
ATOM      5  C   UNL     1      -0.888  13.411  22.484  0.00  0.00    +0.000 C 
ATOM      6  C   UNL     1      -0.832  11.906  22.224  0.00  0.00    +0.000 C 
ATOM      7  N   UNL     1      -0.806  11.604  20.760  0.00  0.00    +0.000 NA
ATOM      8  C   UNL     1      -2.083  12.133  20.150  0.00  0.00    +0.000 C 
ATOM      9  C   UNL     1      -2.270  13.652  20.399  0.00  0.00    +0.000 C 
BRANCH   4  13
ATOM     10  C   UNL     1      -4.584  16.315  24.241  0.00  0.00    +0.000 A 
ATOM     11  C   UNL     1      -3.330  15.930  24.694  0.00  0.00    +0.000 A 
ATOM     12  C   UNL     1      -2.470  15.236  23.847  0.00  0.00    +0.000 A 
ATOM     13  C   UNL     1      -2.856  14.846  22.554  0.00  0.00    +0.000 A 
ATOM     14  C   UNL     1      -4.108  15.270  22.104  0.00  0.00    +0.000 A 
ATOM     15  C   UNL     1      -4.972  15.990  22.942  0.00  0.00    +0.000 A 
BRANCH  10  17
ATOM     16  C   UNL     1      -4.857  18.234  25.571  0.00  0.00    +0.000 C 
ATOM     17  O   UNL     1      -5.355  16.966  25.163  0.00  0.00    +0.000 OA
ENDBRANCH  10  17
ENDBRANCH   4  13
ENDBRANCH   1   7
BRANCH   1  18
ATOM     18  C   UNL     1       1.316  10.443  19.520  0.00  0.00    +0.000 A 
ATOM     19  C   UNL     1       1.896  10.260  18.265  0.00  0.00    +0.000 A 
ATOM     20  C   UNL     1       2.338   8.988  17.896  0.00  0.00    +0.000 A 
ATOM     21  C   UNL     1       2.243   7.897  18.781  0.00  0.00    +0.000 A 
ATOM     22  C   UNL     1       1.654   8.100  20.039  0.00  0.00    +0.000 A 
ATOM     23  C   UNL     1       1.184   9.368  20.407  0.00  0.00    +0.000 A 
BRANCH  21  24
ATOM     24  C   UNL     1       2.819   6.586  18.327  0.00  0.00    +0.000 C 
ATOM     25  O   UNL     1       3.674   6.573  17.445  0.00  0.00    +0.000 OA
ATOM     26  N   UNL     1       2.385   5.434  18.951  0.00  0.00    +0.000 N 
ATOM     27  H   UNL     1       1.596   5.457  19.575  0.00  0.00    +0.000 HD
BRANCH  26  28
ATOM     28  C   UNL     1       2.937   4.133  18.631  0.00  0.00    +0.000 C 
ATOM     29  C   UNL     1       2.785   3.151  19.789  0.00  0.00    +0.000 C 
ATOM     30  C   UNL     1       2.951   1.786  19.142  0.00  0.00    +0.000 C 
ATOM     31  C   UNL     1       2.452   1.943  17.705  0.00  0.00    +0.000 C 
ATOM     32  C   UNL     1       2.191   3.434  17.495  0.00  0.00    +0.000 C 
ENDBRANCH  26  28
ENDBRANCH  21  24
ENDBRANCH   1  18
TORSDOF 6
ENDMDL
