MODEL 1
REMARK VINA RESULT:      -7.6      0.000      0.000
REMARK  Name = 
REMARK  5 active torsions:
REMARK  status: ('A' for Active; 'I' for Inactive)
REMARK    1  A    between atoms: C_1  and  N_2
REMARK    2  A    between atoms: N_2  and  C_3
REMARK    3  A    between atoms: N_2  and  C_4
REMARK    4  A    between atoms: C_4  and  C_5
REMARK    5  A    between atoms: C_5  and  C_6
REMARK                            x       y       z     vdW  Elec       q    Type
REMARK                         _______ _______ _______ _____ _____    ______ ____
ROOT
ATOM      1  C   UNL     1       3.230   7.132  17.953  0.00  0.00    +0.000 C 
ATOM      2  C   UNL     1       3.416   5.776  17.904  0.00  0.00    +0.000 C 
ATOM      3  C   UNL     1       2.644   4.803  18.822  0.00  0.00    +0.000 A 
ATOM      4  C   UNL     1       1.660   5.182  19.769  0.00  0.00    +0.000 A 
ATOM      5  C   UNL     1       0.978   4.289  20.608  0.00  0.00    +0.000 A 
ATOM      6  C   UNL     1       1.249   2.943  20.540  0.00  0.00    +0.000 A 
ATOM      7  C   UNL     1       2.200   2.515  19.629  0.00  0.00    +0.000 A 
ATOM      8  C   UNL     1       2.894   3.418  18.783  0.00  0.00    +0.000 A 
ATOM      9  S   UNL     1       4.072   2.610  17.741  0.00  0.00    +0.000 S 
ATOM     10  C   UNL     1       4.766   3.910  16.766  0.00  0.00    +0.000 A 
ATOM     11  C   UNL     1       5.708   3.452  15.814  0.00  0.00    +0.000 A 
ATOM     12  C   UNL     1       6.355   4.324  14.954  0.00  0.00    +0.000 A 
ATOM     13  C   UNL     1       6.059   5.670  15.031  0.00  0.00    +0.000 A 
ATOM     14  C   UNL     1       5.122   6.131  15.968  0.00  0.00    +0.000 A 
ATOM     15  C   UNL     1       4.446   5.275  16.878  0.00  0.00    +0.000 A 
ENDROOT
BRANCH   1  16
ATOM     16  C   UNL     1       2.248   7.921  18.763  0.00  0.00    +0.000 C 
BRANCH  16  17
ATOM     17  C   UNL     1       1.556   9.154  18.160  0.00  0.00    +0.000 C 
BRANCH  17  19
ATOM     18  C   UNL     1       0.946   9.225  20.506  0.00  0.00    +0.000 C 
ATOM     19  N   UNL     1       0.765   9.854  19.202  0.00  0.00    +0.000 NA
ATOM     20  C   UNL     1       1.075  11.285  19.290  0.00  0.00    +0.000 C 
ENDBRANCH  17  19
ENDBRANCH  16  17
ENDBRANCH   1  16
TORSDOF 3
ENDMDL
MODEL 2
REMARK VINA RESULT:      -7.4      0.801      4.415
REMARK  Name = 
REMARK  5 active torsions:
REMARK  status: ('A' for Active; 'I' for Inactive)
REMARK    1  A    between atoms: C_1  and  N_2
REMARK    2  A    between atoms: N_2  and  C_3
REMARK    3  A    between atoms: N_2  and  C_4
REMARK    4  A    between atoms: C_4  and  C_5
REMARK    5  A    between atoms: C_5  and  C_6
REMARK                            x       y       z     vdW  Elec       q    Type
REMARK                         _______ _______ _______ _____ _____    ______ ____
ROOT
ATOM      1  C   UNL     1       2.432   7.043  18.692  0.00  0.00    +0.000 C 
ATOM      2  C   UNL     1       2.972   5.821  18.393  0.00  0.00    +0.000 C 
ATOM      3  C   UNL     1       3.996   5.628  17.252  0.00  0.00    +0.000 A 
ATOM      4  C   UNL     1       4.504   6.663  16.428  0.00  0.00    +0.000 A 
ATOM      5  C   UNL     1       5.421   6.472  15.385  0.00  0.00    +0.000 A 
ATOM      6  C   UNL     1       5.888   5.209  15.106  0.00  0.00    +0.000 A 
ATOM      7  C   UNL     1       5.427   4.158  15.882  0.00  0.00    +0.000 A 
ATOM      8  C   UNL     1       4.496   4.351  16.935  0.00  0.00    +0.000 A 
ATOM      9  S   UNL     1       4.055   2.840  17.742  0.00  0.00    +0.000 S 
ATOM     10  C   UNL     1       2.940   3.330  19.022  0.00  0.00    +0.000 A 
ATOM     11  C   UNL     1       2.508   2.251  19.829  0.00  0.00    +0.000 A 
ATOM     12  C   UNL     1       1.635   2.439  20.888  0.00  0.00    +0.000 A 
ATOM     13  C   UNL     1       1.187   3.718  21.157  0.00  0.00    +0.000 A 
ATOM     14  C   UNL     1       1.616   4.793  20.365  0.00  0.00    +0.000 A 
ATOM     15  C   UNL     1       2.498   4.644  19.261  0.00  0.00    +0.000 A 
ENDROOT
BRANCH   1  16
ATOM     16  C   UNL     1       2.749   8.385  18.107  0.00  0.00    +0.000 C 
BRANCH  16  17
ATOM     17  C   UNL     1       1.619   9.363  17.748  0.00  0.00    +0.000 C 
BRANCH  17  19
ATOM     18  C   UNL     1       1.666  11.592  18.702  0.00  0.00    +0.000 C 
ATOM     19  N   UNL     1       1.280  10.202  18.923  0.00  0.00    +0.000 NA
ATOM     20  C   UNL     1      -0.140  10.130  19.287  0.00  0.00    +0.000 C 
ENDBRANCH  17  19
ENDBRANCH  16  17
ENDBRANCH   1  16
TORSDOF 3
ENDMDL
MODEL 3
REMARK VINA RESULT:      -7.2      1.054      1.407
REMARK  Name = 
REMARK  5 active torsions:
REMARK  status: ('A' for Active; 'I' for Inactive)
REMARK    1  A    between atoms: C_1  and  N_2
REMARK    2  A    between atoms: N_2  and  C_3
REMARK    3  A    between atoms: N_2  and  C_4
REMARK    4  A    between atoms: C_4  and  C_5
REMARK    5  A    between atoms: C_5  and  C_6
REMARK                            x       y       z     vdW  Elec       q    Type
REMARK                         _______ _______ _______ _____ _____    ______ ____
ROOT
ATOM      1  C   UNL     1       2.769   7.168  19.019  0.00  0.00    +0.000 C 
ATOM      2  C   UNL     1       3.051   5.881  18.648  0.00  0.00    +0.000 C 
ATOM      3  C   UNL     1       2.494   4.659  19.412  0.00  0.00    +0.000 A 
ATOM      4  C   UNL     1       1.627   4.723  20.532  0.00  0.00    +0.000 A 
ATOM      5  C   UNL     1       1.142   3.607  21.227  0.00  0.00    +0.000 A 
ATOM      6  C   UNL     1       1.505   2.341  20.828  0.00  0.00    +0.000 A 
ATOM      7  C   UNL     1       2.348   2.218  19.737  0.00  0.00    +0.000 A 
ATOM      8  C   UNL     1       2.843   3.348  19.036  0.00  0.00    +0.000 A 
ATOM      9  S   UNL     1       3.922   2.908  17.706  0.00  0.00    +0.000 S 
ATOM     10  C   UNL     1       4.368   4.450  16.967  0.00  0.00    +0.000 A 
ATOM     11  C   UNL     1       5.198   4.306  15.831  0.00  0.00    +0.000 A 
ATOM     12  C   UNL     1       5.648   5.403  15.115  0.00  0.00    +0.000 A 
ATOM     13  C   UNL     1       5.262   6.664  15.525  0.00  0.00    +0.000 A 
ATOM     14  C   UNL     1       4.433   6.815  16.647  0.00  0.00    +0.000 A 
ATOM     15  C   UNL     1       3.962   5.719  17.419  0.00  0.00    +0.000 A 
ENDROOT
BRANCH   1  16
ATOM     16  C   UNL     1       1.852   7.660  20.097  0.00  0.00    +0.000 C 
BRANCH  16  17
ATOM     17  C   UNL     1       1.102   8.991  19.932  0.00  0.00    +0.000 C 
BRANCH  17  19
ATOM     18  C   UNL     1       0.730  11.081  21.103  0.00  0.00    +0.000 C 
ATOM     19  N   UNL     1       0.926   9.643  21.253  0.00  0.00    +0.000 NA
ATOM     20  C   UNL     1      -0.175   9.067  22.033  0.00  0.00    +0.000 C 
ENDBRANCH  17  19
ENDBRANCH  16  17
ENDBRANCH   1  16
TORSDOF 3
ENDMDL
MODEL 4
REMARK VINA RESULT:      -7.1      0.902      1.128
REMARK  Name = 
REMARK  5 active torsions:
REMARK  status: ('A' for Active; 'I' for Inactive)
REMARK    1  A    between atoms: C_1  and  N_2
REMARK    2  A    between atoms: N_2  and  C_3
REMARK    3  A    between atoms: N_2  and  C_4
REMARK    4  A    between atoms: C_4  and  C_5
REMARK    5  A    between atoms: C_5  and  C_6
REMARK                            x       y       z     vdW  Elec       q    Type
REMARK                         _______ _______ _______ _____ _____    ______ ____
ROOT
ATOM      1  C   UNL     1       2.770   7.180  18.902  0.00  0.00    +0.000 C 
ATOM      2  C   UNL     1       3.060   5.889  18.551  0.00  0.00    +0.000 C 
ATOM      3  C   UNL     1       2.486   4.676  19.317  0.00  0.00    +0.000 A 
ATOM      4  C   UNL     1       1.595   4.753  20.417  0.00  0.00    +0.000 A 
ATOM      5  C   UNL     1       1.095   3.644  21.114  0.00  0.00    +0.000 A 
ATOM      6  C   UNL     1       1.466   2.374  20.738  0.00  0.00    +0.000 A 
ATOM      7  C   UNL     1       2.334   2.239  19.667  0.00  0.00    +0.000 A 
ATOM      8  C   UNL     1       2.843   3.361  18.964  0.00  0.00    +0.000 A 
ATOM      9  S   UNL     1       3.951   2.906  17.663  0.00  0.00    +0.000 S 
ATOM     10  C   UNL     1       4.413   4.440  16.917  0.00  0.00    +0.000 A 
ATOM     11  C   UNL     1       5.268   4.282  15.800  0.00  0.00    +0.000 A 
ATOM     12  C   UNL     1       5.733   5.371  15.081  0.00  0.00    +0.000 A 
ATOM     13  C   UNL     1       5.338   6.637  15.468  0.00  0.00    +0.000 A 
ATOM     14  C   UNL     1       4.485   6.800  16.571  0.00  0.00    +0.000 A 
ATOM     15  C   UNL     1       3.997   5.714  17.345  0.00  0.00    +0.000 A 
ENDROOT
BRANCH   1  16
ATOM     16  C   UNL     1       1.829   7.684  19.953  0.00  0.00    +0.000 C 
BRANCH  16  17
ATOM     17  C   UNL     1       1.345   9.142  19.929  0.00  0.00    +0.000 C 
BRANCH  17  19
ATOM     18  C   UNL     1      -0.305  10.122  18.446  0.00  0.00    +0.000 C 
ATOM     19  N   UNL     1       1.036   9.552  18.537  0.00  0.00    +0.000 NA
ATOM     20  C   UNL     1       2.017  10.494  17.987  0.00  0.00    +0.000 C 
ENDBRANCH  17  19
ENDBRANCH  16  17
ENDBRANCH   1  16
TORSDOF 3
ENDMDL
MODEL 5
REMARK VINA RESULT:      -7.0      2.589      5.408
REMARK  Name = 
REMARK  5 active torsions:
REMARK  status: ('A' for Active; 'I' for Inactive)
REMARK    1  A    between atoms: C_1  and  N_2
REMARK    2  A    between atoms: N_2  and  C_3
REMARK    3  A    between atoms: N_2  and  C_4
REMARK    4  A    between atoms: C_4  and  C_5
REMARK    5  A    between atoms: C_5  and  C_6
REMARK                            x       y       z     vdW  Elec       q    Type
REMARK                         _______ _______ _______ _____ _____    ______ ____
ROOT
ATOM      1  C   UNL     1       4.084   6.143  17.101  0.00  0.00    +0.000 C 
ATOM      2  C   UNL     1       3.339   6.176  18.249  0.00  0.00    +0.000 C 
ATOM      3  C   UNL     1       3.251   4.971  19.211  0.00  0.00    +0.000 A 
ATOM      4  C   UNL     1       3.934   3.741  19.043  0.00  0.00    +0.000 A 
ATOM      5  C   UNL     1       3.832   2.649  19.916  0.00  0.00    +0.000 A 
ATOM      6  C   UNL     1       3.026   2.733  21.027  0.00  0.00    +0.000 A 
ATOM      7  C   UNL     1       2.337   3.914  21.244  0.00  0.00    +0.000 A 
ATOM      8  C   UNL     1       2.436   5.018  20.359  0.00  0.00    +0.000 A 
ATOM      9  S   UNL     1       1.430   6.385  20.856  0.00  0.00    +0.000 S 
ATOM     10  C   UNL     1       1.748   7.633  19.645  0.00  0.00    +0.000 A 
ATOM     11  C   UNL     1       1.066   8.845  19.902  0.00  0.00    +0.000 A 
ATOM     12  C   UNL     1       1.194   9.943  19.066  0.00  0.00    +0.000 A 
ATOM     13  C   UNL     1       2.018   9.840  17.962  0.00  0.00    +0.000 A 
ATOM     14  C   UNL     1       2.702   8.643  17.705  0.00  0.00    +0.000 A 
ATOM     15  C   UNL     1       2.588   7.489  18.526  0.00  0.00    +0.000 A 
ENDROOT
BRANCH   1  16
ATOM     16  C   UNL     1       4.994   5.065  16.596  0.00  0.00    +0.000 C 
BRANCH  16  17
ATOM     17  C   UNL     1       6.238   5.423  15.768  0.00  0.00    +0.000 C 
BRANCH  17  19
ATOM     18  C   UNL     1       7.395   6.950  17.255  0.00  0.00    +0.000 C 
ATOM     19  N   UNL     1       7.406   5.616  16.663  0.00  0.00    +0.000 NA
ATOM     20  C   UNL     1       7.491   4.601  17.719  0.00  0.00    +0.000 C 
ENDBRANCH  17  19
ENDBRANCH  16  17
ENDBRANCH   1  16
TORSDOF 3
ENDMDL
MODEL 6
REMARK VINA RESULT:      -7.0      1.556      4.468
REMARK  Name = 
REMARK  5 active torsions:
REMARK  status: ('A' for Active; 'I' for Inactive)
REMARK    1  A    between atoms: C_1  and  N_2
REMARK    2  A    between atoms: N_2  and  C_3
REMARK    3  A    between atoms: N_2  and  C_4
REMARK    4  A    between atoms: C_4  and  C_5
REMARK    5  A    between atoms: C_5  and  C_6
REMARK                            x       y       z     vdW  Elec       q    Type
REMARK                         _______ _______ _______ _____ _____    ______ ____
ROOT
ATOM      1  C   UNL     1       2.284   6.988  18.267  0.00  0.00    +0.000 C 
ATOM      2  C   UNL     1       3.166   5.987  18.570  0.00  0.00    +0.000 C 
ATOM      3  C   UNL     1       4.643   6.023  18.119  0.00  0.00    +0.000 A 
ATOM      4  C   UNL     1       5.248   7.078  17.390  0.00  0.00    +0.000 A 
ATOM      5  C   UNL     1       6.586   7.091  16.972  0.00  0.00    +0.000 A 
ATOM      6  C   UNL     1       7.407   6.028  17.269  0.00  0.00    +0.000 A 
ATOM      7  C   UNL     1       6.870   4.969  17.983  0.00  0.00    +0.000 A 
ATOM      8  C   UNL     1       5.515   4.954  18.402  0.00  0.00    +0.000 A 
ATOM      9  S   UNL     1       5.084   3.473  19.267  0.00  0.00    +0.000 S 
ATOM     10  C   UNL     1       3.391   3.700  19.720  0.00  0.00    +0.000 A 
ATOM     11  C   UNL     1       2.868   2.628  20.481  0.00  0.00    +0.000 A 
ATOM     12  C   UNL     1       1.559   2.628  20.933  0.00  0.00    +0.000 A 
ATOM     13  C   UNL     1       0.755   3.710  20.633  0.00  0.00    +0.000 A 
ATOM     14  C   UNL     1       1.269   4.780  19.884  0.00  0.00    +0.000 A 
ATOM     15  C   UNL     1       2.600   4.815  19.389  0.00  0.00    +0.000 A 
ENDROOT
BRANCH   1  16
ATOM     16  C   UNL     1       2.537   8.293  17.576  0.00  0.00    +0.000 C 
BRANCH  16  17
ATOM     17  C   UNL     1       2.045   9.610  18.196  0.00  0.00    +0.000 C 
BRANCH  17  19
ATOM     18  C   UNL     1       0.848   9.683  20.304  0.00  0.00    +0.000 C 
ATOM     19  N   UNL     1       0.744   9.397  18.876  0.00  0.00    +0.000 NA
ATOM     20  C   UNL     1      -0.345  10.185  18.287  0.00  0.00    +0.000 C 
ENDBRANCH  17  19
ENDBRANCH  16  17
ENDBRANCH   1  16
TORSDOF 3
ENDMDL
MODEL 7
REMARK VINA RESULT:      -6.8      2.637      5.645
REMARK  Name = 
REMARK  5 active torsions:
REMARK  status: ('A' for Active; 'I' for Inactive)
REMARK    1  A    between atoms: C_1  and  N_2
REMARK    2  A    between atoms: N_2  and  C_3
REMARK    3  A    between atoms: N_2  and  C_4
REMARK    4  A    between atoms: C_4  and  C_5
REMARK    5  A    between atoms: C_5  and  C_6
REMARK                            x       y       z     vdW  Elec       q    Type
REMARK                         _______ _______ _______ _____ _____    ______ ____
ROOT
ATOM      1  C   UNL     1       3.920   5.723  17.254  0.00  0.00    +0.000 C 
ATOM      2  C   UNL     1       3.200   5.893  18.405  0.00  0.00    +0.000 C 
ATOM      3  C   UNL     1       3.044   4.771  19.456  0.00  0.00    +0.000 A 
ATOM      4  C   UNL     1       3.636   3.486  19.371  0.00  0.00    +0.000 A 
ATOM      5  C   UNL     1       3.473   2.471  20.324  0.00  0.00    +0.000 A 
ATOM      6  C   UNL     1       2.695   2.693  21.436  0.00  0.00    +0.000 A 
ATOM      7  C   UNL     1       2.093   3.933  21.572  0.00  0.00    +0.000 A 
ATOM      8  C   UNL     1       2.254   4.960  20.606  0.00  0.00    +0.000 A 
ATOM      9  S   UNL     1       1.355   6.427  21.012  0.00  0.00    +0.000 S 
ATOM     10  C   UNL     1       1.738   7.557  19.708  0.00  0.00    +0.000 A 
ATOM     11  C   UNL     1       1.148   8.831  19.882  0.00  0.00    +0.000 A 
ATOM     12  C   UNL     1       1.338   9.852  18.965  0.00  0.00    +0.000 A 
ATOM     13  C   UNL     1       2.133   9.610  17.862  0.00  0.00    +0.000 A 
ATOM     14  C   UNL     1       2.727   8.351  17.687  0.00  0.00    +0.000 A 
ATOM     15  C   UNL     1       2.547   7.273  18.593  0.00  0.00    +0.000 A 
ENDROOT
BRANCH   1  16
ATOM     16  C   UNL     1       4.744   4.549  16.820  0.00  0.00    +0.000 C 
BRANCH  16  17
ATOM     17  C   UNL     1       5.180   4.404  15.354  0.00  0.00    +0.000 C 
BRANCH  17  19
ATOM     18  C   UNL     1       7.221   4.943  14.161  0.00  0.00    +0.000 C 
ATOM     19  N   UNL     1       6.648   4.200  15.278  0.00  0.00    +0.000 NA
ATOM     20  C   UNL     1       7.340   4.555  16.523  0.00  0.00    +0.000 C 
ENDBRANCH  17  19
ENDBRANCH  16  17
ENDBRANCH   1  16
TORSDOF 3
ENDMDL
MODEL 8
REMARK VINA RESULT:      -6.8      2.587      5.691
REMARK  Name = 
REMARK  5 active torsions:
REMARK  status: ('A' for Active; 'I' for Inactive)
REMARK    1  A    between atoms: C_1  and  N_2
REMARK    2  A    between atoms: N_2  and  C_3
REMARK    3  A    between atoms: N_2  and  C_4
REMARK    4  A    between atoms: C_4  and  C_5
REMARK    5  A    between atoms: C_5  and  C_6
REMARK                            x       y       z     vdW  Elec       q    Type
REMARK                         _______ _______ _______ _____ _____    ______ ____
ROOT
ATOM      1  C   UNL     1       4.011   6.982  16.974  0.00  0.00    +0.000 C 
ATOM      2  C   UNL     1       3.291   6.800  18.124  0.00  0.00    +0.000 C 
ATOM      3  C   UNL     1       3.331   5.480  18.924  0.00  0.00    +0.000 A 
ATOM      4  C   UNL     1       4.116   4.347  18.592  0.00  0.00    +0.000 A 
ATOM      5  C   UNL     1       4.131   3.148  19.317  0.00  0.00    +0.000 A 
ATOM      6  C   UNL     1       3.345   3.016  20.438  0.00  0.00    +0.000 A 
ATOM      7  C   UNL     1       2.558   4.093  20.812  0.00  0.00    +0.000 A 
ATOM      8  C   UNL     1       2.540   5.305  20.076  0.00  0.00    +0.000 A 
ATOM      9  S   UNL     1       1.428   6.500  20.755  0.00  0.00    +0.000 S 
ATOM     10  C   UNL     1       1.608   7.916  19.713  0.00  0.00    +0.000 A 
ATOM     11  C   UNL     1       0.827   9.019  20.131  0.00  0.00    +0.000 A 
ATOM     12  C   UNL     1       0.839  10.222  19.442  0.00  0.00    +0.000 A 
ATOM     13  C   UNL     1       1.644  10.336  18.326  0.00  0.00    +0.000 A 
ATOM     14  C   UNL     1       2.426   9.248  17.910  0.00  0.00    +0.000 A 
ATOM     15  C   UNL     1       2.433   7.994  18.576  0.00  0.00    +0.000 A 
ENDROOT
BRANCH   1  16
ATOM     16  C   UNL     1       5.002   6.064  16.326  0.00  0.00    +0.000 C 
BRANCH  16  17
ATOM     17  C   UNL     1       6.510   6.296  16.506  0.00  0.00    +0.000 C 
BRANCH  17  19
ATOM     18  C   UNL     1       7.695   4.508  17.637  0.00  0.00    +0.000 C 
ATOM     19  N   UNL     1       7.244   5.016  16.346  0.00  0.00    +0.000 NA
ATOM     20  C   UNL     1       6.458   3.989  15.652  0.00  0.00    +0.000 C 
ENDBRANCH  17  19
ENDBRANCH  16  17
ENDBRANCH   1  16
TORSDOF 3
ENDMDL
MODEL 9
REMARK VINA RESULT:      -6.7      2.495      5.948
REMARK  Name = 
REMARK  5 active torsions:
REMARK  status: ('A' for Active; 'I' for Inactive)
REMARK    1  A    between atoms: C_1  and  N_2
REMARK    2  A    between atoms: N_2  and  C_3
REMARK    3  A    between atoms: N_2  and  C_4
REMARK    4  A    between atoms: C_4  and  C_5
REMARK    5  A    between atoms: C_5  and  C_6
REMARK                            x       y       z     vdW  Elec       q    Type
REMARK                         _______ _______ _______ _____ _____    ______ ____
ROOT
ATOM      1  C   UNL     1       4.279   5.713  17.499  0.00  0.00    +0.000 C 
ATOM      2  C   UNL     1       3.380   5.968  18.499  0.00  0.00    +0.000 C 
ATOM      3  C   UNL     1       2.643   7.320  18.623  0.00  0.00    +0.000 A 
ATOM      4  C   UNL     1       2.780   8.409  17.725  0.00  0.00    +0.000 A 
ATOM      5  C   UNL     1       2.118   9.637  17.858  0.00  0.00    +0.000 A 
ATOM      6  C   UNL     1       1.264   9.844  18.916  0.00  0.00    +0.000 A 
ATOM      7  C   UNL     1       1.089   8.813  19.823  0.00  0.00    +0.000 A 
ATOM      8  C   UNL     1       1.762   7.571  19.692  0.00  0.00    +0.000 A 
ATOM      9  S   UNL     1       1.381   6.445  21.001  0.00  0.00    +0.000 S 
ATOM     10  C   UNL     1       2.286   4.980  20.604  0.00  0.00    +0.000 A 
ATOM     11  C   UNL     1       2.066   3.924  21.519  0.00  0.00    +0.000 A 
ATOM     12  C   UNL     1       2.686   2.693  21.371  0.00  0.00    +0.000 A 
ATOM     13  C   UNL     1       3.530   2.503  20.295  0.00  0.00    +0.000 A 
ATOM     14  C   UNL     1       3.748   3.545  19.380  0.00  0.00    +0.000 A 
ATOM     15  C   UNL     1       3.146   4.826  19.501  0.00  0.00    +0.000 A 
ENDROOT
BRANCH   1  16
ATOM     16  C   UNL     1       4.655   6.567  16.327  0.00  0.00    +0.000 C 
BRANCH  16  17
ATOM     17  C   UNL     1       5.684   6.068  15.300  0.00  0.00    +0.000 C 
BRANCH  17  19
ATOM     18  C   UNL     1       6.135   3.892  14.330  0.00  0.00    +0.000 C 
ATOM     19  N   UNL     1       6.028   4.651  15.572  0.00  0.00    +0.000 NA
ATOM     20  C   UNL     1       7.259   4.502  16.356  0.00  0.00    +0.000 C 
ENDBRANCH  17  19
ENDBRANCH  16  17
ENDBRANCH   1  16
TORSDOF 3
ENDMDL
