MODEL 1
REMARK VINA RESULT:      -7.4      0.000      0.000
REMARK  Name = 
REMARK  8 active torsions:
REMARK  status: ('A' for Active; 'I' for Inactive)
REMARK    1  A    between atoms: C_1  and  C_2
REMARK    2  A    between atoms: C_2  and  C_3
REMARK    3  A    between atoms: C_2  and  C_4
REMARK    4  A    between atoms: C_2  and  O_5
REMARK    5  A    between atoms: O_5  and  C_6
REMARK    6  A    between atoms: C_12  and  C_13
REMARK    7  A    between atoms: N_15  and  C_16
REMARK    8  A    between atoms: C_16  and  C_17
REMARK                            x       y       z     vdW  Elec       q    Type
REMARK                         _______ _______ _______ _____ _____    ______ ____
ROOT
ATOM      1  C   UNL     1       1.324   9.886  18.399  0.00  0.00    +0.000 C 
ATOM      2  O   UNL     1       2.030  10.826  18.033  0.00  0.00    +0.000 OA
ATOM      3  N   UNL     1       1.795   8.587  18.475  0.00  0.00    +0.000 N 
ATOM      4  H   UNL     1       1.361   8.012  19.198  0.00  0.00    +0.000 HD
ENDROOT
BRANCH   1  11
ATOM      5  C   UNL     1      -0.012  11.467  20.846  0.00  0.00    +0.000 C 
ATOM      6  O   UNL     1       0.610  10.560  21.408  0.00  0.00    +0.000 OA
ATOM      7  N   UNL     1      -0.384  11.316  19.535  0.00  0.00    +0.000 N 
ATOM      8  C   UNL     1      -1.140  12.237  18.720  0.00  0.00    +0.000 C 
ATOM      9  C   UNL     1      -1.960  11.319  17.834  0.00  0.00    +0.000 C 
ATOM     10  C   UNL     1      -1.076  10.092  17.625  0.00  0.00    +0.000 C 
ATOM     11  C   UNL     1      -0.149  10.051  18.846  0.00  0.00    +0.000 C 
BRANCH   5  12
ATOM     12  O   UNL     1      -0.385  12.641  21.431  0.00  0.00    +0.000 OA
BRANCH  12  14
ATOM     13  C   UNL     1      -1.270  13.732  23.451  0.00  0.00    +0.000 C 
ATOM     14  C   UNL     1      -1.439  12.584  22.446  0.00  0.00    +0.000 C 
ATOM     15  C   UNL     1      -1.444  11.208  23.136  0.00  0.00    +0.000 C 
ATOM     16  C   UNL     1      -2.816  12.786  21.773  0.00  0.00    +0.000 C 
ENDBRANCH  12  14
ENDBRANCH   5  12
ENDBRANCH   1  11
BRANCH   3  17
ATOM     17  C   UNL     1       3.128   8.222  18.018  0.00  0.00    +0.000 C 
BRANCH  17  18
ATOM     18  C   UNL     1       3.173   6.833  17.336  0.00  0.00    +0.000 C 
ATOM     19  C   UNL     1       2.739   5.656  18.255  0.00  0.00    +0.000 C 
ATOM     20  C   UNL     1       3.720   5.307  19.391  0.00  0.00    +0.000 C 
ATOM     21  C   UNL     1       5.140   5.506  18.987  0.00  0.00    +0.000 A 
ATOM     22  N   UNL     1       6.180   5.184  19.837  0.00  0.00    +0.000 NA
ATOM     23  C   UNL     1       7.323   5.512  19.280  0.00  0.00    +0.000 A 
ATOM     24  N   UNL     1       8.507   5.350  19.881  0.00  0.00    +0.000 N 
ATOM     25  S   UNL     1       7.207   6.173  17.691  0.00  0.00    +0.000 S 
ATOM     26  C   UNL     1       5.512   6.082  17.794  0.00  0.00    +0.000 A 
ATOM     27  C   UNL     1       4.577   6.556  16.735  0.00  0.00    +0.000 C 
ATOM     28  H   UNL     1       8.514   4.752  20.698  0.00  0.00    +0.000 HD
ATOM     29  H   UNL     1       9.336   5.285  19.300  0.00  0.00    +0.000 HD
ENDBRANCH  17  18
ENDBRANCH   3  17
TORSDOF 5
ENDMDL
MODEL 2
REMARK VINA RESULT:      -7.3      2.488      3.340
REMARK  Name = 
REMARK  8 active torsions:
REMARK  status: ('A' for Active; 'I' for Inactive)
REMARK    1  A    between atoms: C_1  and  C_2
REMARK    2  A    between atoms: C_2  and  C_3
REMARK    3  A    between atoms: C_2  and  C_4
REMARK    4  A    between atoms: C_2  and  O_5
REMARK    5  A    between atoms: O_5  and  C_6
REMARK    6  A    between atoms: C_12  and  C_13
REMARK    7  A    between atoms: N_15  and  C_16
REMARK    8  A    between atoms: C_16  and  C_17
REMARK                            x       y       z     vdW  Elec       q    Type
REMARK                         _______ _______ _______ _____ _____    ______ ____
ROOT
ATOM      1  C   UNL     1       2.018   8.057  18.653  0.00  0.00    +0.000 C 
ATOM      2  O   UNL     1       1.644   8.342  17.516  0.00  0.00    +0.000 OA
ATOM      3  N   UNL     1       2.745   6.913  18.933  0.00  0.00    +0.000 N 
ATOM      4  H   UNL     1       3.394   6.996  19.717  0.00  0.00    +0.000 HD
ENDROOT
BRANCH   1  11
ATOM      5  C   UNL     1       1.015  11.089  18.924  0.00  0.00    +0.000 C 
ATOM      6  O   UNL     1       2.133  11.211  18.415  0.00  0.00    +0.000 OA
ATOM      7  N   UNL     1       0.719   9.955  19.635  0.00  0.00    +0.000 N 
ATOM      8  C   UNL     1      -0.507   9.642  20.330  0.00  0.00    +0.000 C 
ATOM      9  C   UNL     1      -0.029   8.860  21.538  0.00  0.00    +0.000 C 
ATOM     10  C   UNL     1       1.212   8.117  21.051  0.00  0.00    +0.000 C 
ATOM     11  C   UNL     1       1.752   8.955  19.886  0.00  0.00    +0.000 C 
BRANCH   5  12
ATOM     12  O   UNL     1       0.015  12.013  18.851  0.00  0.00    +0.000 OA
BRANCH  12  14
ATOM     13  C   UNL     1       0.707  14.374  18.807  0.00  0.00    +0.000 C 
ATOM     14  C   UNL     1       0.155  13.224  19.662  0.00  0.00    +0.000 C 
ATOM     15  C   UNL     1       1.034  12.944  20.893  0.00  0.00    +0.000 C 
ATOM     16  C   UNL     1      -1.237  13.675  20.161  0.00  0.00    +0.000 C 
ENDBRANCH  12  14
ENDBRANCH   5  12
ENDBRANCH   1  11
BRANCH   3  17
ATOM     17  C   UNL     1       3.020   5.907  17.918  0.00  0.00    +0.000 C 
BRANCH  17  18
ATOM     18  C   UNL     1       3.943   4.773  18.428  0.00  0.00    +0.000 C 
ATOM     19  C   UNL     1       5.209   5.270  19.182  0.00  0.00    +0.000 C 
ATOM     20  C   UNL     1       6.273   5.959  18.306  0.00  0.00    +0.000 C 
ATOM     21  C   UNL     1       6.355   5.359  16.946  0.00  0.00    +0.000 A 
ATOM     22  N   UNL     1       7.294   5.786  16.028  0.00  0.00    +0.000 NA
ATOM     23  C   UNL     1       7.119   5.154  14.890  0.00  0.00    +0.000 A 
ATOM     24  N   UNL     1       7.860   5.384  13.800  0.00  0.00    +0.000 N 
ATOM     25  S   UNL     1       5.855   3.981  14.884  0.00  0.00    +0.000 S 
ATOM     26  C   UNL     1       5.473   4.408  16.485  0.00  0.00    +0.000 A 
ATOM     27  C   UNL     1       4.347   3.824  17.267  0.00  0.00    +0.000 C 
ATOM     28  H   UNL     1       8.716   5.904  13.945  0.00  0.00    +0.000 HD
ATOM     29  H   UNL     1       7.919   4.654  13.097  0.00  0.00    +0.000 HD
ENDBRANCH  17  18
ENDBRANCH   3  17
TORSDOF 5
ENDMDL
MODEL 3
REMARK VINA RESULT:      -7.2      0.502      1.055
REMARK  Name = 
REMARK  8 active torsions:
REMARK  status: ('A' for Active; 'I' for Inactive)
REMARK    1  A    between atoms: C_1  and  C_2
REMARK    2  A    between atoms: C_2  and  C_3
REMARK    3  A    between atoms: C_2  and  C_4
REMARK    4  A    between atoms: C_2  and  O_5
REMARK    5  A    between atoms: O_5  and  C_6
REMARK    6  A    between atoms: C_12  and  C_13
REMARK    7  A    between atoms: N_15  and  C_16
REMARK    8  A    between atoms: C_16  and  C_17
REMARK                            x       y       z     vdW  Elec       q    Type
REMARK                         _______ _______ _______ _____ _____    ______ ____
ROOT
ATOM      1  C   UNL     1       1.279  10.068  18.641  0.00  0.00    +0.000 C 
ATOM      2  O   UNL     1       2.020  10.984  18.284  0.00  0.00    +0.000 OA
ATOM      3  N   UNL     1       1.695   8.750  18.693  0.00  0.00    +0.000 N 
ATOM      4  H   UNL     1       1.242   8.182  19.410  0.00  0.00    +0.000 HD
ENDROOT
BRANCH   1  11
ATOM      5  C   UNL     1      -0.014  12.033  20.819  0.00  0.00    +0.000 C 
ATOM      6  O   UNL     1       0.643  11.248  21.509  0.00  0.00    +0.000 OA
ATOM      7  N   UNL     1      -0.423  11.650  19.568  0.00  0.00    +0.000 N 
ATOM      8  C   UNL     1      -1.222  12.403  18.631  0.00  0.00    +0.000 C 
ATOM      9  C   UNL     1      -2.050  11.333  17.947  0.00  0.00    +0.000 C 
ATOM     10  C   UNL     1      -1.149  10.101  17.925  0.00  0.00    +0.000 C 
ATOM     11  C   UNL     1      -0.183  10.288  19.102  0.00  0.00    +0.000 C 
BRANCH   5  12
ATOM     12  O   UNL     1      -0.392  13.285  21.203  0.00  0.00    +0.000 OA
BRANCH  12  14
ATOM     13  C   UNL     1      -2.094  12.002  22.433  0.00  0.00    +0.000 C 
ATOM     14  C   UNL     1      -1.538  13.396  22.108  0.00  0.00    +0.000 C 
ATOM     15  C   UNL     1      -2.611  14.319  21.502  0.00  0.00    +0.000 C 
ATOM     16  C   UNL     1      -1.080  14.012  23.449  0.00  0.00    +0.000 C 
ENDBRANCH  12  14
ENDBRANCH   5  12
ENDBRANCH   1  11
BRANCH   3  17
ATOM     17  C   UNL     1       3.008   8.338  18.220  0.00  0.00    +0.000 C 
BRANCH  17  18
ATOM     18  C   UNL     1       2.988   6.965  17.504  0.00  0.00    +0.000 C 
ATOM     19  C   UNL     1       2.579   5.774  18.416  0.00  0.00    +0.000 C 
ATOM     20  C   UNL     1       3.612   5.378  19.489  0.00  0.00    +0.000 C 
ATOM     21  C   UNL     1       5.012   5.559  19.015  0.00  0.00    +0.000 A 
ATOM     22  N   UNL     1       6.089   5.196  19.799  0.00  0.00    +0.000 NA
ATOM     23  C   UNL     1       7.208   5.515  19.190  0.00  0.00    +0.000 A 
ATOM     24  N   UNL     1       8.418   5.316  19.723  0.00  0.00    +0.000 N 
ATOM     25  S   UNL     1       7.021   6.218  17.626  0.00  0.00    +0.000 S 
ATOM     26  C   UNL     1       5.332   6.157  17.817  0.00  0.00    +0.000 A 
ATOM     27  C   UNL     1       4.352   6.676  16.822  0.00  0.00    +0.000 C 
ATOM     28  H   UNL     1       8.455   4.697  20.524  0.00  0.00    +0.000 HD
ATOM     29  H   UNL     1       9.213   5.249  19.097  0.00  0.00    +0.000 HD
ENDBRANCH  17  18
ENDBRANCH   3  17
TORSDOF 5
ENDMDL
MODEL 4
REMARK VINA RESULT:      -7.2      3.524      8.269
REMARK  Name = 
REMARK  8 active torsions:
REMARK  status: ('A' for Active; 'I' for Inactive)
REMARK    1  A    between atoms: C_1  and  C_2
REMARK    2  A    between atoms: C_2  and  C_3
REMARK    3  A    between atoms: C_2  and  C_4
REMARK    4  A    between atoms: C_2  and  O_5
REMARK    5  A    between atoms: O_5  and  C_6
REMARK    6  A    between atoms: C_12  and  C_13
REMARK    7  A    between atoms: N_15  and  C_16
REMARK    8  A    between atoms: C_16  and  C_17
REMARK                            x       y       z     vdW  Elec       q    Type
REMARK                         _______ _______ _______ _____ _____    ______ ____
ROOT
ATOM      1  C   UNL     1       2.120   6.271  19.493  0.00  0.00    +0.000 C 
ATOM      2  O   UNL     1       2.231   5.681  20.568  0.00  0.00    +0.000 OA
ATOM      3  N   UNL     1       1.932   7.639  19.411  0.00  0.00    +0.000 N 
ATOM      4  H   UNL     1       2.325   8.079  18.578  0.00  0.00    +0.000 HD
ENDROOT
BRANCH   1  11
ATOM      5  C   UNL     1       4.489   6.051  17.346  0.00  0.00    +0.000 C 
ATOM      6  O   UNL     1       4.185   7.247  17.302  0.00  0.00    +0.000 OA
ATOM      7  N   UNL     1       3.572   5.139  17.801  0.00  0.00    +0.000 N 
ATOM      8  C   UNL     1       3.723   3.706  17.894  0.00  0.00    +0.000 C 
ATOM      9  C   UNL     1       2.330   3.193  17.584  0.00  0.00    +0.000 C 
ATOM     10  C   UNL     1       1.392   4.266  18.131  0.00  0.00    +0.000 C 
ATOM     11  C   UNL     1       2.213   5.562  18.120  0.00  0.00    +0.000 C 
BRANCH   5  12
ATOM     12  O   UNL     1       5.691   5.534  16.962  0.00  0.00    +0.000 OA
BRANCH  12  14
ATOM     13  C   UNL     1       6.339   5.545  19.336  0.00  0.00    +0.000 C 
ATOM     14  C   UNL     1       6.818   5.688  17.884  0.00  0.00    +0.000 C 
ATOM     15  C   UNL     1       7.529   7.031  17.640  0.00  0.00    +0.000 C 
ATOM     16  C   UNL     1       7.842   4.554  17.644  0.00  0.00    +0.000 C 
ENDBRANCH  12  14
ENDBRANCH   5  12
ENDBRANCH   1  11
BRANCH   3  17
ATOM     17  C   UNL     1       1.737   8.463  20.595  0.00  0.00    +0.000 C 
BRANCH  17  18
ATOM     18  C   UNL     1       0.417   9.270  20.558  0.00  0.00    +0.000 C 
ATOM     19  C   UNL     1      -0.177   9.458  19.133  0.00  0.00    +0.000 C 
ATOM     20  C   UNL     1       0.613  10.402  18.206  0.00  0.00    +0.000 C 
ATOM     21  C   UNL     1       1.234  11.531  18.952  0.00  0.00    +0.000 A 
ATOM     22  N   UNL     1       1.928  12.529  18.297  0.00  0.00    +0.000 NA
ATOM     23  C   UNL     1       2.433  13.366  19.175  0.00  0.00    +0.000 A 
ATOM     24  N   UNL     1       3.187  14.418  18.839  0.00  0.00    +0.000 N 
ATOM     25  S   UNL     1       2.056  13.023  20.822  0.00  0.00    +0.000 S 
ATOM     26  C   UNL     1       1.229  11.623  20.326  0.00  0.00    +0.000 A 
ATOM     27  C   UNL     1       0.590  10.647  21.253  0.00  0.00    +0.000 C 
ATOM     28  H   UNL     1       3.170  14.684  17.861  0.00  0.00    +0.000 HD
ATOM     29  H   UNL     1       3.246  15.194  19.489  0.00  0.00    +0.000 HD
ENDBRANCH  17  18
ENDBRANCH   3  17
TORSDOF 5
ENDMDL
MODEL 5
REMARK VINA RESULT:      -7.2      2.142      2.775
REMARK  Name = 
REMARK  8 active torsions:
REMARK  status: ('A' for Active; 'I' for Inactive)
REMARK    1  A    between atoms: C_1  and  C_2
REMARK    2  A    between atoms: C_2  and  C_3
REMARK    3  A    between atoms: C_2  and  C_4
REMARK    4  A    between atoms: C_2  and  O_5
REMARK    5  A    between atoms: O_5  and  C_6
REMARK    6  A    between atoms: C_12  and  C_13
REMARK    7  A    between atoms: N_15  and  C_16
REMARK    8  A    between atoms: C_16  and  C_17
REMARK                            x       y       z     vdW  Elec       q    Type
REMARK                         _______ _______ _______ _____ _____    ______ ____
ROOT
ATOM      1  C   UNL     1       1.036   9.541  19.253  0.00  0.00    +0.000 C 
ATOM      2  O   UNL     1       1.733   9.736  18.257  0.00  0.00    +0.000 OA
ATOM      3  N   UNL     1       1.293   8.523  20.154  0.00  0.00    +0.000 N 
ATOM      4  H   UNL     1       1.020   8.721  21.118  0.00  0.00    +0.000 HD
ENDROOT
BRANCH   1  11
ATOM      5  C   UNL     1       0.831  12.543  20.358  0.00  0.00    +0.000 C 
ATOM      6  O   UNL     1       1.350  11.936  21.299  0.00  0.00    +0.000 OA
ATOM      7  N   UNL     1       0.090  11.849  19.436  0.00  0.00    +0.000 N 
ATOM      8  C   UNL     1      -0.621  12.377  18.296  0.00  0.00    +0.000 C 
ATOM      9  C   UNL     1      -1.844  11.484  18.210  0.00  0.00    +0.000 C 
ATOM     10  C   UNL     1      -1.366  10.123  18.709  0.00  0.00    +0.000 C 
ATOM     11  C   UNL     1      -0.177  10.427  19.628  0.00  0.00    +0.000 C 
BRANCH   5  12
ATOM     12  O   UNL     1       0.918  13.888  20.148  0.00  0.00    +0.000 OA
BRANCH  12  14
ATOM     13  C   UNL     1       2.795  13.446  18.619  0.00  0.00    +0.000 C 
ATOM     14  C   UNL     1       2.192  14.411  19.650  0.00  0.00    +0.000 C 
ATOM     15  C   UNL     1       3.154  14.681  20.821  0.00  0.00    +0.000 C 
ATOM     16  C   UNL     1       1.949  15.748  18.913  0.00  0.00    +0.000 C 
ENDBRANCH  12  14
ENDBRANCH   5  12
ENDBRANCH   1  11
BRANCH   3  17
ATOM     17  C   UNL     1       2.340   7.538  19.926  0.00  0.00    +0.000 C 
BRANCH  17  18
ATOM     18  C   UNL     1       1.851   6.317  19.110  0.00  0.00    +0.000 C 
ATOM     19  C   UNL     1       1.844   4.979  19.903  0.00  0.00    +0.000 C 
ATOM     20  C   UNL     1       3.234   4.401  20.237  0.00  0.00    +0.000 C 
ATOM     21  C   UNL     1       4.227   4.671  19.160  0.00  0.00    +0.000 A 
ATOM     22  N   UNL     1       5.515   4.178  19.231  0.00  0.00    +0.000 NA
ATOM     23  C   UNL     1       6.210   4.607  18.203  0.00  0.00    +0.000 A 
ATOM     24  N   UNL     1       7.504   4.321  18.019  0.00  0.00    +0.000 N 
ATOM     25  S   UNL     1       5.337   5.578  17.077  0.00  0.00    +0.000 S 
ATOM     26  C   UNL     1       3.965   5.477  18.075  0.00  0.00    +0.000 A 
ATOM     27  C   UNL     1       2.670   6.161  17.801  0.00  0.00    +0.000 C 
ATOM     28  H   UNL     1       7.878   3.569  18.585  0.00  0.00    +0.000 HD
ATOM     29  H   UNL     1       7.877   4.371  17.078  0.00  0.00    +0.000 HD
ENDBRANCH  17  18
ENDBRANCH   3  17
TORSDOF 5
ENDMDL
MODEL 6
REMARK VINA RESULT:      -7.1      1.808      2.268
REMARK  Name = 
REMARK  8 active torsions:
REMARK  status: ('A' for Active; 'I' for Inactive)
REMARK    1  A    between atoms: C_1  and  C_2
REMARK    2  A    between atoms: C_2  and  C_3
REMARK    3  A    between atoms: C_2  and  C_4
REMARK    4  A    between atoms: C_2  and  O_5
REMARK    5  A    between atoms: O_5  and  C_6
REMARK    6  A    between atoms: C_12  and  C_13
REMARK    7  A    between atoms: N_15  and  C_16
REMARK    8  A    between atoms: C_16  and  C_17
REMARK                            x       y       z     vdW  Elec       q    Type
REMARK                         _______ _______ _______ _____ _____    ______ ____
ROOT
ATOM      1  C   UNL     1       1.075   9.654  18.988  0.00  0.00    +0.000 C 
ATOM      2  O   UNL     1       1.877  10.085  18.160  0.00  0.00    +0.000 OA
ATOM      3  N   UNL     1       1.304   8.500  19.716  0.00  0.00    +0.000 N 
ATOM      4  H   UNL     1       0.887   8.488  20.648  0.00  0.00    +0.000 HD
ENDROOT
BRANCH   1  11
ATOM      5  C   UNL     1       0.440  12.368  20.570  0.00  0.00    +0.000 C 
ATOM      6  O   UNL     1       0.886  11.631  21.453  0.00  0.00    +0.000 OA
ATOM      7  N   UNL     1      -0.103  11.814  19.440  0.00  0.00    +0.000 N 
ATOM      8  C   UNL     1      -0.705  12.499  18.320  0.00  0.00    +0.000 C 
ATOM      9  C   UNL     1      -1.814  11.557  17.896  0.00  0.00    +0.000 C 
ATOM     10  C   UNL     1      -1.279  10.162  18.208  0.00  0.00    +0.000 C 
ATOM     11  C   UNL     1      -0.256  10.366  19.333  0.00  0.00    +0.000 C 
BRANCH   5  12
ATOM     12  O   UNL     1       0.426  13.731  20.619  0.00  0.00    +0.000 OA
BRANCH  12  14
ATOM     13  C   UNL     1       1.402  15.747  19.600  0.00  0.00    +0.000 C 
ATOM     14  C   UNL     1       1.682  14.430  20.338  0.00  0.00    +0.000 C 
ATOM     15  C   UNL     1       2.636  13.516  19.548  0.00  0.00    +0.000 C 
ATOM     16  C   UNL     1       2.373  14.807  21.668  0.00  0.00    +0.000 C 
ENDBRANCH  12  14
ENDBRANCH   5  12
ENDBRANCH   1  11
BRANCH   3  17
ATOM     17  C   UNL     1       2.460   7.651  19.471  0.00  0.00    +0.000 C 
BRANCH  17  18
ATOM     18  C   UNL     1       2.373   6.885  18.128  0.00  0.00    +0.000 C 
ATOM     19  C   UNL     1       2.083   5.365  18.278  0.00  0.00    +0.000 C 
ATOM     20  C   UNL     1       3.235   4.526  18.865  0.00  0.00    +0.000 C 
ATOM     21  C   UNL     1       4.569   5.032  18.442  0.00  0.00    +0.000 A 
ATOM     22  N   UNL     1       5.732   4.380  18.802  0.00  0.00    +0.000 NA
ATOM     23  C   UNL     1       6.771   5.056  18.367  0.00  0.00    +0.000 A 
ATOM     24  N   UNL     1       8.036   4.686  18.595  0.00  0.00    +0.000 N 
ATOM     25  S   UNL     1       6.401   6.476  17.462  0.00  0.00    +0.000 S 
ATOM     26  C   UNL     1       4.746   6.203  17.740  0.00  0.00    +0.000 A 
ATOM     27  C   UNL     1       3.654   7.107  17.280  0.00  0.00    +0.000 C 
ATOM     28  H   UNL     1       8.171   3.737  18.923  0.00  0.00    +0.000 HD
ATOM     29  H   UNL     1       8.756   5.023  17.965  0.00  0.00    +0.000 HD
ENDBRANCH  17  18
ENDBRANCH   3  17
TORSDOF 5
ENDMDL
MODEL 7
REMARK VINA RESULT:      -7.1      1.292      1.740
REMARK  Name = 
REMARK  8 active torsions:
REMARK  status: ('A' for Active; 'I' for Inactive)
REMARK    1  A    between atoms: C_1  and  C_2
REMARK    2  A    between atoms: C_2  and  C_3
REMARK    3  A    between atoms: C_2  and  C_4
REMARK    4  A    between atoms: C_2  and  O_5
REMARK    5  A    between atoms: O_5  and  C_6
REMARK    6  A    between atoms: C_12  and  C_13
REMARK    7  A    between atoms: N_15  and  C_16
REMARK    8  A    between atoms: C_16  and  C_17
REMARK                            x       y       z     vdW  Elec       q    Type
REMARK                         _______ _______ _______ _____ _____    ______ ____
ROOT
ATOM      1  C   UNL     1       1.067   9.562  19.389  0.00  0.00    +0.000 C 
ATOM      2  O   UNL     1       0.470   9.188  20.398  0.00  0.00    +0.000 OA
ATOM      3  N   UNL     1       1.949   8.749  18.700  0.00  0.00    +0.000 N 
ATOM      4  H   UNL     1       2.003   8.924  17.696  0.00  0.00    +0.000 HD
ENDROOT
BRANCH   1  11
ATOM      5  C   UNL     1      -0.890  11.994  20.117  0.00  0.00    +0.000 C 
ATOM      6  O   UNL     1      -1.667  11.125  19.712  0.00  0.00    +0.000 OA
ATOM      7  N   UNL     1       0.424  11.955  19.730  0.00  0.00    +0.000 N 
ATOM      8  C   UNL     1       1.471  12.892  20.063  0.00  0.00    +0.000 C 
ATOM      9  C   UNL     1       2.324  12.916  18.809  0.00  0.00    +0.000 C 
ATOM     10  C   UNL     1       2.213  11.504  18.239  0.00  0.00    +0.000 C 
ATOM     11  C   UNL     1       0.875  10.964  18.759  0.00  0.00    +0.000 C 
BRANCH   5  12
ATOM     12  O   UNL     1      -1.232  13.032  20.933  0.00  0.00    +0.000 OA
BRANCH  12  14
ATOM     13  C   UNL     1      -1.155  13.882  23.240  0.00  0.00    +0.000 C 
ATOM     14  C   UNL     1      -1.557  12.717  22.325  0.00  0.00    +0.000 C 
ATOM     15  C   UNL     1      -0.890  11.395  22.744  0.00  0.00    +0.000 C 
ATOM     16  C   UNL     1      -3.087  12.548  22.473  0.00  0.00    +0.000 C 
ENDBRANCH  12  14
ENDBRANCH   5  12
ENDBRANCH   1  11
BRANCH   3  17
ATOM     17  C   UNL     1       2.320   7.428  19.186  0.00  0.00    +0.000 C 
BRANCH  17  18
ATOM     18  C   UNL     1       2.573   6.414  18.044  0.00  0.00    +0.000 C 
ATOM     19  C   UNL     1       2.510   4.925  18.487  0.00  0.00    +0.000 C 
ATOM     20  C   UNL     1       3.673   4.451  19.381  0.00  0.00    +0.000 C 
ATOM     21  C   UNL     1       4.959   5.110  19.025  0.00  0.00    +0.000 A 
ATOM     22  N   UNL     1       6.139   4.774  19.660  0.00  0.00    +0.000 NA
ATOM     23  C   UNL     1       7.112   5.538  19.219  0.00  0.00    +0.000 A 
ATOM     24  N   UNL     1       8.367   5.467  19.676  0.00  0.00    +0.000 N 
ATOM     25  S   UNL     1       6.668   6.658  17.985  0.00  0.00    +0.000 S 
ATOM     26  C   UNL     1       5.056   6.135  18.110  0.00  0.00    +0.000 A 
ATOM     27  C   UNL     1       3.921   6.707  17.332  0.00  0.00    +0.000 C 
ATOM     28  H   UNL     1       8.598   4.644  20.219  0.00  0.00    +0.000 HD
ATOM     29  H   UNL     1       9.114   5.807  19.081  0.00  0.00    +0.000 HD
ENDBRANCH  17  18
ENDBRANCH   3  17
TORSDOF 5
ENDMDL
MODEL 8
REMARK VINA RESULT:      -7.1      1.811      3.295
REMARK  Name = 
REMARK  8 active torsions:
REMARK  status: ('A' for Active; 'I' for Inactive)
REMARK    1  A    between atoms: C_1  and  C_2
REMARK    2  A    between atoms: C_2  and  C_3
REMARK    3  A    between atoms: C_2  and  C_4
REMARK    4  A    between atoms: C_2  and  O_5
REMARK    5  A    between atoms: O_5  and  C_6
REMARK    6  A    between atoms: C_12  and  C_13
REMARK    7  A    between atoms: N_15  and  C_16
REMARK    8  A    between atoms: C_16  and  C_17
REMARK                            x       y       z     vdW  Elec       q    Type
REMARK                         _______ _______ _______ _____ _____    ______ ____
ROOT
ATOM      1  C   UNL     1       1.270   9.798  19.672  0.00  0.00    +0.000 C 
ATOM      2  O   UNL     1       1.008   9.610  20.859  0.00  0.00    +0.000 OA
ATOM      3  N   UNL     1       1.802   8.812  18.860  0.00  0.00    +0.000 N 
ATOM      4  H   UNL     1       1.537   8.873  17.876  0.00  0.00    +0.000 HD
ENDROOT
BRANCH   1  11
ATOM      5  C   UNL     1      -1.293  10.918  18.106  0.00  0.00    +0.000 C 
ATOM      6  O   UNL     1      -0.907   9.995  17.382  0.00  0.00    +0.000 OA
ATOM      7  N   UNL     1      -0.407  11.514  18.966  0.00  0.00    +0.000 N 
ATOM      8  C   UNL     1      -0.652  12.622  19.859  0.00  0.00    +0.000 C 
ATOM      9  C   UNL     1       0.666  13.371  19.848  0.00  0.00    +0.000 C 
ATOM     10  C   UNL     1       1.725  12.287  19.660  0.00  0.00    +0.000 C 
ATOM     11  C   UNL     1       1.003  11.139  18.945  0.00  0.00    +0.000 C 
BRANCH   5  12
ATOM     12  O   UNL     1      -2.558  11.426  18.122  0.00  0.00    +0.000 OA
BRANCH  12  14
ATOM     13  C   UNL     1      -3.844   9.397  17.588  0.00  0.00    +0.000 C 
ATOM     14  C   UNL     1      -3.530  10.846  17.192  0.00  0.00    +0.000 C 
ATOM     15  C   UNL     1      -3.014  10.951  15.746  0.00  0.00    +0.000 C 
ATOM     16  C   UNL     1      -4.861  11.626  17.282  0.00  0.00    +0.000 C 
ENDBRANCH  12  14
ENDBRANCH   5  12
ENDBRANCH   1  11
BRANCH   3  17
ATOM     17  C   UNL     1       2.197   7.513  19.385  0.00  0.00    +0.000 C 
BRANCH  17  18
ATOM     18  C   UNL     1       2.350   6.438  18.281  0.00  0.00    +0.000 C 
ATOM     19  C   UNL     1       2.300   4.974  18.802  0.00  0.00    +0.000 C 
ATOM     20  C   UNL     1       3.519   4.525  19.632  0.00  0.00    +0.000 C 
ATOM     21  C   UNL     1       4.785   5.143  19.149  0.00  0.00    +0.000 A 
ATOM     22  N   UNL     1       6.003   4.818  19.712  0.00  0.00    +0.000 NA
ATOM     23  C   UNL     1       6.951   5.542  19.162  0.00  0.00    +0.000 A 
ATOM     24  N   UNL     1       8.236   5.472  19.529  0.00  0.00    +0.000 N 
ATOM     25  S   UNL     1       6.433   6.606  17.908  0.00  0.00    +0.000 S 
ATOM     26  C   UNL     1       4.827   6.119  18.178  0.00  0.00    +0.000 A 
ATOM     27  C   UNL     1       3.646   6.671  17.457  0.00  0.00    +0.000 C 
ATOM     28  H   UNL     1       8.495   4.672  20.095  0.00  0.00    +0.000 HD
ATOM     29  H   UNL     1       8.942   5.768  18.864  0.00  0.00    +0.000 HD
ENDBRANCH  17  18
ENDBRANCH   3  17
TORSDOF 5
ENDMDL
MODEL 9
REMARK VINA RESULT:      -7.1      1.999      3.088
REMARK  Name = 
REMARK  8 active torsions:
REMARK  status: ('A' for Active; 'I' for Inactive)
REMARK    1  A    between atoms: C_1  and  C_2
REMARK    2  A    between atoms: C_2  and  C_3
REMARK    3  A    between atoms: C_2  and  C_4
REMARK    4  A    between atoms: C_2  and  O_5
REMARK    5  A    between atoms: O_5  and  C_6
REMARK    6  A    between atoms: C_12  and  C_13
REMARK    7  A    between atoms: N_15  and  C_16
REMARK    8  A    between atoms: C_16  and  C_17
REMARK                            x       y       z     vdW  Elec       q    Type
REMARK                         _______ _______ _______ _____ _____    ______ ____
ROOT
ATOM      1  C   UNL     1       0.910   8.167  21.156  0.00  0.00    +0.000 C 
ATOM      2  O   UNL     1      -0.068   7.419  21.140  0.00  0.00    +0.000 OA
ATOM      3  N   UNL     1       2.114   7.832  20.562  0.00  0.00    +0.000 N 
ATOM      4  H   UNL     1       2.652   8.622  20.204  0.00  0.00    +0.000 HD
ENDROOT
BRANCH   1  11
ATOM      5  C   UNL     1       0.669  11.110  19.911  0.00  0.00    +0.000 C 
ATOM      6  O   UNL     1       1.771  10.728  19.508  0.00  0.00    +0.000 OA
ATOM      7  N   UNL     1       0.127  10.539  21.033  0.00  0.00    +0.000 N 
ATOM      8  C   UNL     1      -1.122  10.869  21.678  0.00  0.00    +0.000 C 
ATOM      9  C   UNL     1      -0.817  10.659  23.148  0.00  0.00    +0.000 C 
ATOM     10  C   UNL     1       0.198   9.519  23.174  0.00  0.00    +0.000 C 
ATOM     11  C   UNL     1       0.896   9.571  21.809  0.00  0.00    +0.000 C 
BRANCH   5  12
ATOM     12  O   UNL     1      -0.082  12.089  19.330  0.00  0.00    +0.000 OA
BRANCH  12  14
ATOM     13  C   UNL     1       1.238  13.519  20.835  0.00  0.00    +0.000 C 
ATOM     14  C   UNL     1       0.234  13.477  19.675  0.00  0.00    +0.000 C 
ATOM     15  C   UNL     1      -1.054  14.255  19.996  0.00  0.00    +0.000 C 
ATOM     16  C   UNL     1       0.920  14.164  18.472  0.00  0.00    +0.000 C 
ENDBRANCH  12  14
ENDBRANCH   5  12
ENDBRANCH   1  11
BRANCH   3  17
ATOM     17  C   UNL     1       2.343   6.522  19.972  0.00  0.00    +0.000 C 
BRANCH  17  18
ATOM     18  C   UNL     1       2.233   6.528  18.427  0.00  0.00    +0.000 C 
ATOM     19  C   UNL     1       1.922   5.138  17.803  0.00  0.00    +0.000 C 
ATOM     20  C   UNL     1       3.066   4.109  17.877  0.00  0.00    +0.000 C 
ATOM     21  C   UNL     1       4.405   4.747  17.743  0.00  0.00    +0.000 A 
ATOM     22  N   UNL     1       5.561   3.991  17.713  0.00  0.00    +0.000 NA
ATOM     23  C   UNL     1       6.606   4.785  17.658  0.00  0.00    +0.000 A 
ATOM     24  N   UNL     1       7.867   4.340  17.652  0.00  0.00    +0.000 N 
ATOM     25  S   UNL     1       6.249   6.470  17.587  0.00  0.00    +0.000 S 
ATOM     26  C   UNL     1       4.593   6.110  17.716  0.00  0.00    +0.000 A 
ATOM     27  C   UNL     1       3.511   7.132  17.783  0.00  0.00    +0.000 C 
ATOM     28  H   UNL     1       7.991   3.352  17.462  0.00  0.00    +0.000 HD
ATOM     29  H   UNL     1       8.587   4.940  17.264  0.00  0.00    +0.000 HD
ENDBRANCH  17  18
ENDBRANCH   3  17
TORSDOF 5
ENDMDL
