MODEL 1
REMARK VINA RESULT:      -7.3      0.000      0.000
REMARK  Name = 
REMARK  19 active torsions:
REMARK  status: ('A' for Active; 'I' for Inactive)
REMARK    1  A    between atoms: C_1  and  O_2
REMARK    2  A    between atoms: O_2  and  C_3
REMARK    3  A    between atoms: C_6  and  C_7
REMARK    4  A    between atoms: C_8  and  C_9
REMARK    5  A    between atoms: C_12  and  N_13
REMARK    6  A    between atoms: N_13  and  C_14
REMARK    7  A    between atoms: N_13  and  C_15
REMARK    8  A    between atoms: C_18  and  C_19
REMARK    9  A    between atoms: C_19  and  C_20
REMARK   10  A    between atoms: C_20  and  C_21
REMARK   11  A    between atoms: C_20  and  N_22
REMARK   12  A    between atoms: N_22  and  C_23
REMARK   13  A    between atoms: N_22  and  C_24
REMARK   14  A    between atoms: C_24  and  C_25
REMARK   15  A    between atoms: C_25  and  C_26
REMARK   16  A    between atoms: C_29  and  O_30
REMARK   17  A    between atoms: O_30  and  C_31
REMARK   18  A    between atoms: C_32  and  O_33
REMARK   19  A    between atoms: O_33  and  C_34
REMARK                            x       y       z     vdW  Elec       q    Type
REMARK                         _______ _______ _______ _____ _____    ______ ____
ROOT
ATOM      1  C   UNL     1      -0.981  11.974  22.719  0.00  0.00    +0.000 A 
ATOM      2  C   UNL     1      -1.156  10.751  23.361  0.00  0.00    +0.000 A 
ATOM      3  C   UNL     1      -0.616   9.576  22.821  0.00  0.00    +0.000 A 
ATOM      4  C   UNL     1       0.136   9.608  21.639  0.00  0.00    +0.000 A 
ATOM      5  C   UNL     1       0.326  10.842  20.988  0.00  0.00    +0.000 A 
ATOM      6  C   UNL     1      -0.260  12.009  21.528  0.00  0.00    +0.000 A 
ENDROOT
BRANCH   1   8
ATOM      7  C   UNL     1      -1.520  14.290  22.646  0.00  0.00    +0.000 C 
ATOM      8  O   UNL     1      -1.523  13.055  23.356  0.00  0.00    +0.000 OA
ENDBRANCH   1   8
BRANCH   4   9
ATOM      9  C   UNL     1       0.713   8.366  21.178  0.00  0.00    +0.000 C 
ATOM     10  C   UNL     1       1.217   7.355  20.762  0.00  0.00    +0.000 C 
BRANCH  10  11
ATOM     11  C   UNL     1       1.850   6.142  20.319  0.00  0.00    +0.000 A 
ATOM     12  C   UNL     1       2.550   6.078  19.125  0.00  0.00    +0.000 A 
ATOM     13  C   UNL     1       3.195   4.879  18.753  0.00  0.00    +0.000 A 
ATOM     14  C   UNL     1       3.205   3.734  19.574  0.00  0.00    +0.000 A 
ATOM     15  C   UNL     1       2.505   3.837  20.777  0.00  0.00    +0.000 A 
ATOM     16  C   UNL     1       1.789   4.999  21.106  0.00  0.00    +0.000 A 
BRANCH  14  17
ATOM     17  N   UNL     1       3.865   2.578  19.196  0.00  0.00    +0.000 N 
ATOM     18  C   UNL     1       4.652   1.775  20.126  0.00  0.00    +0.000 C 
ATOM     19  C   UNL     1       3.621   1.980  17.890  0.00  0.00    +0.000 C 
ENDBRANCH  14  17
ENDBRANCH  10  11
ENDBRANCH   4   9
BRANCH   5  20
ATOM     20  C   UNL     1       1.213  11.023  19.775  0.00  0.00    +0.000 C 
BRANCH  20  21
ATOM     21  C   UNL     1       0.556  10.804  18.389  0.00  0.00    +0.000 C 
ATOM     22  C   UNL     1       0.779   9.393  17.818  0.00  0.00    +0.000 C 
BRANCH  21  23
ATOM     23  N   UNL     1      -0.898  11.133  18.366  0.00  0.00    +0.000 NA
ATOM     24  C   UNL     1      -1.203  12.559  18.254  0.00  0.00    +0.000 C 
BRANCH  23  25
ATOM     25  C   UNL     1      -1.647  10.404  17.329  0.00  0.00    +0.000 C 
BRANCH  25  26
ATOM     26  C   UNL     1      -2.908   9.697  17.828  0.00  0.00    +0.000 C 
BRANCH  26  27
ATOM     27  C   UNL     1      -4.167  10.504  17.765  0.00  0.00    +0.000 A 
ATOM     28  C   UNL     1      -4.318  11.564  16.873  0.00  0.00    +0.000 A 
ATOM     29  C   UNL     1      -5.489  12.315  16.900  0.00  0.00    +0.000 A 
ATOM     30  C   UNL     1      -6.516  12.008  17.805  0.00  0.00    +0.000 A 
ATOM     31  C   UNL     1      -6.358  10.955  18.721  0.00  0.00    +0.000 A 
ATOM     32  C   UNL     1      -5.180  10.213  18.682  0.00  0.00    +0.000 A 
BRANCH  30  33
ATOM     33  O   UNL     1      -7.587  12.861  17.714  0.00  0.00    +0.000 OA
ATOM     34  C   UNL     1      -7.346  14.068  17.003  0.00  0.00    +0.000 C 
ENDBRANCH  30  33
BRANCH  31  35
ATOM     35  O   UNL     1      -7.348  10.717  19.638  0.00  0.00    +0.000 OA
ATOM     36  C   UNL     1      -7.284  11.443  20.864  0.00  0.00    +0.000 C 
ENDBRANCH  31  35
ENDBRANCH  26  27
ENDBRANCH  25  26
ENDBRANCH  23  25
ENDBRANCH  21  23
ENDBRANCH  20  21
ENDBRANCH   5  20
TORSDOF 12
ENDMDL
MODEL 2
REMARK VINA RESULT:      -7.3      2.308      4.112
REMARK  Name = 
REMARK  19 active torsions:
REMARK  status: ('A' for Active; 'I' for Inactive)
REMARK    1  A    between atoms: C_1  and  O_2
REMARK    2  A    between atoms: O_2  and  C_3
REMARK    3  A    between atoms: C_6  and  C_7
REMARK    4  A    between atoms: C_8  and  C_9
REMARK    5  A    between atoms: C_12  and  N_13
REMARK    6  A    between atoms: N_13  and  C_14
REMARK    7  A    between atoms: N_13  and  C_15
REMARK    8  A    between atoms: C_18  and  C_19
REMARK    9  A    between atoms: C_19  and  C_20
REMARK   10  A    between atoms: C_20  and  C_21
REMARK   11  A    between atoms: C_20  and  N_22
REMARK   12  A    between atoms: N_22  and  C_23
REMARK   13  A    between atoms: N_22  and  C_24
REMARK   14  A    between atoms: C_24  and  C_25
REMARK   15  A    between atoms: C_25  and  C_26
REMARK   16  A    between atoms: C_29  and  O_30
REMARK   17  A    between atoms: O_30  and  C_31
REMARK   18  A    between atoms: C_32  and  O_33
REMARK   19  A    between atoms: O_33  and  C_34
REMARK                            x       y       z     vdW  Elec       q    Type
REMARK                         _______ _______ _______ _____ _____    ______ ____
ROOT
ATOM      1  C   UNL     1      -2.756  13.997  24.018  0.00  0.00    +0.000 A 
ATOM      2  C   UNL     1      -3.121  12.657  23.909  0.00  0.00    +0.000 A 
ATOM      3  C   UNL     1      -2.371  11.774  23.122  0.00  0.00    +0.000 A 
ATOM      4  C   UNL     1      -1.222  12.210  22.449  0.00  0.00    +0.000 A 
ATOM      5  C   UNL     1      -0.840  13.560  22.560  0.00  0.00    +0.000 A 
ATOM      6  C   UNL     1      -1.633  14.444  23.327  0.00  0.00    +0.000 A 
ENDROOT
BRANCH   1   8
ATOM      7  C   UNL     1      -3.779  16.103  24.442  0.00  0.00    +0.000 C 
ATOM      8  O   UNL     1      -3.543  14.755  24.839  0.00  0.00    +0.000 OA
ENDBRANCH   1   8
BRANCH   4   9
ATOM      9  C   UNL     1      -0.465  11.226  21.708  0.00  0.00    +0.000 C 
ATOM     10  C   UNL     1       0.132  10.376  21.099  0.00  0.00    +0.000 C 
BRANCH  10  11
ATOM     11  C   UNL     1       0.836   9.395  20.319  0.00  0.00    +0.000 A 
ATOM     12  C   UNL     1       1.171   9.620  18.994  0.00  0.00    +0.000 A 
ATOM     13  C   UNL     1       1.904   8.646  18.280  0.00  0.00    +0.000 A 
ATOM     14  C   UNL     1       2.363   7.453  18.873  0.00  0.00    +0.000 A 
ATOM     15  C   UNL     1       2.022   7.266  20.214  0.00  0.00    +0.000 A 
ATOM     16  C   UNL     1       1.218   8.191  20.897  0.00  0.00    +0.000 A 
BRANCH  14  17
ATOM     17  N   UNL     1       3.099   6.526  18.158  0.00  0.00    +0.000 N 
ATOM     18  C   UNL     1       4.295   6.877  17.400  0.00  0.00    +0.000 C 
ATOM     19  C   UNL     1       2.840   5.100  18.310  0.00  0.00    +0.000 C 
ENDBRANCH  14  17
ENDBRANCH  10  11
ENDBRANCH   4   9
BRANCH   5  20
ATOM     20  C   UNL     1       0.439  14.122  21.979  0.00  0.00    +0.000 C 
BRANCH  20  21
ATOM     21  C   UNL     1       0.321  15.437  21.168  0.00  0.00    +0.000 C 
ATOM     22  C   UNL     1       1.111  16.609  21.777  0.00  0.00    +0.000 C 
BRANCH  21  23
ATOM     23  N   UNL     1       0.685  15.278  19.731  0.00  0.00    +0.000 NA
ATOM     24  C   UNL     1       1.918  14.529  19.489  0.00  0.00    +0.000 C 
BRANCH  23  25
ATOM     25  C   UNL     1      -0.393  14.695  18.915  0.00  0.00    +0.000 C 
BRANCH  25  26
ATOM     26  C   UNL     1      -0.291  13.183  18.705  0.00  0.00    +0.000 C 
BRANCH  26  27
ATOM     27  C   UNL     1      -1.591  12.476  18.483  0.00  0.00    +0.000 A 
ATOM     28  C   UNL     1      -2.688  12.671  19.320  0.00  0.00    +0.000 A 
ATOM     29  C   UNL     1      -3.852  11.941  19.099  0.00  0.00    +0.000 A 
ATOM     30  C   UNL     1      -3.933  11.026  18.039  0.00  0.00    +0.000 A 
ATOM     31  C   UNL     1      -2.822  10.810  17.207  0.00  0.00    +0.000 A 
ATOM     32  C   UNL     1      -1.663  11.547  17.442  0.00  0.00    +0.000 A 
BRANCH  30  33
ATOM     33  O   UNL     1      -5.140  10.377  17.978  0.00  0.00    +0.000 OA
ATOM     34  C   UNL     1      -6.198  10.989  18.703  0.00  0.00    +0.000 C 
ENDBRANCH  30  33
BRANCH  31  35
ATOM     35  O   UNL     1      -2.904   9.863  16.219  0.00  0.00    +0.000 OA
ATOM     36  C   UNL     1      -3.150  10.330  14.894  0.00  0.00    +0.000 C 
ENDBRANCH  31  35
ENDBRANCH  26  27
ENDBRANCH  25  26
ENDBRANCH  23  25
ENDBRANCH  21  23
ENDBRANCH  20  21
ENDBRANCH   5  20
TORSDOF 12
ENDMDL
MODEL 3
REMARK VINA RESULT:      -7.3      6.228     11.776
REMARK  Name = 
REMARK  19 active torsions:
REMARK  status: ('A' for Active; 'I' for Inactive)
REMARK    1  A    between atoms: C_1  and  O_2
REMARK    2  A    between atoms: O_2  and  C_3
REMARK    3  A    between atoms: C_6  and  C_7
REMARK    4  A    between atoms: C_8  and  C_9
REMARK    5  A    between atoms: C_12  and  N_13
REMARK    6  A    between atoms: N_13  and  C_14
REMARK    7  A    between atoms: N_13  and  C_15
REMARK    8  A    between atoms: C_18  and  C_19
REMARK    9  A    between atoms: C_19  and  C_20
REMARK   10  A    between atoms: C_20  and  C_21
REMARK   11  A    between atoms: C_20  and  N_22
REMARK   12  A    between atoms: N_22  and  C_23
REMARK   13  A    between atoms: N_22  and  C_24
REMARK   14  A    between atoms: C_24  and  C_25
REMARK   15  A    between atoms: C_25  and  C_26
REMARK   16  A    between atoms: C_29  and  O_30
REMARK   17  A    between atoms: O_30  and  C_31
REMARK   18  A    between atoms: C_32  and  O_33
REMARK   19  A    between atoms: O_33  and  C_34
REMARK                            x       y       z     vdW  Elec       q    Type
REMARK                         _______ _______ _______ _____ _____    ______ ____
ROOT
ATOM      1  C   UNL     1       3.074   3.493  17.535  0.00  0.00    +0.000 A 
ATOM      2  C   UNL     1       1.794   3.927  17.868  0.00  0.00    +0.000 A 
ATOM      3  C   UNL     1       1.539   5.284  18.106  0.00  0.00    +0.000 A 
ATOM      4  C   UNL     1       2.557   6.238  17.987  0.00  0.00    +0.000 A 
ATOM      5  C   UNL     1       3.853   5.810  17.641  0.00  0.00    +0.000 A 
ATOM      6  C   UNL     1       4.098   4.432  17.444  0.00  0.00    +0.000 A 
ENDROOT
BRANCH   1   8
ATOM      7  C   UNL     1       3.574   1.331  18.393  0.00  0.00    +0.000 C 
ATOM      8  O   UNL     1       3.196   2.153  17.293  0.00  0.00    +0.000 OA
ENDBRANCH   1   8
BRANCH   4   9
ATOM      9  C   UNL     1       2.203   7.626  18.186  0.00  0.00    +0.000 C 
ATOM     10  C   UNL     1       1.866   8.768  18.362  0.00  0.00    +0.000 C 
BRANCH  10  11
ATOM     11  C   UNL     1       1.501  10.134  18.622  0.00  0.00    +0.000 A 
ATOM     12  C   UNL     1       2.329  11.189  18.276  0.00  0.00    +0.000 A 
ATOM     13  C   UNL     1       1.909  12.516  18.509  0.00  0.00    +0.000 A 
ATOM     14  C   UNL     1       0.643  12.832  19.042  0.00  0.00    +0.000 A 
ATOM     15  C   UNL     1      -0.173  11.747  19.364  0.00  0.00    +0.000 A 
ATOM     16  C   UNL     1       0.280  10.426  19.217  0.00  0.00    +0.000 A 
BRANCH  14  17
ATOM     17  N   UNL     1       0.247  14.143  19.238  0.00  0.00    +0.000 N 
ATOM     18  C   UNL     1       0.886  15.273  18.572  0.00  0.00    +0.000 C 
ATOM     19  C   UNL     1      -0.986  14.443  19.956  0.00  0.00    +0.000 C 
ENDBRANCH  14  17
ENDBRANCH  10  11
ENDBRANCH   4   9
BRANCH   5  20
ATOM     20  C   UNL     1       5.004   6.753  17.369  0.00  0.00    +0.000 C 
BRANCH  20  21
ATOM     21  C   UNL     1       6.432   6.155  17.444  0.00  0.00    +0.000 C 
ATOM     22  C   UNL     1       7.135   6.069  16.078  0.00  0.00    +0.000 C 
BRANCH  21  23
ATOM     23  N   UNL     1       7.314   6.853  18.421  0.00  0.00    +0.000 NA
ATOM     24  C   UNL     1       8.016   5.971  19.354  0.00  0.00    +0.000 C 
BRANCH  23  25
ATOM     25  C   UNL     1       8.294   7.751  17.788  0.00  0.00    +0.000 C 
BRANCH  25  26
ATOM     26  C   UNL     1       7.859   9.215  17.699  0.00  0.00    +0.000 C 
BRANCH  26  27
ATOM     27  C   UNL     1       8.753  10.196  18.391  0.00  0.00    +0.000 A 
ATOM     28  C   UNL     1       9.144  10.027  19.717  0.00  0.00    +0.000 A 
ATOM     29  C   UNL     1       9.929  11.002  20.325  0.00  0.00    +0.000 A 
ATOM     30  C   UNL     1      10.337  12.140  19.612  0.00  0.00    +0.000 A 
ATOM     31  C   UNL     1       9.927  12.324  18.282  0.00  0.00    +0.000 A 
ATOM     32  C   UNL     1       9.140  11.340  17.687  0.00  0.00    +0.000 A 
BRANCH  30  33
ATOM     33  O   UNL     1      11.085  13.009  20.366  0.00  0.00    +0.000 OA
ATOM     34  C   UNL     1      10.344  13.856  21.234  0.00  0.00    +0.000 C 
ENDBRANCH  30  33
BRANCH  31  35
ATOM     35  O   UNL     1      10.284  13.474  17.628  0.00  0.00    +0.000 OA
ATOM     36  C   UNL     1      11.262  13.355  16.596  0.00  0.00    +0.000 C 
ENDBRANCH  31  35
ENDBRANCH  26  27
ENDBRANCH  25  26
ENDBRANCH  23  25
ENDBRANCH  21  23
ENDBRANCH  20  21
ENDBRANCH   5  20
TORSDOF 12
ENDMDL
MODEL 4
REMARK VINA RESULT:      -6.8      1.445      2.103
REMARK  Name = 
REMARK  19 active torsions:
REMARK  status: ('A' for Active; 'I' for Inactive)
REMARK    1  A    between atoms: C_1  and  O_2
REMARK    2  A    between atoms: O_2  and  C_3
REMARK    3  A    between atoms: C_6  and  C_7
REMARK    4  A    between atoms: C_8  and  C_9
REMARK    5  A    between atoms: C_12  and  N_13
REMARK    6  A    between atoms: N_13  and  C_14
REMARK    7  A    between atoms: N_13  and  C_15
REMARK    8  A    between atoms: C_18  and  C_19
REMARK    9  A    between atoms: C_19  and  C_20
REMARK   10  A    between atoms: C_20  and  C_21
REMARK   11  A    between atoms: C_20  and  N_22
REMARK   12  A    between atoms: N_22  and  C_23
REMARK   13  A    between atoms: N_22  and  C_24
REMARK   14  A    between atoms: C_24  and  C_25
REMARK   15  A    between atoms: C_25  and  C_26
REMARK   16  A    between atoms: C_29  and  O_30
REMARK   17  A    between atoms: O_30  and  C_31
REMARK   18  A    between atoms: C_32  and  O_33
REMARK   19  A    between atoms: O_33  and  C_34
REMARK                            x       y       z     vdW  Elec       q    Type
REMARK                         _______ _______ _______ _____ _____    ______ ____
ROOT
ATOM      1  C   UNL     1      -1.374  12.905  23.104  0.00  0.00    +0.000 A 
ATOM      2  C   UNL     1      -1.765  11.615  23.453  0.00  0.00    +0.000 A 
ATOM      3  C   UNL     1      -1.153  10.500  22.866  0.00  0.00    +0.000 A 
ATOM      4  C   UNL     1      -0.115  10.655  21.938  0.00  0.00    +0.000 A 
ATOM      5  C   UNL     1       0.293  11.956  21.587  0.00  0.00    +0.000 A 
ATOM      6  C   UNL     1      -0.364  13.067  22.160  0.00  0.00    +0.000 A 
ENDROOT
BRANCH   1   8
ATOM      7  C   UNL     1      -1.204  14.924  24.351  0.00  0.00    +0.000 C 
ATOM      8  O   UNL     1      -2.019  13.913  23.766  0.00  0.00    +0.000 OA
ENDBRANCH   1   8
BRANCH   4   9
ATOM      9  C   UNL     1       0.510   9.457  21.424  0.00  0.00    +0.000 C 
ATOM     10  C   UNL     1       0.996   8.455  20.966  0.00  0.00    +0.000 C 
BRANCH  10  11
ATOM     11  C   UNL     1       1.625   7.295  20.397  0.00  0.00    +0.000 A 
ATOM     12  C   UNL     1       1.451   6.031  20.940  0.00  0.00    +0.000 A 
ATOM     13  C   UNL     1       2.050   4.913  20.320  0.00  0.00    +0.000 A 
ATOM     14  C   UNL     1       2.792   5.011  19.126  0.00  0.00    +0.000 A 
ATOM     15  C   UNL     1       2.933   6.295  18.597  0.00  0.00    +0.000 A 
ATOM     16  C   UNL     1       2.414   7.417  19.261  0.00  0.00    +0.000 A 
BRANCH  14  17
ATOM     17  N   UNL     1       3.349   3.896  18.526  0.00  0.00    +0.000 N 
ATOM     18  C   UNL     1       4.503   3.193  19.077  0.00  0.00    +0.000 C 
ATOM     19  C   UNL     1       2.667   3.230  17.424  0.00  0.00    +0.000 C 
ENDBRANCH  14  17
ENDBRANCH  10  11
ENDBRANCH   4   9
BRANCH   5  20
ATOM     20  C   UNL     1       1.475  12.251  20.689  0.00  0.00    +0.000 C 
BRANCH  20  21
ATOM     21  C   UNL     1       1.207  12.274  19.164  0.00  0.00    +0.000 C 
ATOM     22  C   UNL     1       1.707  11.016  18.431  0.00  0.00    +0.000 C 
BRANCH  21  23
ATOM     23  N   UNL     1      -0.221  12.523  18.819  0.00  0.00    +0.000 NA
ATOM     24  C   UNL     1      -0.440  13.590  17.842  0.00  0.00    +0.000 C 
BRANCH  23  25
ATOM     25  C   UNL     1      -0.935  11.316  18.370  0.00  0.00    +0.000 C 
BRANCH  25  26
ATOM     26  C   UNL     1      -2.162  11.585  17.498  0.00  0.00    +0.000 C 
BRANCH  26  27
ATOM     27  C   UNL     1      -3.483  11.486  18.197  0.00  0.00    +0.000 A 
ATOM     28  C   UNL     1      -4.448  10.556  17.817  0.00  0.00    +0.000 A 
ATOM     29  C   UNL     1      -5.679  10.550  18.465  0.00  0.00    +0.000 A 
ATOM     30  C   UNL     1      -5.949  11.458  19.500  0.00  0.00    +0.000 A 
ATOM     31  C   UNL     1      -4.986  12.412  19.870  0.00  0.00    +0.000 A 
ATOM     32  C   UNL     1      -3.759  12.407  19.211  0.00  0.00    +0.000 A 
BRANCH  30  33
ATOM     33  O   UNL     1      -7.215  11.330  20.013  0.00  0.00    +0.000 OA
ATOM     34  C   UNL     1      -7.585  10.014  20.401  0.00  0.00    +0.000 C 
ENDBRANCH  30  33
BRANCH  31  35
ATOM     35  O   UNL     1      -5.297  13.330  20.839  0.00  0.00    +0.000 OA
ATOM     36  C   UNL     1      -4.911  13.017  22.176  0.00  0.00    +0.000 C 
ENDBRANCH  31  35
ENDBRANCH  26  27
ENDBRANCH  25  26
ENDBRANCH  23  25
ENDBRANCH  21  23
ENDBRANCH  20  21
ENDBRANCH   5  20
TORSDOF 12
ENDMDL
MODEL 5
REMARK VINA RESULT:      -6.7      1.848      2.846
REMARK  Name = 
REMARK  19 active torsions:
REMARK  status: ('A' for Active; 'I' for Inactive)
REMARK    1  A    between atoms: C_1  and  O_2
REMARK    2  A    between atoms: O_2  and  C_3
REMARK    3  A    between atoms: C_6  and  C_7
REMARK    4  A    between atoms: C_8  and  C_9
REMARK    5  A    between atoms: C_12  and  N_13
REMARK    6  A    between atoms: N_13  and  C_14
REMARK    7  A    between atoms: N_13  and  C_15
REMARK    8  A    between atoms: C_18  and  C_19
REMARK    9  A    between atoms: C_19  and  C_20
REMARK   10  A    between atoms: C_20  and  C_21
REMARK   11  A    between atoms: C_20  and  N_22
REMARK   12  A    between atoms: N_22  and  C_23
REMARK   13  A    between atoms: N_22  and  C_24
REMARK   14  A    between atoms: C_24  and  C_25
REMARK   15  A    between atoms: C_25  and  C_26
REMARK   16  A    between atoms: C_29  and  O_30
REMARK   17  A    between atoms: O_30  and  C_31
REMARK   18  A    between atoms: C_32  and  O_33
REMARK   19  A    between atoms: O_33  and  C_34
REMARK                            x       y       z     vdW  Elec       q    Type
REMARK                         _______ _______ _______ _____ _____    ______ ____
ROOT
ATOM      1  C   UNL     1      -1.302  13.557  22.987  0.00  0.00    +0.000 A 
ATOM      2  C   UNL     1      -1.855  12.282  23.084  0.00  0.00    +0.000 A 
ATOM      3  C   UNL     1      -1.257  11.193  22.437  0.00  0.00    +0.000 A 
ATOM      4  C   UNL     1      -0.076  11.353  21.702  0.00  0.00    +0.000 A 
ATOM      5  C   UNL     1       0.496  12.636  21.606  0.00  0.00    +0.000 A 
ATOM      6  C   UNL     1      -0.144  13.729  22.233  0.00  0.00    +0.000 A 
ENDROOT
BRANCH   1   8
ATOM      7  C   UNL     1      -2.101  15.797  23.043  0.00  0.00    +0.000 C 
ATOM      8  O   UNL     1      -1.952  14.535  23.686  0.00  0.00    +0.000 OA
ENDBRANCH   1   8
BRANCH   4   9
ATOM      9  C   UNL     1       0.515  10.171  21.116  0.00  0.00    +0.000 C 
ATOM     10  C   UNL     1       1.012   9.209  20.589  0.00  0.00    +0.000 C 
BRANCH  10  11
ATOM     11  C   UNL     1       1.655   8.068  19.998  0.00  0.00    +0.000 A 
ATOM     12  C   UNL     1       2.222   8.122  18.735  0.00  0.00    +0.000 A 
ATOM     13  C   UNL     1       2.884   6.990  18.214  0.00  0.00    +0.000 A 
ATOM     14  C   UNL     1       3.043   5.796  18.945  0.00  0.00    +0.000 A 
ATOM     15  C   UNL     1       2.474   5.780  20.220  0.00  0.00    +0.000 A 
ATOM     16  C   UNL     1       1.739   6.874  20.704  0.00  0.00    +0.000 A 
BRANCH  14  17
ATOM     17  N   UNL     1       3.717   4.708  18.420  0.00  0.00    +0.000 N 
ATOM     18  C   UNL     1       3.453   4.182  17.085  0.00  0.00    +0.000 C 
ATOM     19  C   UNL     1       4.890   4.168  19.096  0.00  0.00    +0.000 C 
ENDBRANCH  14  17
ENDBRANCH  10  11
ENDBRANCH   4   9
BRANCH   5  20
ATOM     20  C   UNL     1       1.827  12.914  20.943  0.00  0.00    +0.000 C 
BRANCH  20  21
ATOM     21  C   UNL     1       1.787  13.574  19.542  0.00  0.00    +0.000 C 
ATOM     22  C   UNL     1       2.376  12.690  18.428  0.00  0.00    +0.000 C 
BRANCH  21  23
ATOM     23  N   UNL     1       0.427  14.041  19.148  0.00  0.00    +0.000 NA
ATOM     24  C   UNL     1       0.342  15.460  18.802  0.00  0.00    +0.000 C 
BRANCH  23  25
ATOM     25  C   UNL     1      -0.171  13.251  18.059  0.00  0.00    +0.000 C 
BRANCH  25  26
ATOM     26  C   UNL     1      -0.819  11.937  18.502  0.00  0.00    +0.000 C 
BRANCH  26  27
ATOM     27  C   UNL     1      -2.286  11.819  18.230  0.00  0.00    +0.000 A 
ATOM     28  C   UNL     1      -3.241  12.136  19.193  0.00  0.00    +0.000 A 
ATOM     29  C   UNL     1      -4.589  11.950  18.902  0.00  0.00    +0.000 A 
ATOM     30  C   UNL     1      -4.990  11.461  17.650  0.00  0.00    +0.000 A 
ATOM     31  C   UNL     1      -4.029  11.120  16.684  0.00  0.00    +0.000 A 
ATOM     32  C   UNL     1      -2.684  11.310  16.990  0.00  0.00    +0.000 A 
BRANCH  30  33
ATOM     33  O   UNL     1      -6.351  11.317  17.538  0.00  0.00    +0.000 OA
ATOM     34  C   UNL     1      -7.106  11.790  18.645  0.00  0.00    +0.000 C 
ENDBRANCH  30  33
BRANCH  31  35
ATOM     35  O   UNL     1      -4.444  10.583  15.493  0.00  0.00    +0.000 OA
ATOM     36  C   UNL     1      -3.429  10.146  14.591  0.00  0.00    +0.000 C 
ENDBRANCH  31  35
ENDBRANCH  26  27
ENDBRANCH  25  26
ENDBRANCH  23  25
ENDBRANCH  21  23
ENDBRANCH  20  21
ENDBRANCH   5  20
TORSDOF 12
ENDMDL
MODEL 6
REMARK VINA RESULT:      -6.7      2.539      5.391
REMARK  Name = 
REMARK  19 active torsions:
REMARK  status: ('A' for Active; 'I' for Inactive)
REMARK    1  A    between atoms: C_1  and  O_2
REMARK    2  A    between atoms: O_2  and  C_3
REMARK    3  A    between atoms: C_6  and  C_7
REMARK    4  A    between atoms: C_8  and  C_9
REMARK    5  A    between atoms: C_12  and  N_13
REMARK    6  A    between atoms: N_13  and  C_14
REMARK    7  A    between atoms: N_13  and  C_15
REMARK    8  A    between atoms: C_18  and  C_19
REMARK    9  A    between atoms: C_19  and  C_20
REMARK   10  A    between atoms: C_20  and  C_21
REMARK   11  A    between atoms: C_20  and  N_22
REMARK   12  A    between atoms: N_22  and  C_23
REMARK   13  A    between atoms: N_22  and  C_24
REMARK   14  A    between atoms: C_24  and  C_25
REMARK   15  A    between atoms: C_25  and  C_26
REMARK   16  A    between atoms: C_29  and  O_30
REMARK   17  A    between atoms: O_30  and  C_31
REMARK   18  A    between atoms: C_32  and  O_33
REMARK   19  A    between atoms: O_33  and  C_34
REMARK                            x       y       z     vdW  Elec       q    Type
REMARK                         _______ _______ _______ _____ _____    ______ ____
ROOT
ATOM      1  C   UNL     1      -2.633  11.556  18.213  0.00  0.00    +0.000 A 
ATOM      2  C   UNL     1      -2.502  10.499  17.315  0.00  0.00    +0.000 A 
ATOM      3  C   UNL     1      -1.331   9.730  17.283  0.00  0.00    +0.000 A 
ATOM      4  C   UNL     1      -0.278   9.987  18.170  0.00  0.00    +0.000 A 
ATOM      5  C   UNL     1      -0.406  11.047  19.088  0.00  0.00    +0.000 A 
ATOM      6  C   UNL     1      -1.579  11.835  19.078  0.00  0.00    +0.000 A 
ENDROOT
BRANCH   1   8
ATOM      7  C   UNL     1      -4.982  11.479  18.585  0.00  0.00    +0.000 C 
ATOM      8  O   UNL     1      -3.831  12.213  18.176  0.00  0.00    +0.000 OA
ENDBRANCH   1   8
BRANCH   4   9
ATOM      9  C   UNL     1       0.871   9.111  18.119  0.00  0.00    +0.000 C 
ATOM     10  C   UNL     1       1.808   8.359  18.042  0.00  0.00    +0.000 C 
BRANCH  10  11
ATOM     11  C   UNL     1       2.962   7.510  17.931  0.00  0.00    +0.000 A 
ATOM     12  C   UNL     1       3.141   6.410  18.755  0.00  0.00    +0.000 A 
ATOM     13  C   UNL     1       4.267   5.577  18.578  0.00  0.00    +0.000 A 
ATOM     14  C   UNL     1       5.213   5.782  17.555  0.00  0.00    +0.000 A 
ATOM     15  C   UNL     1       4.994   6.888  16.732  0.00  0.00    +0.000 A 
ATOM     16  C   UNL     1       3.924   7.768  16.963  0.00  0.00    +0.000 A 
BRANCH  14  17
ATOM     17  N   UNL     1       6.295   4.936  17.389  0.00  0.00    +0.000 N 
ATOM     18  C   UNL     1       6.418   4.017  16.262  0.00  0.00    +0.000 C 
ATOM     19  C   UNL     1       7.483   5.083  18.221  0.00  0.00    +0.000 C 
ENDBRANCH  14  17
ENDBRANCH  10  11
ENDBRANCH   4   9
BRANCH   5  20
ATOM     20  C   UNL     1       0.608  11.348  20.170  0.00  0.00    +0.000 C 
BRANCH  20  21
ATOM     21  C   UNL     1       1.764  12.311  19.799  0.00  0.00    +0.000 C 
ATOM     22  C   UNL     1       1.686  12.837  18.355  0.00  0.00    +0.000 C 
BRANCH  21  23
ATOM     23  N   UNL     1       1.907  13.454  20.744  0.00  0.00    +0.000 NA
ATOM     24  C   UNL     1       2.992  14.382  20.425  0.00  0.00    +0.000 C 
BRANCH  23  25
ATOM     25  C   UNL     1       0.664  14.222  20.928  0.00  0.00    +0.000 C 
BRANCH  25  26
ATOM     26  C   UNL     1       0.397  14.675  22.364  0.00  0.00    +0.000 C 
BRANCH  26  27
ATOM     27  C   UNL     1      -0.866  14.157  22.978  0.00  0.00    +0.000 A 
ATOM     28  C   UNL     1      -1.424  12.939  22.597  0.00  0.00    +0.000 A 
ATOM     29  C   UNL     1      -2.631  12.537  23.161  0.00  0.00    +0.000 A 
ATOM     30  C   UNL     1      -3.278  13.338  24.114  0.00  0.00    +0.000 A 
ATOM     31  C   UNL     1      -2.729  14.576  24.485  0.00  0.00    +0.000 A 
ATOM     32  C   UNL     1      -1.521  14.966  23.910  0.00  0.00    +0.000 A 
BRANCH  30  33
ATOM     33  O   UNL     1      -4.465  12.804  24.550  0.00  0.00    +0.000 OA
ATOM     34  C   UNL     1      -5.557  12.933  23.649  0.00  0.00    +0.000 C 
ENDBRANCH  30  33
BRANCH  31  35
ATOM     35  O   UNL     1      -3.413  15.369  25.369  0.00  0.00    +0.000 OA
ATOM     36  C   UNL     1      -4.247  16.386  24.816  0.00  0.00    +0.000 C 
ENDBRANCH  31  35
ENDBRANCH  26  27
ENDBRANCH  25  26
ENDBRANCH  23  25
ENDBRANCH  21  23
ENDBRANCH  20  21
ENDBRANCH   5  20
TORSDOF 12
ENDMDL
MODEL 7
REMARK VINA RESULT:      -6.7      5.475     11.043
REMARK  Name = 
REMARK  19 active torsions:
REMARK  status: ('A' for Active; 'I' for Inactive)
REMARK    1  A    between atoms: C_1  and  O_2
REMARK    2  A    between atoms: O_2  and  C_3
REMARK    3  A    between atoms: C_6  and  C_7
REMARK    4  A    between atoms: C_8  and  C_9
REMARK    5  A    between atoms: C_12  and  N_13
REMARK    6  A    between atoms: N_13  and  C_14
REMARK    7  A    between atoms: N_13  and  C_15
REMARK    8  A    between atoms: C_18  and  C_19
REMARK    9  A    between atoms: C_19  and  C_20
REMARK   10  A    between atoms: C_20  and  C_21
REMARK   11  A    between atoms: C_20  and  N_22
REMARK   12  A    between atoms: N_22  and  C_23
REMARK   13  A    between atoms: N_22  and  C_24
REMARK   14  A    between atoms: C_24  and  C_25
REMARK   15  A    between atoms: C_25  and  C_26
REMARK   16  A    between atoms: C_29  and  O_30
REMARK   17  A    between atoms: O_30  and  C_31
REMARK   18  A    between atoms: C_32  and  O_33
REMARK   19  A    between atoms: O_33  and  C_34
REMARK                            x       y       z     vdW  Elec       q    Type
REMARK                         _______ _______ _______ _____ _____    ______ ____
ROOT
ATOM      1  C   UNL     1       3.266   3.611  19.767  0.00  0.00    +0.000 A 
ATOM      2  C   UNL     1       2.254   3.980  20.650  0.00  0.00    +0.000 A 
ATOM      3  C   UNL     1       1.796   5.303  20.700  0.00  0.00    +0.000 A 
ATOM      4  C   UNL     1       2.325   6.279  19.845  0.00  0.00    +0.000 A 
ATOM      5  C   UNL     1       3.342   5.913  18.942  0.00  0.00    +0.000 A 
ATOM      6  C   UNL     1       3.817   4.582  18.936  0.00  0.00    +0.000 A 
ENDROOT
BRANCH   1   8
ATOM      7  C   UNL     1       3.340   1.538  18.603  0.00  0.00    +0.000 C 
ATOM      8  O   UNL     1       3.607   2.288  19.785  0.00  0.00    +0.000 OA
ENDBRANCH   1   8
BRANCH   4   9
ATOM      9  C   UNL     1       1.758   7.607  19.911  0.00  0.00    +0.000 C 
ATOM     10  C   UNL     1       1.301   8.717  20.009  0.00  0.00    +0.000 C 
BRANCH  10  11
ATOM     11  C   UNL     1       0.798  10.061  20.081  0.00  0.00    +0.000 A 
ATOM     12  C   UNL     1       0.447  10.645  21.288  0.00  0.00    +0.000 A 
ATOM     13  C   UNL     1       0.001  11.984  21.316  0.00  0.00    +0.000 A 
ATOM     14  C   UNL     1      -0.062  12.791  20.162  0.00  0.00    +0.000 A 
ATOM     15  C   UNL     1       0.315  12.177  18.966  0.00  0.00    +0.000 A 
ATOM     16  C   UNL     1       0.672  10.820  18.924  0.00  0.00    +0.000 A 
BRANCH  14  17
ATOM     17  N   UNL     1      -0.480  14.108  20.221  0.00  0.00    +0.000 N 
ATOM     18  C   UNL     1      -1.152  14.675  21.385  0.00  0.00    +0.000 C 
ATOM     19  C   UNL     1      -0.068  15.061  19.198  0.00  0.00    +0.000 C 
ENDBRANCH  14  17
ENDBRANCH  10  11
ENDBRANCH   4   9
BRANCH   5  20
ATOM     20  C   UNL     1       3.907   6.844  17.892  0.00  0.00    +0.000 C 
BRANCH  20  21
ATOM     21  C   UNL     1       5.149   6.347  17.111  0.00  0.00    +0.000 C 
ATOM     22  C   UNL     1       5.148   6.757  15.628  0.00  0.00    +0.000 C 
BRANCH  21  23
ATOM     23  N   UNL     1       6.440   6.743  17.742  0.00  0.00    +0.000 NA
ATOM     24  C   UNL     1       7.609   6.005  17.261  0.00  0.00    +0.000 C 
BRANCH  23  25
ATOM     25  C   UNL     1       6.719   8.185  17.652  0.00  0.00    +0.000 C 
BRANCH  25  26
ATOM     26  C   UNL     1       8.200   8.544  17.513  0.00  0.00    +0.000 C 
BRANCH  26  27
ATOM     27  C   UNL     1       8.636   9.775  18.244  0.00  0.00    +0.000 A 
ATOM     28  C   UNL     1       9.131   9.721  19.545  0.00  0.00    +0.000 A 
ATOM     29  C   UNL     1       9.466  10.905  20.196  0.00  0.00    +0.000 A 
ATOM     30  C   UNL     1       9.321  12.142  19.551  0.00  0.00    +0.000 A 
ATOM     31  C   UNL     1       8.801  12.202  18.247  0.00  0.00    +0.000 A 
ATOM     32  C   UNL     1       8.469  11.008  17.610  0.00  0.00    +0.000 A 
BRANCH  30  33
ATOM     33  O   UNL     1       9.674  13.207  20.341  0.00  0.00    +0.000 OA
ATOM     34  C   UNL     1       8.659  13.679  21.217  0.00  0.00    +0.000 C 
ENDBRANCH  30  33
BRANCH  31  35
ATOM     35  O   UNL     1       8.608  13.427  17.663  0.00  0.00    +0.000 OA
ATOM     36  C   UNL     1       7.272  13.926  17.633  0.00  0.00    +0.000 C 
ENDBRANCH  31  35
ENDBRANCH  26  27
ENDBRANCH  25  26
ENDBRANCH  23  25
ENDBRANCH  21  23
ENDBRANCH  20  21
ENDBRANCH   5  20
TORSDOF 12
ENDMDL
MODEL 8
REMARK VINA RESULT:      -6.6      2.826      7.407
REMARK  Name = 
REMARK  19 active torsions:
REMARK  status: ('A' for Active; 'I' for Inactive)
REMARK    1  A    between atoms: C_1  and  O_2
REMARK    2  A    between atoms: O_2  and  C_3
REMARK    3  A    between atoms: C_6  and  C_7
REMARK    4  A    between atoms: C_8  and  C_9
REMARK    5  A    between atoms: C_12  and  N_13
REMARK    6  A    between atoms: N_13  and  C_14
REMARK    7  A    between atoms: N_13  and  C_15
REMARK    8  A    between atoms: C_18  and  C_19
REMARK    9  A    between atoms: C_19  and  C_20
REMARK   10  A    between atoms: C_20  and  C_21
REMARK   11  A    between atoms: C_20  and  N_22
REMARK   12  A    between atoms: N_22  and  C_23
REMARK   13  A    between atoms: N_22  and  C_24
REMARK   14  A    between atoms: C_24  and  C_25
REMARK   15  A    between atoms: C_25  and  C_26
REMARK   16  A    between atoms: C_29  and  O_30
REMARK   17  A    between atoms: O_30  and  C_31
REMARK   18  A    between atoms: C_32  and  O_33
REMARK   19  A    between atoms: O_33  and  C_34
REMARK                            x       y       z     vdW  Elec       q    Type
REMARK                         _______ _______ _______ _____ _____    ______ ____
ROOT
ATOM      1  C   UNL     1       2.322   6.967  19.229  0.00  0.00    +0.000 A 
ATOM      2  C   UNL     1       1.815   6.783  20.513  0.00  0.00    +0.000 A 
ATOM      3  C   UNL     1       1.147   7.823  21.173  0.00  0.00    +0.000 A 
ATOM      4  C   UNL     1       0.949   9.061  20.549  0.00  0.00    +0.000 A 
ATOM      5  C   UNL     1       1.451   9.254  19.247  0.00  0.00    +0.000 A 
ATOM      6  C   UNL     1       2.156   8.205  18.614  0.00  0.00    +0.000 A 
ENDROOT
BRANCH   1   8
ATOM      7  C   UNL     1       4.052   5.339  19.359  0.00  0.00    +0.000 C 
ATOM      8  O   UNL     1       2.924   5.874  18.672  0.00  0.00    +0.000 OA
ENDBRANCH   1   8
BRANCH   4   9
ATOM      9  C   UNL     1       0.197  10.063  21.270  0.00  0.00    +0.000 C 
ATOM     10  C   UNL     1      -0.398  10.896  21.903  0.00  0.00    +0.000 C 
BRANCH  10  11
ATOM     11  C   UNL     1      -1.096  11.933  22.612  0.00  0.00    +0.000 A 
ATOM     12  C   UNL     1      -0.535  13.184  22.814  0.00  0.00    +0.000 A 
ATOM     13  C   UNL     1      -1.277  14.187  23.476  0.00  0.00    +0.000 A 
ATOM     14  C   UNL     1      -2.603  13.993  23.909  0.00  0.00    +0.000 A 
ATOM     15  C   UNL     1      -3.144  12.727  23.676  0.00  0.00    +0.000 A 
ATOM     16  C   UNL     1      -2.377  11.702  23.098  0.00  0.00    +0.000 A 
BRANCH  14  17
ATOM     17  N   UNL     1      -3.316  14.999  24.535  0.00  0.00    +0.000 N 
ATOM     18  C   UNL     1      -4.754  15.178  24.363  0.00  0.00    +0.000 C 
ATOM     19  C   UNL     1      -2.697  15.802  25.582  0.00  0.00    +0.000 C 
ENDBRANCH  14  17
ENDBRANCH  10  11
ENDBRANCH   4   9
BRANCH   5  20
ATOM     20  C   UNL     1       1.200  10.500  18.427  0.00  0.00    +0.000 C 
BRANCH  20  21
ATOM     21  C   UNL     1       2.076  11.737  18.747  0.00  0.00    +0.000 C 
ATOM     22  C   UNL     1       2.983  12.168  17.581  0.00  0.00    +0.000 C 
BRANCH  21  23
ATOM     23  N   UNL     1       1.291  12.907  19.233  0.00  0.00    +0.000 NA
ATOM     24  C   UNL     1       2.004  14.184  19.193  0.00  0.00    +0.000 C 
BRANCH  23  25
ATOM     25  C   UNL     1      -0.005  13.066  18.555  0.00  0.00    +0.000 C 
BRANCH  25  26
ATOM     26  C   UNL     1      -1.158  13.489  19.466  0.00  0.00    +0.000 C 
BRANCH  26  27
ATOM     27  C   UNL     1      -2.457  12.781  19.233  0.00  0.00    +0.000 A 
ATOM     28  C   UNL     1      -3.579  13.023  20.023  0.00  0.00    +0.000 A 
ATOM     29  C   UNL     1      -4.741  12.292  19.796  0.00  0.00    +0.000 A 
ATOM     30  C   UNL     1      -4.794  11.330  18.777  0.00  0.00    +0.000 A 
ATOM     31  C   UNL     1      -3.659  11.068  17.993  0.00  0.00    +0.000 A 
ATOM     32  C   UNL     1      -2.502  11.806  18.233  0.00  0.00    +0.000 A 
BRANCH  30  33
ATOM     33  O   UNL     1      -6.005  10.688  18.705  0.00  0.00    +0.000 OA
ATOM     34  C   UNL     1      -7.068  11.452  18.151  0.00  0.00    +0.000 C 
ENDBRANCH  30  33
BRANCH  31  35
ATOM     35  O   UNL     1      -3.717  10.078  17.047  0.00  0.00    +0.000 OA
ATOM     36  C   UNL     1      -2.720  10.098  16.027  0.00  0.00    +0.000 C 
ENDBRANCH  31  35
ENDBRANCH  26  27
ENDBRANCH  25  26
ENDBRANCH  23  25
ENDBRANCH  21  23
ENDBRANCH  20  21
ENDBRANCH   5  20
TORSDOF 12
ENDMDL
MODEL 9
REMARK VINA RESULT:      -6.6      2.394      4.733
REMARK  Name = 
REMARK  19 active torsions:
REMARK  status: ('A' for Active; 'I' for Inactive)
REMARK    1  A    between atoms: C_1  and  O_2
REMARK    2  A    between atoms: O_2  and  C_3
REMARK    3  A    between atoms: C_6  and  C_7
REMARK    4  A    between atoms: C_8  and  C_9
REMARK    5  A    between atoms: C_12  and  N_13
REMARK    6  A    between atoms: N_13  and  C_14
REMARK    7  A    between atoms: N_13  and  C_15
REMARK    8  A    between atoms: C_18  and  C_19
REMARK    9  A    between atoms: C_19  and  C_20
REMARK   10  A    between atoms: C_20  and  C_21
REMARK   11  A    between atoms: C_20  and  N_22
REMARK   12  A    between atoms: N_22  and  C_23
REMARK   13  A    between atoms: N_22  and  C_24
REMARK   14  A    between atoms: C_24  and  C_25
REMARK   15  A    between atoms: C_25  and  C_26
REMARK   16  A    between atoms: C_29  and  O_30
REMARK   17  A    between atoms: O_30  and  C_31
REMARK   18  A    between atoms: C_32  and  O_33
REMARK   19  A    between atoms: O_33  and  C_34
REMARK                            x       y       z     vdW  Elec       q    Type
REMARK                         _______ _______ _______ _____ _____    ______ ____
ROOT
ATOM      1  C   UNL     1      -3.515  11.571  17.852  0.00  0.00    +0.000 A 
ATOM      2  C   UNL     1      -3.212  10.605  16.895  0.00  0.00    +0.000 A 
ATOM      3  C   UNL     1      -1.997   9.910  16.940  0.00  0.00    +0.000 A 
ATOM      4  C   UNL     1      -1.069  10.150  17.963  0.00  0.00    +0.000 A 
ATOM      5  C   UNL     1      -1.370  11.118  18.940  0.00  0.00    +0.000 A 
ATOM      6  C   UNL     1      -2.585  11.835  18.854  0.00  0.00    +0.000 A 
ENDROOT
BRANCH   1   8
ATOM      7  C   UNL     1      -5.878  11.341  17.993  0.00  0.00    +0.000 C 
ATOM      8  O   UNL     1      -4.742  12.159  17.726  0.00  0.00    +0.000 OA
ENDBRANCH   1   8
BRANCH   4   9
ATOM      9  C   UNL     1       0.134   9.349  17.978  0.00  0.00    +0.000 C 
ATOM     10  C   UNL     1       1.116   8.654  18.020  0.00  0.00    +0.000 C 
BRANCH  10  11
ATOM     11  C   UNL     1       2.279   7.809  18.010  0.00  0.00    +0.000 A 
ATOM     12  C   UNL     1       3.342   8.041  17.152  0.00  0.00    +0.000 A 
ATOM     13  C   UNL     1       4.483   7.212  17.210  0.00  0.00    +0.000 A 
ATOM     14  C   UNL     1       4.621   6.169  18.148  0.00  0.00    +0.000 A 
ATOM     15  C   UNL     1       3.539   5.973  19.008  0.00  0.00    +0.000 A 
ATOM     16  C   UNL     1       2.368   6.739  18.891  0.00  0.00    +0.000 A 
BRANCH  14  17
ATOM     17  N   UNL     1       5.760   5.386  18.199  0.00  0.00    +0.000 N 
ATOM     18  C   UNL     1       7.038   5.808  17.635  0.00  0.00    +0.000 C 
ATOM     19  C   UNL     1       5.795   4.184  19.022  0.00  0.00    +0.000 C 
ENDBRANCH  14  17
ENDBRANCH  10  11
ENDBRANCH   4   9
BRANCH   5  20
ATOM     20  C   UNL     1      -0.507  11.382  20.153  0.00  0.00    +0.000 C 
BRANCH  20  21
ATOM     21  C   UNL     1      -0.258  10.188  21.109  0.00  0.00    +0.000 C 
ATOM     22  C   UNL     1       1.233   9.881  21.336  0.00  0.00    +0.000 C 
BRANCH  21  23
ATOM     23  N   UNL     1      -0.949  10.329  22.422  0.00  0.00    +0.000 NA
ATOM     24  C   UNL     1      -0.319   9.606  23.528  0.00  0.00    +0.000 C 
BRANCH  23  25
ATOM     25  C   UNL     1      -1.156  11.729  22.828  0.00  0.00    +0.000 C 
BRANCH  25  26
ATOM     26  C   UNL     1      -2.571  12.054  23.309  0.00  0.00    +0.000 C 
BRANCH  26  27
ATOM     27  C   UNL     1      -3.344  12.998  22.443  0.00  0.00    +0.000 A 
ATOM     28  C   UNL     1      -4.554  12.635  21.855  0.00  0.00    +0.000 A 
ATOM     29  C   UNL     1      -5.199  13.535  21.012  0.00  0.00    +0.000 A 
ATOM     30  C   UNL     1      -4.650  14.801  20.762  0.00  0.00    +0.000 A 
ATOM     31  C   UNL     1      -3.420  15.163  21.334  0.00  0.00    +0.000 A 
ATOM     32  C   UNL     1      -2.785  14.251  22.175  0.00  0.00    +0.000 A 
BRANCH  30  33
ATOM     33  O   UNL     1      -5.401  15.552  19.892  0.00  0.00    +0.000 OA
ATOM     34  C   UNL     1      -6.564  14.913  19.383  0.00  0.00    +0.000 C 
ENDBRANCH  30  33
BRANCH  31  35
ATOM     35  O   UNL     1      -2.872  16.380  21.023  0.00  0.00    +0.000 OA
ATOM     36  C   UNL     1      -1.729  16.377  20.169  0.00  0.00    +0.000 C 
ENDBRANCH  31  35
ENDBRANCH  26  27
ENDBRANCH  25  26
ENDBRANCH  23  25
ENDBRANCH  21  23
ENDBRANCH  20  21
ENDBRANCH   5  20
TORSDOF 12
ENDMDL
