MODEL 1
REMARK VINA RESULT:      -5.8      0.000      0.000
REMARK  Name = 
REMARK  11 active torsions:
REMARK  status: ('A' for Active; 'I' for Inactive)
REMARK    1  A    between atoms: N_1  and  CA_2
REMARK    2  A    between atoms: CA_2  and  C_3
REMARK    3  A    between atoms: CA_2  and  C_14
REMARK    4  A    between atoms: C_3  and  C_4
REMARK    5  A    between atoms: C_4  and  C_5
REMARK    6  A    between atoms: N_7  and  C_8
REMARK    7  A    between atoms: C_8  and  C_9
REMARK    8  A    between atoms: C_9  and  C_10
REMARK    9  A    between atoms: C_10  and  C_11
REMARK   10  A    between atoms: C_11  and  O_13
REMARK   11  A    between atoms: C_14  and  OXT_16
REMARK                            x       y       z     vdW  Elec       q    Type
REMARK                         _______ _______ _______ _____ _____    ______ ____
ROOT
ATOM      1  C   UNL     1       4.577   4.848  19.153  0.00  0.00    +0.000 C 
ATOM      2  O   UNL     1       5.273   3.902  19.500  0.00  0.00    +0.000 OA
ATOM      3  N   UNL     1       3.276   5.047  19.570  0.00  0.00    +0.000 N 
ATOM      4  H   UNL     1       2.693   5.602  18.957  0.00  0.00    +0.000 HD
ENDROOT
BRANCH   1   5
ATOM      5  C   UNL     1       5.105   5.872  18.164  0.00  0.00    +0.000 C 
BRANCH   5   6
ATOM      6  C   UNL     1       4.818   5.614  16.681  0.00  0.00    +0.000 C 
BRANCH   6   7
ATOM      7  CA  UNL     1       5.597   4.487  15.975  0.00  0.00    +0.000 C 
BRANCH   7   8
ATOM      8  N   UNL     1       5.350   3.154  16.522  0.00  0.00    +0.000 NA
ATOM      9  H1  UNL     1       5.594   3.091  17.504  0.00  0.00    +0.000 HD
ATOM     10  H2  UNL     1       5.911   2.461  16.011  0.00  0.00    +0.000 HD
ENDBRANCH   7   8
BRANCH   7  11
ATOM     11  C   UNL     1       7.111   4.745  15.895  0.00  0.00    +0.000 C 
ATOM     12  O   UNL     1       7.671   5.404  15.032  0.00  0.00    +0.000 OA
BRANCH  11  13
ATOM     13  OXT UNL     1       7.809   4.130  16.890  0.00  0.00    +0.000 OA
ATOM     14  HXT UNL     1       7.281   3.460  17.372  0.00  0.00    +0.000 HD
ENDBRANCH  11  13
ENDBRANCH   7  11
ENDBRANCH   6   7
ENDBRANCH   5   6
ENDBRANCH   1   5
BRANCH   3  15
ATOM     15  C   UNL     1       2.549   4.090  20.407  0.00  0.00    +0.000 C 
BRANCH  15  16
ATOM     16  C   UNL     1       1.151   3.682  19.924  0.00  0.00    +0.000 C 
BRANCH  16  17
ATOM     17  C   UNL     1       1.161   2.370  19.156  0.00  0.00    +0.000 C 
BRANCH  17  18
ATOM     18  C   UNL     1       2.185   2.379  18.056  0.00  0.00    +0.000 C 
ATOM     19  O   UNL     1       2.172   3.166  17.118  0.00  0.00    +0.000 OA
BRANCH  18  20
ATOM     20  O   UNL     1       3.115   1.408  18.157  0.00  0.00    +0.000 OA
ATOM     21  H   UNL     1       3.481   1.131  17.284  0.00  0.00    +0.000 HD
ENDBRANCH  18  20
ENDBRANCH  17  18
ENDBRANCH  16  17
ENDBRANCH  15  16
ENDBRANCH   3  15
TORSDOF 11
ENDMDL
MODEL 2
REMARK VINA RESULT:      -5.6      2.175      5.569
REMARK  Name = 
REMARK  11 active torsions:
REMARK  status: ('A' for Active; 'I' for Inactive)
REMARK    1  A    between atoms: N_1  and  CA_2
REMARK    2  A    between atoms: CA_2  and  C_3
REMARK    3  A    between atoms: CA_2  and  C_14
REMARK    4  A    between atoms: C_3  and  C_4
REMARK    5  A    between atoms: C_4  and  C_5
REMARK    6  A    between atoms: N_7  and  C_8
REMARK    7  A    between atoms: C_8  and  C_9
REMARK    8  A    between atoms: C_9  and  C_10
REMARK    9  A    between atoms: C_10  and  C_11
REMARK   10  A    between atoms: C_11  and  O_13
REMARK   11  A    between atoms: C_14  and  OXT_16
REMARK                            x       y       z     vdW  Elec       q    Type
REMARK                         _______ _______ _______ _____ _____    ______ ____
ROOT
ATOM      1  C   UNL     1       3.902   4.169  17.236  0.00  0.00    +0.000 C 
ATOM      2  O   UNL     1       4.059   2.971  17.435  0.00  0.00    +0.000 OA
ATOM      3  N   UNL     1       4.809   4.969  16.570  0.00  0.00    +0.000 N 
ATOM      4  H   UNL     1       4.777   5.956  16.791  0.00  0.00    +0.000 HD
ENDROOT
BRANCH   1   5
ATOM      5  C   UNL     1       2.677   4.887  17.775  0.00  0.00    +0.000 C 
BRANCH   5   6
ATOM      6  C   UNL     1       1.801   4.112  18.765  0.00  0.00    +0.000 C 
BRANCH   6   7
ATOM      7  CA  UNL     1       2.029   4.342  20.273  0.00  0.00    +0.000 C 
BRANCH   7   8
ATOM      8  N   UNL     1       2.769   5.562  20.587  0.00  0.00    +0.000 NA
ATOM      9  H1  UNL     1       3.414   5.821  19.848  0.00  0.00    +0.000 HD
ATOM     10  H2  UNL     1       3.314   5.424  21.447  0.00  0.00    +0.000 HD
ENDBRANCH   7   8
BRANCH   7  11
ATOM     11  C   UNL     1       2.674   3.141  20.985  0.00  0.00    +0.000 C 
ATOM     12  O   UNL     1       2.248   2.609  21.999  0.00  0.00    +0.000 OA
BRANCH  11  13
ATOM     13  OXT UNL     1       3.823   2.721  20.386  0.00  0.00    +0.000 OA
ATOM     14  HXT UNL     1       3.869   2.960  19.436  0.00  0.00    +0.000 HD
ENDBRANCH  11  13
ENDBRANCH   7  11
ENDBRANCH   6   7
ENDBRANCH   5   6
ENDBRANCH   1   5
BRANCH   3  15
ATOM     15  C   UNL     1       6.111   4.487  16.106  0.00  0.00    +0.000 C 
BRANCH  15  16
ATOM     16  C   UNL     1       7.257   4.521  17.126  0.00  0.00    +0.000 C 
BRANCH  16  17
ATOM     17  C   UNL     1       7.234   5.774  17.987  0.00  0.00    +0.000 C 
BRANCH  17  18
ATOM     18  C   UNL     1       6.815   5.470  19.398  0.00  0.00    +0.000 C 
ATOM     19  O   UNL     1       5.660   5.238  19.732  0.00  0.00    +0.000 OA
BRANCH  18  20
ATOM     20  O   UNL     1       7.820   5.514  20.296  0.00  0.00    +0.000 OA
ATOM     21  H   UNL     1       7.994   4.643  20.724  0.00  0.00    +0.000 HD
ENDBRANCH  18  20
ENDBRANCH  17  18
ENDBRANCH  16  17
ENDBRANCH  15  16
ENDBRANCH   3  15
TORSDOF 11
ENDMDL
MODEL 3
REMARK VINA RESULT:      -5.6      1.890      5.273
REMARK  Name = 
REMARK  11 active torsions:
REMARK  status: ('A' for Active; 'I' for Inactive)
REMARK    1  A    between atoms: N_1  and  CA_2
REMARK    2  A    between atoms: CA_2  and  C_3
REMARK    3  A    between atoms: CA_2  and  C_14
REMARK    4  A    between atoms: C_3  and  C_4
REMARK    5  A    between atoms: C_4  and  C_5
REMARK    6  A    between atoms: N_7  and  C_8
REMARK    7  A    between atoms: C_8  and  C_9
REMARK    8  A    between atoms: C_9  and  C_10
REMARK    9  A    between atoms: C_10  and  C_11
REMARK   10  A    between atoms: C_11  and  O_13
REMARK   11  A    between atoms: C_14  and  OXT_16
REMARK                            x       y       z     vdW  Elec       q    Type
REMARK                         _______ _______ _______ _____ _____    ______ ____
ROOT
ATOM      1  C   UNL     1       3.807   5.249  17.594  0.00  0.00    +0.000 C 
ATOM      2  O   UNL     1       3.981   4.365  16.765  0.00  0.00    +0.000 OA
ATOM      3  N   UNL     1       4.537   6.419  17.645  0.00  0.00    +0.000 N 
ATOM      4  H   UNL     1       4.584   6.876  18.546  0.00  0.00    +0.000 HD
ENDROOT
BRANCH   1   5
ATOM      5  C   UNL     1       2.772   5.083  18.693  0.00  0.00    +0.000 C 
BRANCH   5   6
ATOM      6  C   UNL     1       3.231   4.381  19.976  0.00  0.00    +0.000 C 
BRANCH   6   7
ATOM      7  CA  UNL     1       3.350   2.844  19.962  0.00  0.00    +0.000 C 
BRANCH   7   8
ATOM      8  N   UNL     1       4.703   2.350  19.714  0.00  0.00    +0.000 NA
ATOM      9  H1  UNL     1       5.200   2.919  19.037  0.00  0.00    +0.000 HD
ATOM     10  H2  UNL     1       4.659   1.390  19.349  0.00  0.00    +0.000 HD
ENDBRANCH   7   8
BRANCH   7  11
ATOM     11  C   UNL     1       2.361   2.162  19.003  0.00  0.00    +0.000 C 
ATOM     12  O   UNL     1       1.154   2.080  19.172  0.00  0.00    +0.000 OA
BRANCH  11  13
ATOM     13  OXT UNL     1       2.969   1.607  17.917  0.00  0.00    +0.000 OA
ATOM     14  HXT UNL     1       3.382   2.272  17.327  0.00  0.00    +0.000 HD
ENDBRANCH  11  13
ENDBRANCH   7  11
ENDBRANCH   6   7
ENDBRANCH   5   6
ENDBRANCH   1   5
BRANCH   3  15
ATOM     15  C   UNL     1       5.671   6.693  16.760  0.00  0.00    +0.000 C 
BRANCH  15  16
ATOM     16  C   UNL     1       6.951   7.212  17.429  0.00  0.00    +0.000 C 
BRANCH  16  17
ATOM     17  C   UNL     1       7.598   6.175  18.333  0.00  0.00    +0.000 C 
BRANCH  17  18
ATOM     18  C   UNL     1       7.488   4.791  17.755  0.00  0.00    +0.000 C 
ATOM     19  O   UNL     1       8.097   4.417  16.760  0.00  0.00    +0.000 OA
BRANCH  18  20
ATOM     20  O   UNL     1       6.618   3.989  18.400  0.00  0.00    +0.000 OA
ATOM     21  H   UNL     1       7.007   3.117  18.648  0.00  0.00    +0.000 HD
ENDBRANCH  18  20
ENDBRANCH  17  18
ENDBRANCH  16  17
ENDBRANCH  15  16
ENDBRANCH   3  15
TORSDOF 11
ENDMDL
MODEL 4
REMARK VINA RESULT:      -5.6      1.183      1.256
REMARK  Name = 
REMARK  11 active torsions:
REMARK  status: ('A' for Active; 'I' for Inactive)
REMARK    1  A    between atoms: N_1  and  CA_2
REMARK    2  A    between atoms: CA_2  and  C_3
REMARK    3  A    between atoms: CA_2  and  C_14
REMARK    4  A    between atoms: C_3  and  C_4
REMARK    5  A    between atoms: C_4  and  C_5
REMARK    6  A    between atoms: N_7  and  C_8
REMARK    7  A    between atoms: C_8  and  C_9
REMARK    8  A    between atoms: C_9  and  C_10
REMARK    9  A    between atoms: C_10  and  C_11
REMARK   10  A    between atoms: C_11  and  O_13
REMARK   11  A    between atoms: C_14  and  OXT_16
REMARK                            x       y       z     vdW  Elec       q    Type
REMARK                         _______ _______ _______ _____ _____    ______ ____
ROOT
ATOM      1  C   UNL     1       4.396   4.754  19.108  0.00  0.00    +0.000 C 
ATOM      2  O   UNL     1       4.633   3.559  18.981  0.00  0.00    +0.000 OA
ATOM      3  N   UNL     1       3.483   5.273  20.003  0.00  0.00    +0.000 N 
ATOM      4  H   UNL     1       3.096   6.178  19.769  0.00  0.00    +0.000 HD
ENDROOT
BRANCH   1   5
ATOM      5  C   UNL     1       5.082   5.775  18.216  0.00  0.00    +0.000 C 
BRANCH   5   6
ATOM      6  C   UNL     1       5.264   5.395  16.743  0.00  0.00    +0.000 C 
BRANCH   6   7
ATOM      7  CA  UNL     1       6.369   4.381  16.384  0.00  0.00    +0.000 C 
BRANCH   7   8
ATOM      8  N   UNL     1       7.515   4.400  17.290  0.00  0.00    +0.000 NA
ATOM      9  H1  UNL     1       8.176   5.134  17.058  0.00  0.00    +0.000 HD
ATOM     10  H2  UNL     1       8.011   3.501  17.238  0.00  0.00    +0.000 HD
ENDBRANCH   7   8
BRANCH   7  11
ATOM     11  C   UNL     1       6.852   4.491  14.928  0.00  0.00    +0.000 C 
ATOM     12  O   UNL     1       7.569   5.375  14.486  0.00  0.00    +0.000 OA
BRANCH  11  13
ATOM     13  OXT UNL     1       6.369   3.498  14.131  0.00  0.00    +0.000 OA
ATOM     14  HXT UNL     1       7.061   2.861  13.850  0.00  0.00    +0.000 HD
ENDBRANCH  11  13
ENDBRANCH   7  11
ENDBRANCH   6   7
ENDBRANCH   5   6
ENDBRANCH   1   5
BRANCH   3  15
ATOM     15  C   UNL     1       2.623   4.437  20.843  0.00  0.00    +0.000 C 
BRANCH  15  16
ATOM     16  C   UNL     1       1.158   4.304  20.404  0.00  0.00    +0.000 C 
BRANCH  16  17
ATOM     17  C   UNL     1       0.854   2.942  19.798  0.00  0.00    +0.000 C 
BRANCH  17  18
ATOM     18  C   UNL     1       1.438   2.807  18.419  0.00  0.00    +0.000 C 
ATOM     19  O   UNL     1       1.178   3.562  17.491  0.00  0.00    +0.000 OA
BRANCH  18  20
ATOM     20  O   UNL     1       2.254   1.744  18.265  0.00  0.00    +0.000 OA
ATOM     21  H   UNL     1       2.982   1.907  17.620  0.00  0.00    +0.000 HD
ENDBRANCH  18  20
ENDBRANCH  17  18
ENDBRANCH  16  17
ENDBRANCH  15  16
ENDBRANCH   3  15
TORSDOF 11
ENDMDL
MODEL 5
REMARK VINA RESULT:      -5.5      1.085      1.182
REMARK  Name = 
REMARK  11 active torsions:
REMARK  status: ('A' for Active; 'I' for Inactive)
REMARK    1  A    between atoms: N_1  and  CA_2
REMARK    2  A    between atoms: CA_2  and  C_3
REMARK    3  A    between atoms: CA_2  and  C_14
REMARK    4  A    between atoms: C_3  and  C_4
REMARK    5  A    between atoms: C_4  and  C_5
REMARK    6  A    between atoms: N_7  and  C_8
REMARK    7  A    between atoms: C_8  and  C_9
REMARK    8  A    between atoms: C_9  and  C_10
REMARK    9  A    between atoms: C_10  and  C_11
REMARK   10  A    between atoms: C_11  and  O_13
REMARK   11  A    between atoms: C_14  and  OXT_16
REMARK                            x       y       z     vdW  Elec       q    Type
REMARK                         _______ _______ _______ _____ _____    ______ ____
ROOT
ATOM      1  C   UNL     1       3.702   5.689  18.959  0.00  0.00    +0.000 C 
ATOM      2  O   UNL     1       4.544   5.049  19.576  0.00  0.00    +0.000 OA
ATOM      3  N   UNL     1       2.383   5.810  19.348  0.00  0.00    +0.000 N 
ATOM      4  H   UNL     1       1.719   6.014  18.611  0.00  0.00    +0.000 HD
ENDROOT
BRANCH   1   5
ATOM      5  C   UNL     1       4.057   6.370  17.649  0.00  0.00    +0.000 C 
BRANCH   5   6
ATOM      6  C   UNL     1       5.328   5.888  16.941  0.00  0.00    +0.000 C 
BRANCH   6   7
ATOM      7  CA  UNL     1       5.254   4.584  16.122  0.00  0.00    +0.000 C 
BRANCH   7   8
ATOM      8  N   UNL     1       4.939   3.397  16.914  0.00  0.00    +0.000 NA
ATOM      9  H1  UNL     1       4.931   2.552  16.352  0.00  0.00    +0.000 HD
ATOM     10  H2  UNL     1       4.009   3.502  17.339  0.00  0.00    +0.000 HD
ENDBRANCH   7   8
BRANCH   7  11
ATOM     11  C   UNL     1       6.506   4.325  15.267  0.00  0.00    +0.000 C 
ATOM     12  O   UNL     1       7.601   4.836  15.445  0.00  0.00    +0.000 OA
BRANCH  11  13
ATOM     13  OXT UNL     1       6.277   3.467  14.235  0.00  0.00    +0.000 OA
ATOM     14  HXT UNL     1       6.093   3.925  13.388  0.00  0.00    +0.000 HD
ENDBRANCH  11  13
ENDBRANCH   7  11
ENDBRANCH   6   7
ENDBRANCH   5   6
ENDBRANCH   1   5
BRANCH   3  15
ATOM     15  C   UNL     1       1.820   5.106  20.502  0.00  0.00    +0.000 C 
BRANCH  15  16
ATOM     16  C   UNL     1       0.905   3.914  20.196  0.00  0.00    +0.000 C 
BRANCH  16  17
ATOM     17  C   UNL     1       1.678   2.616  20.019  0.00  0.00    +0.000 C 
BRANCH  17  18
ATOM     18  C   UNL     1       2.090   2.408  18.588  0.00  0.00    +0.000 C 
ATOM     19  O   UNL     1       1.716   3.115  17.661  0.00  0.00    +0.000 OA
BRANCH  18  20
ATOM     20  O   UNL     1       2.886   1.337  18.391  0.00  0.00    +0.000 OA
ATOM     21  H   UNL     1       2.430   0.599  17.922  0.00  0.00    +0.000 HD
ENDBRANCH  18  20
ENDBRANCH  17  18
ENDBRANCH  16  17
ENDBRANCH  15  16
ENDBRANCH   3  15
TORSDOF 11
ENDMDL
MODEL 6
REMARK VINA RESULT:      -5.5      2.066      2.374
REMARK  Name = 
REMARK  11 active torsions:
REMARK  status: ('A' for Active; 'I' for Inactive)
REMARK    1  A    between atoms: N_1  and  CA_2
REMARK    2  A    between atoms: CA_2  and  C_3
REMARK    3  A    between atoms: CA_2  and  C_14
REMARK    4  A    between atoms: C_3  and  C_4
REMARK    5  A    between atoms: C_4  and  C_5
REMARK    6  A    between atoms: N_7  and  C_8
REMARK    7  A    between atoms: C_8  and  C_9
REMARK    8  A    between atoms: C_9  and  C_10
REMARK    9  A    between atoms: C_10  and  C_11
REMARK   10  A    between atoms: C_11  and  O_13
REMARK   11  A    between atoms: C_14  and  OXT_16
REMARK                            x       y       z     vdW  Elec       q    Type
REMARK                         _______ _______ _______ _____ _____    ______ ____
ROOT
ATOM      1  C   UNL     1       5.539   4.855  19.190  0.00  0.00    +0.000 C 
ATOM      2  O   UNL     1       4.634   5.574  19.597  0.00  0.00    +0.000 OA
ATOM      3  N   UNL     1       5.485   3.476  19.175  0.00  0.00    +0.000 N 
ATOM      4  H   UNL     1       6.376   2.996  19.192  0.00  0.00    +0.000 HD
ENDROOT
BRANCH   1   5
ATOM      5  C   UNL     1       6.846   5.459  18.709  0.00  0.00    +0.000 C 
BRANCH   5   6
ATOM      6  C   UNL     1       7.521   4.783  17.510  0.00  0.00    +0.000 C 
BRANCH   6   7
ATOM      7  CA  UNL     1       7.036   5.159  16.096  0.00  0.00    +0.000 C 
BRANCH   7   8
ATOM      8  N   UNL     1       6.174   6.339  16.052  0.00  0.00    +0.000 NA
ATOM      9  H1  UNL     1       5.235   6.116  15.741  0.00  0.00    +0.000 HD
ATOM     10  H2  UNL     1       6.568   7.030  15.400  0.00  0.00    +0.000 HD
ENDBRANCH   7   8
BRANCH   7  11
ATOM     11  C   UNL     1       6.365   3.994  15.349  0.00  0.00    +0.000 C 
ATOM     12  O   UNL     1       6.376   3.831  14.138  0.00  0.00    +0.000 OA
BRANCH  11  13
ATOM     13  OXT UNL     1       5.706   3.139  16.179  0.00  0.00    +0.000 OA
ATOM     14  HXT UNL     1       4.762   3.376  16.303  0.00  0.00    +0.000 HD
ENDBRANCH  11  13
ENDBRANCH   7  11
ENDBRANCH   6   7
ENDBRANCH   5   6
ENDBRANCH   1   5
BRANCH   3  15
ATOM     15  C   UNL     1       4.367   2.712  19.733  0.00  0.00    +0.000 C 
BRANCH  15  16
ATOM     16  C   UNL     1       3.313   2.215  18.735  0.00  0.00    +0.000 C 
BRANCH  16  17
ATOM     17  C   UNL     1       2.210   3.234  18.496  0.00  0.00    +0.000 C 
BRANCH  17  18
ATOM     18  C   UNL     1       0.888   2.754  19.026  0.00  0.00    +0.000 C 
ATOM     19  O   UNL     1       0.149   1.986  18.422  0.00  0.00    +0.000 OA
BRANCH  18  20
ATOM     20  O   UNL     1       0.550   3.275  20.223  0.00  0.00    +0.000 OA
ATOM     21  H   UNL     1      -0.330   3.721  20.214  0.00  0.00    +0.000 HD
ENDBRANCH  18  20
ENDBRANCH  17  18
ENDBRANCH  16  17
ENDBRANCH  15  16
ENDBRANCH   3  15
TORSDOF 11
ENDMDL
MODEL 7
REMARK VINA RESULT:      -5.5      1.671      1.926
REMARK  Name = 
REMARK  11 active torsions:
REMARK  status: ('A' for Active; 'I' for Inactive)
REMARK    1  A    between atoms: N_1  and  CA_2
REMARK    2  A    between atoms: CA_2  and  C_3
REMARK    3  A    between atoms: CA_2  and  C_14
REMARK    4  A    between atoms: C_3  and  C_4
REMARK    5  A    between atoms: C_4  and  C_5
REMARK    6  A    between atoms: N_7  and  C_8
REMARK    7  A    between atoms: C_8  and  C_9
REMARK    8  A    between atoms: C_9  and  C_10
REMARK    9  A    between atoms: C_10  and  C_11
REMARK   10  A    between atoms: C_11  and  O_13
REMARK   11  A    between atoms: C_14  and  OXT_16
REMARK                            x       y       z     vdW  Elec       q    Type
REMARK                         _______ _______ _______ _____ _____    ______ ____
ROOT
ATOM      1  C   UNL     1       3.001   6.496  18.818  0.00  0.00    +0.000 C 
ATOM      2  O   UNL     1       2.331   7.457  19.173  0.00  0.00    +0.000 OA
ATOM      3  N   UNL     1       3.032   5.285  19.479  0.00  0.00    +0.000 N 
ATOM      4  H   UNL     1       3.865   4.726  19.345  0.00  0.00    +0.000 HD
ENDROOT
BRANCH   1   5
ATOM      5  C   UNL     1       3.916   6.599  17.610  0.00  0.00    +0.000 C 
BRANCH   5   6
ATOM      6  C   UNL     1       5.388   6.229  17.824  0.00  0.00    +0.000 C 
BRANCH   6   7
ATOM      7  CA  UNL     1       5.848   4.813  17.423  0.00  0.00    +0.000 C 
BRANCH   7   8
ATOM      8  N   UNL     1       5.735   3.822  18.491  0.00  0.00    +0.000 NA
ATOM      9  H1  UNL     1       5.078   3.085  18.262  0.00  0.00    +0.000 HD
ATOM     10  H2  UNL     1       5.409   4.279  19.353  0.00  0.00    +0.000 HD
ENDBRANCH   7   8
BRANCH   7  11
ATOM     11  C   UNL     1       7.265   4.776  16.824  0.00  0.00    +0.000 C 
ATOM     12  O   UNL     1       8.216   4.175  17.299  0.00  0.00    +0.000 OA
BRANCH  11  13
ATOM     13  OXT UNL     1       7.383   5.522  15.691  0.00  0.00    +0.000 OA
ATOM     14  HXT UNL     1       8.272   5.924  15.587  0.00  0.00    +0.000 HD
ENDBRANCH  11  13
ENDBRANCH   7  11
ENDBRANCH   6   7
ENDBRANCH   5   6
ENDBRANCH   1   5
BRANCH   3  15
ATOM     15  C   UNL     1       2.331   5.044  20.742  0.00  0.00    +0.000 C 
BRANCH  15  16
ATOM     16  C   UNL     1       1.872   3.604  21.006  0.00  0.00    +0.000 C 
BRANCH  16  17
ATOM     17  C   UNL     1       0.717   3.187  20.108  0.00  0.00    +0.000 C 
BRANCH  17  18
ATOM     18  C   UNL     1       1.200   2.740  18.757  0.00  0.00    +0.000 C 
ATOM     19  O   UNL     1       1.177   3.446  17.756  0.00  0.00    +0.000 OA
BRANCH  18  20
ATOM     20  O   UNL     1       1.630   1.463  18.717  0.00  0.00    +0.000 OA
ATOM     21  H   UNL     1       1.508   0.987  19.572  0.00  0.00    +0.000 HD
ENDBRANCH  18  20
ENDBRANCH  17  18
ENDBRANCH  16  17
ENDBRANCH  15  16
ENDBRANCH   3  15
TORSDOF 11
ENDMDL
MODEL 8
REMARK VINA RESULT:      -5.5      2.093      2.728
REMARK  Name = 
REMARK  11 active torsions:
REMARK  status: ('A' for Active; 'I' for Inactive)
REMARK    1  A    between atoms: N_1  and  CA_2
REMARK    2  A    between atoms: CA_2  and  C_3
REMARK    3  A    between atoms: CA_2  and  C_14
REMARK    4  A    between atoms: C_3  and  C_4
REMARK    5  A    between atoms: C_4  and  C_5
REMARK    6  A    between atoms: N_7  and  C_8
REMARK    7  A    between atoms: C_8  and  C_9
REMARK    8  A    between atoms: C_9  and  C_10
REMARK    9  A    between atoms: C_10  and  C_11
REMARK   10  A    between atoms: C_11  and  O_13
REMARK   11  A    between atoms: C_14  and  OXT_16
REMARK                            x       y       z     vdW  Elec       q    Type
REMARK                         _______ _______ _______ _____ _____    ______ ____
ROOT
ATOM      1  C   UNL     1       4.086   3.731  18.034  0.00  0.00    +0.000 C 
ATOM      2  O   UNL     1       4.783   3.685  19.040  0.00  0.00    +0.000 OA
ATOM      3  N   UNL     1       2.890   3.057  17.889  0.00  0.00    +0.000 N 
ATOM      4  H   UNL     1       2.608   2.853  16.938  0.00  0.00    +0.000 HD
ENDROOT
BRANCH   1   5
ATOM      5  C   UNL     1       4.538   4.521  16.819  0.00  0.00    +0.000 C 
BRANCH   5   6
ATOM      6  C   UNL     1       5.911   4.171  16.237  0.00  0.00    +0.000 C 
BRANCH   6   7
ATOM      7  CA  UNL     1       7.155   4.841  16.854  0.00  0.00    +0.000 C 
BRANCH   7   8
ATOM      8  N   UNL     1       7.639   4.197  18.074  0.00  0.00    +0.000 NA
ATOM      9  H1  UNL     1       7.617   3.185  18.008  0.00  0.00    +0.000 HD
ATOM     10  H2  UNL     1       7.049   4.474  18.869  0.00  0.00    +0.000 HD
ENDBRANCH   7   8
BRANCH   7  11
ATOM     11  C   UNL     1       6.983   6.350  17.094  0.00  0.00    +0.000 C 
ATOM     12  O   UNL     1       6.412   7.124  16.341  0.00  0.00    +0.000 OA
BRANCH  11  13
ATOM     13  OXT UNL     1       7.568   6.776  18.248  0.00  0.00    +0.000 OA
ATOM     14  HXT UNL     1       8.078   7.606  18.136  0.00  0.00    +0.000 HD
ENDBRANCH  11  13
ENDBRANCH   7  11
ENDBRANCH   6   7
ENDBRANCH   5   6
ENDBRANCH   1   5
BRANCH   3  15
ATOM     15  C   UNL     1       2.365   2.132  18.895  0.00  0.00    +0.000 C 
BRANCH  15  16
ATOM     16  C   UNL     1       0.975   2.452  19.459  0.00  0.00    +0.000 C 
BRANCH  16  17
ATOM     17  C   UNL     1       0.921   3.812  20.138  0.00  0.00    +0.000 C 
BRANCH  17  18
ATOM     18  C   UNL     1       1.980   3.944  21.197  0.00  0.00    +0.000 C 
ATOM     19  O   UNL     1       2.103   3.171  22.139  0.00  0.00    +0.000 OA
BRANCH  18  20
ATOM     20  O   UNL     1       2.774   5.025  21.055  0.00  0.00    +0.000 OA
ATOM     21  H   UNL     1       3.712   4.850  21.303  0.00  0.00    +0.000 HD
ENDBRANCH  18  20
ENDBRANCH  17  18
ENDBRANCH  16  17
ENDBRANCH  15  16
ENDBRANCH   3  15
TORSDOF 11
ENDMDL
MODEL 9
REMARK VINA RESULT:      -5.5      1.720      2.150
REMARK  Name = 
REMARK  11 active torsions:
REMARK  status: ('A' for Active; 'I' for Inactive)
REMARK    1  A    between atoms: N_1  and  CA_2
REMARK    2  A    between atoms: CA_2  and  C_3
REMARK    3  A    between atoms: CA_2  and  C_14
REMARK    4  A    between atoms: C_3  and  C_4
REMARK    5  A    between atoms: C_4  and  C_5
REMARK    6  A    between atoms: N_7  and  C_8
REMARK    7  A    between atoms: C_8  and  C_9
REMARK    8  A    between atoms: C_9  and  C_10
REMARK    9  A    between atoms: C_10  and  C_11
REMARK   10  A    between atoms: C_11  and  O_13
REMARK   11  A    between atoms: C_14  and  OXT_16
REMARK                            x       y       z     vdW  Elec       q    Type
REMARK                         _______ _______ _______ _____ _____    ______ ____
ROOT
ATOM      1  C   UNL     1       3.106   5.637  18.397  0.00  0.00    +0.000 C 
ATOM      2  O   UNL     1       2.029   5.374  17.878  0.00  0.00    +0.000 OA
ATOM      3  N   UNL     1       3.438   5.316  19.698  0.00  0.00    +0.000 N 
ATOM      4  H   UNL     1       4.152   5.890  20.129  0.00  0.00    +0.000 HD
ENDROOT
BRANCH   1   5
ATOM      5  C   UNL     1       4.165   6.408  17.629  0.00  0.00    +0.000 C 
BRANCH   5   6
ATOM      6  C   UNL     1       5.091   5.594  16.720  0.00  0.00    +0.000 C 
BRANCH   6   7
ATOM      7  CA  UNL     1       6.613   5.717  16.934  0.00  0.00    +0.000 C 
BRANCH   7   8
ATOM      8  N   UNL     1       7.383   5.845  15.698  0.00  0.00    +0.000 NA
ATOM      9  H1  UNL     1       8.225   5.280  15.710  0.00  0.00    +0.000 HD
ATOM     10  H2  UNL     1       7.663   6.825  15.565  0.00  0.00    +0.000 HD
ENDBRANCH   7   8
BRANCH   7  11
ATOM     11  C   UNL     1       7.203   4.594  17.803  0.00  0.00    +0.000 C 
ATOM     12  O   UNL     1       8.336   4.147  17.706  0.00  0.00    +0.000 OA
BRANCH  11  13
ATOM     13  OXT UNL     1       6.314   4.098  18.707  0.00  0.00    +0.000 OA
ATOM     14  HXT UNL     1       6.656   3.319  19.194  0.00  0.00    +0.000 HD
ENDBRANCH  11  13
ENDBRANCH   7  11
ENDBRANCH   6   7
ENDBRANCH   5   6
ENDBRANCH   1   5
BRANCH   3  15
ATOM     15  C   UNL     1       2.497   4.702  20.636  0.00  0.00    +0.000 C 
BRANCH  15  16
ATOM     16  C   UNL     1       2.725   3.220  20.963  0.00  0.00    +0.000 C 
BRANCH  16  17
ATOM     17  C   UNL     1       2.405   2.309  19.789  0.00  0.00    +0.000 C 
BRANCH  17  18
ATOM     18  C   UNL     1       3.640   1.959  19.007  0.00  0.00    +0.000 C 
ATOM     19  O   UNL     1       3.636   1.672  17.816  0.00  0.00    +0.000 OA
BRANCH  18  20
ATOM     20  O   UNL     1       4.773   1.943  19.738  0.00  0.00    +0.000 OA
ATOM     21  H   UNL     1       5.282   2.786  19.680  0.00  0.00    +0.000 HD
ENDBRANCH  18  20
ENDBRANCH  17  18
ENDBRANCH  16  17
ENDBRANCH  15  16
ENDBRANCH   3  15
TORSDOF 11
ENDMDL
