MODEL 1
REMARK VINA RESULT:      -7.4      0.000      0.000
REMARK  Name = 
REMARK  7 active torsions:
REMARK  status: ('A' for Active; 'I' for Inactive)
REMARK    1  A    between atoms: C_1  and  O_2
REMARK    2  A    between atoms: O_2  and  C_3
REMARK    3  A    between atoms: C_6  and  C_7
REMARK    4  A    between atoms: C_13  and  O_14
REMARK    5  A    between atoms: O_14  and  C_15
REMARK    6  A    between atoms: C_16  and  O_17
REMARK    7  A    between atoms: O_17  and  C_18
REMARK                            x       y       z     vdW  Elec       q    Type
REMARK                         _______ _______ _______ _____ _____    ______ ____
ROOT
ATOM      1  C   UNL     1       1.870   7.136  20.128  0.00  0.00    +0.000 A 
ATOM      2  C   UNL     1       1.239   6.088  20.744  0.00  0.00    +0.000 A 
ATOM      3  C   UNL     1       1.738   4.734  20.512  0.00  0.00    +0.000 A 
ATOM      4  O   UNL     1       1.040   3.760  20.307  0.00  0.00    +0.000 OA
ATOM      5  O   UNL     1       3.072   4.744  20.777  0.00  0.00    +0.000 OA
ATOM      6  C   UNL     1       3.603   5.389  19.663  0.00  0.00    +0.000 A 
ATOM      7  C   UNL     1       4.550   4.640  18.944  0.00  0.00    +0.000 A 
ATOM      8  C   UNL     1       4.938   5.035  17.663  0.00  0.00    +0.000 A 
ATOM      9  C   UNL     1       4.353   6.211  17.155  0.00  0.00    +0.000 A 
ATOM     10  C   UNL     1       3.421   7.007  17.941  0.00  0.00    +0.000 A 
ATOM     11  C   UNL     1       3.021   6.624  19.238  0.00  0.00    +0.000 A 
ENDROOT
BRANCH   1  15
ATOM     12  C   UNL     1      -0.223  10.810  21.384  0.00  0.00    +0.000 A 
ATOM     13  C   UNL     1       0.190   9.864  22.335  0.00  0.00    +0.000 A 
ATOM     14  C   UNL     1       0.948   8.703  21.982  0.00  0.00    +0.000 A 
ATOM     15  C   UNL     1       1.316   8.451  20.653  0.00  0.00    +0.000 A 
ATOM     16  C   UNL     1       0.901   9.460  19.726  0.00  0.00    +0.000 A 
ATOM     17  C   UNL     1       0.120  10.584  20.067  0.00  0.00    +0.000 A 
BRANCH  12  19
ATOM     18  C   UNL     1      -1.693  11.673  23.057  0.00  0.00    +0.000 C 
ATOM     19  O   UNL     1      -0.971  11.867  21.836  0.00  0.00    +0.000 OA
ENDBRANCH  12  19
ENDBRANCH   1  15
BRANCH   7  20
ATOM     20  O   UNL     1       4.974   3.382  19.337  0.00  0.00    +0.000 OA
ATOM     21  C   UNL     1       4.073   2.316  19.066  0.00  0.00    +0.000 C 
ENDBRANCH   7  20
BRANCH   8  22
ATOM     22  O   UNL     1       5.859   4.199  17.116  0.00  0.00    +0.000 OA
ATOM     23  C   UNL     1       7.200   4.514  16.805  0.00  0.00    +0.000 C 
ENDBRANCH   8  22
TORSDOF 4
ENDMDL
MODEL 2
REMARK VINA RESULT:      -7.2      0.401      1.065
REMARK  Name = 
REMARK  7 active torsions:
REMARK  status: ('A' for Active; 'I' for Inactive)
REMARK    1  A    between atoms: C_1  and  O_2
REMARK    2  A    between atoms: O_2  and  C_3
REMARK    3  A    between atoms: C_6  and  C_7
REMARK    4  A    between atoms: C_13  and  O_14
REMARK    5  A    between atoms: O_14  and  C_15
REMARK    6  A    between atoms: C_16  and  O_17
REMARK    7  A    between atoms: O_17  and  C_18
REMARK                            x       y       z     vdW  Elec       q    Type
REMARK                         _______ _______ _______ _____ _____    ______ ____
ROOT
ATOM      1  C   UNL     1       1.797   7.049  20.004  0.00  0.00    +0.000 A 
ATOM      2  C   UNL     1       1.205   5.996  20.649  0.00  0.00    +0.000 A 
ATOM      3  C   UNL     1       1.786   4.662  20.496  0.00  0.00    +0.000 A 
ATOM      4  O   UNL     1       1.151   3.642  20.315  0.00  0.00    +0.000 OA
ATOM      5  O   UNL     1       3.108   4.761  20.801  0.00  0.00    +0.000 OA
ATOM      6  C   UNL     1       3.639   5.385  19.675  0.00  0.00    +0.000 A 
ATOM      7  C   UNL     1       4.650   4.659  19.022  0.00  0.00    +0.000 A 
ATOM      8  C   UNL     1       5.058   5.018  17.736  0.00  0.00    +0.000 A 
ATOM      9  C   UNL     1       4.426   6.136  17.156  0.00  0.00    +0.000 A 
ATOM     10  C   UNL     1       3.425   6.911  17.875  0.00  0.00    +0.000 A 
ATOM     11  C   UNL     1       3.004   6.564  19.176  0.00  0.00    +0.000 A 
ENDROOT
BRANCH   1  15
ATOM     12  C   UNL     1       0.396  10.906  21.621  0.00  0.00    +0.000 A 
ATOM     13  C   UNL     1       0.672  10.765  20.252  0.00  0.00    +0.000 A 
ATOM     14  C   UNL     1       1.043   9.512  19.671  0.00  0.00    +0.000 A 
ATOM     15  C   UNL     1       1.153   8.353  20.451  0.00  0.00    +0.000 A 
ATOM     16  C   UNL     1       0.830   8.539  21.833  0.00  0.00    +0.000 A 
ATOM     17  C   UNL     1       0.503   9.782  22.414  0.00  0.00    +0.000 A 
BRANCH  12  19
ATOM     18  C   UNL     1      -1.152  12.304  22.786  0.00  0.00    +0.000 C 
ATOM     19  O   UNL     1       0.080  12.163  22.070  0.00  0.00    +0.000 OA
ENDBRANCH  12  19
ENDBRANCH   1  15
BRANCH   7  20
ATOM     20  O   UNL     1       5.129   3.447  19.486  0.00  0.00    +0.000 OA
ATOM     21  C   UNL     1       4.283   2.325  19.269  0.00  0.00    +0.000 C 
ENDBRANCH   7  20
BRANCH   8  22
ATOM     22  O   UNL     1       6.042   4.213  17.258  0.00  0.00    +0.000 OA
ATOM     23  C   UNL     1       7.042   4.570  16.326  0.00  0.00    +0.000 C 
ENDBRANCH   8  22
TORSDOF 4
ENDMDL
MODEL 3
REMARK VINA RESULT:      -7.0      1.371      2.239
REMARK  Name = 
REMARK  7 active torsions:
REMARK  status: ('A' for Active; 'I' for Inactive)
REMARK    1  A    between atoms: C_1  and  O_2
REMARK    2  A    between atoms: O_2  and  C_3
REMARK    3  A    between atoms: C_6  and  C_7
REMARK    4  A    between atoms: C_13  and  O_14
REMARK    5  A    between atoms: O_14  and  C_15
REMARK    6  A    between atoms: C_16  and  O_17
REMARK    7  A    between atoms: O_17  and  C_18
REMARK                            x       y       z     vdW  Elec       q    Type
REMARK                         _______ _______ _______ _____ _____    ______ ____
ROOT
ATOM      1  C   UNL     1       2.794   6.820  19.118  0.00  0.00    +0.000 A 
ATOM      2  C   UNL     1       2.732   5.681  19.877  0.00  0.00    +0.000 A 
ATOM      3  C   UNL     1       3.707   4.620  19.630  0.00  0.00    +0.000 A 
ATOM      4  O   UNL     1       3.448   3.433  19.586  0.00  0.00    +0.000 OA
ATOM      5  O   UNL     1       4.942   5.187  19.675  0.00  0.00    +0.000 OA
ATOM      6  C   UNL     1       5.014   5.866  18.461  0.00  0.00    +0.000 A 
ATOM      7  C   UNL     1       6.084   5.481  17.634  0.00  0.00    +0.000 A 
ATOM      8  C   UNL     1       6.108   5.857  16.290  0.00  0.00    +0.000 A 
ATOM      9  C   UNL     1       5.032   6.642  15.829  0.00  0.00    +0.000 A 
ATOM     10  C   UNL     1       3.966   7.082  16.718  0.00  0.00    +0.000 A 
ATOM     11  C   UNL     1       3.929   6.714  18.079  0.00  0.00    +0.000 A 
ENDROOT
BRANCH   1  15
ATOM     12  C   UNL     1       0.396   9.967  21.068  0.00  0.00    +0.000 A 
ATOM     13  C   UNL     1       0.760  10.082  19.717  0.00  0.00    +0.000 A 
ATOM     14  C   UNL     1       1.460   9.046  19.022  0.00  0.00    +0.000 A 
ATOM     15  C   UNL     1       1.823   7.856  19.665  0.00  0.00    +0.000 A 
ATOM     16  C   UNL     1       1.402   7.771  21.030  0.00  0.00    +0.000 A 
ATOM     17  C   UNL     1       0.746   8.807  21.728  0.00  0.00    +0.000 A 
BRANCH  12  19
ATOM     18  C   UNL     1      -0.866  10.819  22.908  0.00  0.00    +0.000 C 
ATOM     19  O   UNL     1      -0.246  11.037  21.636  0.00  0.00    +0.000 OA
ENDBRANCH  12  19
ENDBRANCH   1  15
BRANCH   7  20
ATOM     20  O   UNL     1       7.031   4.545  18.011  0.00  0.00    +0.000 OA
ATOM     21  C   UNL     1       8.080   5.030  18.839  0.00  0.00    +0.000 C 
ENDBRANCH   7  20
BRANCH   8  22
ATOM     22  O   UNL     1       7.211   5.402  15.641  0.00  0.00    +0.000 OA
ATOM     23  C   UNL     1       7.258   4.873  14.332  0.00  0.00    +0.000 C 
ENDBRANCH   8  22
TORSDOF 4
ENDMDL
MODEL 4
REMARK VINA RESULT:      -7.0      2.632      8.123
REMARK  Name = 
REMARK  7 active torsions:
REMARK  status: ('A' for Active; 'I' for Inactive)
REMARK    1  A    between atoms: C_1  and  O_2
REMARK    2  A    between atoms: O_2  and  C_3
REMARK    3  A    between atoms: C_6  and  C_7
REMARK    4  A    between atoms: C_13  and  O_14
REMARK    5  A    between atoms: O_14  and  C_15
REMARK    6  A    between atoms: C_16  and  O_17
REMARK    7  A    between atoms: O_17  and  C_18
REMARK                            x       y       z     vdW  Elec       q    Type
REMARK                         _______ _______ _______ _____ _____    ______ ____
ROOT
ATOM      1  C   UNL     1       5.279   5.294  16.698  0.00  0.00    +0.000 A 
ATOM      2  C   UNL     1       6.156   4.680  17.553  0.00  0.00    +0.000 A 
ATOM      3  C   UNL     1       5.868   4.699  18.987  0.00  0.00    +0.000 A 
ATOM      4  O   UNL     1       6.688   4.911  19.859  0.00  0.00    +0.000 OA
ATOM      5  O   UNL     1       4.600   4.236  19.149  0.00  0.00    +0.000 OA
ATOM      6  C   UNL     1       3.822   5.315  18.735  0.00  0.00    +0.000 A 
ATOM      7  C   UNL     1       2.929   5.803  19.704  0.00  0.00    +0.000 A 
ATOM      8  C   UNL     1       2.311   7.043  19.533  0.00  0.00    +0.000 A 
ATOM      9  C   UNL     1       2.614   7.749  18.351  0.00  0.00    +0.000 A 
ATOM     10  C   UNL     1       3.495   7.196  17.331  0.00  0.00    +0.000 A 
ATOM     11  C   UNL     1       4.124   5.943  17.487  0.00  0.00    +0.000 A 
ENDROOT
BRANCH   1  15
ATOM     12  C   UNL     1       6.806   4.074  12.744  0.00  0.00    +0.000 A 
ATOM     13  C   UNL     1       5.502   3.740  13.139  0.00  0.00    +0.000 A 
ATOM     14  C   UNL     1       4.935   4.189  14.373  0.00  0.00    +0.000 A 
ATOM     15  C   UNL     1       5.667   4.992  15.259  0.00  0.00    +0.000 A 
ATOM     16  C   UNL     1       6.978   5.333  14.798  0.00  0.00    +0.000 A 
ATOM     17  C   UNL     1       7.552   4.858  13.600  0.00  0.00    +0.000 A 
BRANCH  12  19
ATOM     18  C   UNL     1       7.109   2.148  11.365  0.00  0.00    +0.000 C 
ATOM     19  O   UNL     1       7.251   3.560  11.554  0.00  0.00    +0.000 OA
ENDBRANCH  12  19
ENDBRANCH   1  15
BRANCH   7  20
ATOM     20  O   UNL     1       2.782   5.228  20.954  0.00  0.00    +0.000 OA
ATOM     21  C   UNL     1       1.882   4.130  21.026  0.00  0.00    +0.000 C 
ENDBRANCH   7  20
BRANCH   8  22
ATOM     22  O   UNL     1       1.481   7.358  20.561  0.00  0.00    +0.000 OA
ATOM     23  C   UNL     1       1.136   8.657  20.995  0.00  0.00    +0.000 C 
ENDBRANCH   8  22
TORSDOF 4
ENDMDL
MODEL 5
REMARK VINA RESULT:      -6.9      1.328      1.885
REMARK  Name = 
REMARK  7 active torsions:
REMARK  status: ('A' for Active; 'I' for Inactive)
REMARK    1  A    between atoms: C_1  and  O_2
REMARK    2  A    between atoms: O_2  and  C_3
REMARK    3  A    between atoms: C_6  and  C_7
REMARK    4  A    between atoms: C_13  and  O_14
REMARK    5  A    between atoms: O_14  and  C_15
REMARK    6  A    between atoms: C_16  and  O_17
REMARK    7  A    between atoms: O_17  and  C_18
REMARK                            x       y       z     vdW  Elec       q    Type
REMARK                         _______ _______ _______ _____ _____    ______ ____
ROOT
ATOM      1  C   UNL     1       2.683   6.941  19.195  0.00  0.00    +0.000 A 
ATOM      2  C   UNL     1       2.497   5.734  19.816  0.00  0.00    +0.000 A 
ATOM      3  C   UNL     1       3.321   4.598  19.407  0.00  0.00    +0.000 A 
ATOM      4  O   UNL     1       2.912   3.467  19.234  0.00  0.00    +0.000 OA
ATOM      5  O   UNL     1       4.619   5.000  19.467  0.00  0.00    +0.000 OA
ATOM      6  C   UNL     1       4.746   5.807  18.339  0.00  0.00    +0.000 A 
ATOM      7  C   UNL     1       5.736   5.397  17.430  0.00  0.00    +0.000 A 
ATOM      8  C   UNL     1       5.773   5.928  16.140  0.00  0.00    +0.000 A 
ATOM      9  C   UNL     1       4.794   6.890  15.819  0.00  0.00    +0.000 A 
ATOM     10  C   UNL     1       3.816   7.347  16.797  0.00  0.00    +0.000 A 
ATOM     11  C   UNL     1       3.768   6.823  18.105  0.00  0.00    +0.000 A 
ENDROOT
BRANCH   1  15
ATOM     12  C   UNL     1      -0.103   9.921  20.871  0.00  0.00    +0.000 A 
ATOM     13  C   UNL     1       0.328   8.833  21.646  0.00  0.00    +0.000 A 
ATOM     14  C   UNL     1       1.298   7.893  21.175  0.00  0.00    +0.000 A 
ATOM     15  C   UNL     1       1.867   8.014  19.900  0.00  0.00    +0.000 A 
ATOM     16  C   UNL     1       1.422   9.155  19.161  0.00  0.00    +0.000 A 
ATOM     17  C   UNL     1       0.437  10.061  19.609  0.00  0.00    +0.000 A 
BRANCH  12  19
ATOM     18  C   UNL     1      -1.009  10.937  22.834  0.00  0.00    +0.000 C 
ATOM     19  O   UNL     1      -1.059  10.739  21.417  0.00  0.00    +0.000 OA
ENDBRANCH  12  19
ENDBRANCH   1  15
BRANCH   7  20
ATOM     20  O   UNL     1       6.566   4.313  17.655  0.00  0.00    +0.000 OA
ATOM     21  C   UNL     1       7.845   4.617  18.197  0.00  0.00    +0.000 C 
ENDBRANCH   7  20
BRANCH   8  22
ATOM     22  O   UNL     1       6.792   5.423  15.397  0.00  0.00    +0.000 OA
ATOM     23  C   UNL     1       6.672   4.639  14.229  0.00  0.00    +0.000 C 
ENDBRANCH   8  22
TORSDOF 4
ENDMDL
MODEL 6
REMARK VINA RESULT:      -6.9      2.135      7.989
REMARK  Name = 
REMARK  7 active torsions:
REMARK  status: ('A' for Active; 'I' for Inactive)
REMARK    1  A    between atoms: C_1  and  O_2
REMARK    2  A    between atoms: O_2  and  C_3
REMARK    3  A    between atoms: C_6  and  C_7
REMARK    4  A    between atoms: C_13  and  O_14
REMARK    5  A    between atoms: O_14  and  C_15
REMARK    6  A    between atoms: C_16  and  O_17
REMARK    7  A    between atoms: O_17  and  C_18
REMARK                            x       y       z     vdW  Elec       q    Type
REMARK                         _______ _______ _______ _____ _____    ______ ____
ROOT
ATOM      1  C   UNL     1       1.849   8.117  18.784  0.00  0.00    +0.000 A 
ATOM      2  C   UNL     1       1.255   8.745  17.721  0.00  0.00    +0.000 A 
ATOM      3  C   UNL     1       0.370   9.879  17.980  0.00  0.00    +0.000 A 
ATOM      4  O   UNL     1      -0.699  10.067  17.433  0.00  0.00    +0.000 OA
ATOM      5  O   UNL     1       1.055  10.755  18.762  0.00  0.00    +0.000 OA
ATOM      6  C   UNL     1       1.028  10.140  20.011  0.00  0.00    +0.000 A 
ATOM      7  C   UNL     1       0.439  10.905  21.032  0.00  0.00    +0.000 A 
ATOM      8  C   UNL     1       0.082  10.311  22.243  0.00  0.00    +0.000 A 
ATOM      9  C   UNL     1       0.359   8.937  22.385  0.00  0.00    +0.000 A 
ATOM     10  C   UNL     1       1.028   8.177  21.338  0.00  0.00    +0.000 A 
ATOM     11  C   UNL     1       1.398   8.763  20.110  0.00  0.00    +0.000 A 
ENDROOT
BRANCH   1  15
ATOM     12  C   UNL     1       4.381   4.992  16.974  0.00  0.00    +0.000 A 
ATOM     13  C   UNL     1       4.699   6.350  16.812  0.00  0.00    +0.000 A 
ATOM     14  C   UNL     1       3.958   7.392  17.453  0.00  0.00    +0.000 A 
ATOM     15  C   UNL     1       2.865   7.103  18.281  0.00  0.00    +0.000 A 
ATOM     16  C   UNL     1       2.601   5.706  18.442  0.00  0.00    +0.000 A 
ATOM     17  C   UNL     1       3.305   4.679  17.779  0.00  0.00    +0.000 A 
BRANCH  12  19
ATOM     18  C   UNL     1       6.549   4.349  16.203  0.00  0.00    +0.000 C 
ATOM     19  O   UNL     1       5.144   4.084  16.286  0.00  0.00    +0.000 OA
ENDBRANCH  12  19
ENDBRANCH   1  15
BRANCH   7  20
ATOM     20  O   UNL     1      -0.028  12.194  20.836  0.00  0.00    +0.000 OA
ATOM     21  C   UNL     1       0.948  13.223  20.925  0.00  0.00    +0.000 C 
ENDBRANCH   7  20
BRANCH   8  22
ATOM     22  O   UNL     1      -0.473  11.194  23.114  0.00  0.00    +0.000 OA
ATOM     23  C   UNL     1      -1.848  11.479  23.261  0.00  0.00    +0.000 C 
ENDBRANCH   8  22
TORSDOF 4
ENDMDL
MODEL 7
REMARK VINA RESULT:      -6.9      1.691      2.297
REMARK  Name = 
REMARK  7 active torsions:
REMARK  status: ('A' for Active; 'I' for Inactive)
REMARK    1  A    between atoms: C_1  and  O_2
REMARK    2  A    between atoms: O_2  and  C_3
REMARK    3  A    between atoms: C_6  and  C_7
REMARK    4  A    between atoms: C_13  and  O_14
REMARK    5  A    between atoms: O_14  and  C_15
REMARK    6  A    between atoms: C_16  and  O_17
REMARK    7  A    between atoms: O_17  and  C_18
REMARK                            x       y       z     vdW  Elec       q    Type
REMARK                         _______ _______ _______ _____ _____    ______ ____
ROOT
ATOM      1  C   UNL     1       2.852   7.106  18.790  0.00  0.00    +0.000 A 
ATOM      2  C   UNL     1       2.691   6.062  19.661  0.00  0.00    +0.000 A 
ATOM      3  C   UNL     1       3.594   4.917  19.561  0.00  0.00    +0.000 A 
ATOM      4  O   UNL     1       3.254   3.752  19.633  0.00  0.00    +0.000 OA
ATOM      5  O   UNL     1       4.865   5.403  19.587  0.00  0.00    +0.000 OA
ATOM      6  C   UNL     1       5.016   5.941  18.312  0.00  0.00    +0.000 A 
ATOM      7  C   UNL     1       6.078   5.399  17.566  0.00  0.00    +0.000 A 
ATOM      8  C   UNL     1       6.163   5.627  16.192  0.00  0.00    +0.000 A 
ATOM      9  C   UNL     1       5.158   6.428  15.615  0.00  0.00    +0.000 A 
ATOM     10  C   UNL     1       4.102   7.031  16.417  0.00  0.00    +0.000 A 
ATOM     11  C   UNL     1       4.004   6.814  17.807  0.00  0.00    +0.000 A 
ENDROOT
BRANCH   1  15
ATOM     12  C   UNL     1      -0.184  10.194  19.629  0.00  0.00    +0.000 A 
ATOM     13  C   UNL     1       0.297   9.369  20.658  0.00  0.00    +0.000 A 
ATOM     14  C   UNL     1       1.344   8.416  20.450  0.00  0.00    +0.000 A 
ATOM     15  C   UNL     1       1.942   8.257  19.192  0.00  0.00    +0.000 A 
ATOM     16  C   UNL     1       1.441   9.142  18.185  0.00  0.00    +0.000 A 
ATOM     17  C   UNL     1       0.383  10.054  18.379  0.00  0.00    +0.000 A 
BRANCH  12  19
ATOM     18  C   UNL     1      -1.326  12.236  19.149  0.00  0.00    +0.000 C 
ATOM     19  O   UNL     1      -1.211  11.048  19.940  0.00  0.00    +0.000 OA
ENDBRANCH  12  19
ENDBRANCH   1  15
BRANCH   7  20
ATOM     20  O   UNL     1       6.947   4.448  18.071  0.00  0.00    +0.000 OA
ATOM     21  C   UNL     1       8.065   4.954  18.789  0.00  0.00    +0.000 C 
ENDBRANCH   7  20
BRANCH   8  22
ATOM     22  O   UNL     1       7.248   5.032  15.632  0.00  0.00    +0.000 OA
ATOM     23  C   UNL     1       7.413   4.695  14.270  0.00  0.00    +0.000 C 
ENDBRANCH   8  22
TORSDOF 4
ENDMDL
MODEL 8
REMARK VINA RESULT:      -6.9      1.911      7.962
REMARK  Name = 
REMARK  7 active torsions:
REMARK  status: ('A' for Active; 'I' for Inactive)
REMARK    1  A    between atoms: C_1  and  O_2
REMARK    2  A    between atoms: O_2  and  C_3
REMARK    3  A    between atoms: C_6  and  C_7
REMARK    4  A    between atoms: C_13  and  O_14
REMARK    5  A    between atoms: O_14  and  C_15
REMARK    6  A    between atoms: C_16  and  O_17
REMARK    7  A    between atoms: O_17  and  C_18
REMARK                            x       y       z     vdW  Elec       q    Type
REMARK                         _______ _______ _______ _____ _____    ______ ____
ROOT
ATOM      1  C   UNL     1       1.645   8.272  19.167  0.00  0.00    +0.000 A 
ATOM      2  C   UNL     1       1.181   8.890  18.037  0.00  0.00    +0.000 A 
ATOM      3  C   UNL     1       0.329  10.070  18.182  0.00  0.00    +0.000 A 
ATOM      4  O   UNL     1      -0.676  10.288  17.534  0.00  0.00    +0.000 OA
ATOM      5  O   UNL     1       0.981  10.940  18.999  0.00  0.00    +0.000 OA
ATOM      6  C   UNL     1       0.812  10.367  20.257  0.00  0.00    +0.000 A 
ATOM      7  C   UNL     1       0.169  11.189  21.198  0.00  0.00    +0.000 A 
ATOM      8  C   UNL     1      -0.324  10.650  22.387  0.00  0.00    +0.000 A 
ATOM      9  C   UNL     1      -0.125   9.270  22.592  0.00  0.00    +0.000 A 
ATOM     10  C   UNL     1       0.600   8.448  21.632  0.00  0.00    +0.000 A 
ATOM     11  C   UNL     1       1.107   8.978  20.428  0.00  0.00    +0.000 A 
ENDROOT
BRANCH   1  15
ATOM     12  C   UNL     1       4.971   5.552  18.168  0.00  0.00    +0.000 A 
ATOM     13  C   UNL     1       4.145   5.292  19.273  0.00  0.00    +0.000 A 
ATOM     14  C   UNL     1       3.003   6.097  19.582  0.00  0.00    +0.000 A 
ATOM     15  C   UNL     1       2.654   7.198  18.788  0.00  0.00    +0.000 A 
ATOM     16  C   UNL     1       3.505   7.402  17.656  0.00  0.00    +0.000 A 
ATOM     17  C   UNL     1       4.654   6.634  17.373  0.00  0.00    +0.000 A 
BRANCH  12  19
ATOM     18  C   UNL     1       7.348   5.343  18.052  0.00  0.00    +0.000 C 
ATOM     19  O   UNL     1       6.055   4.731  17.991  0.00  0.00    +0.000 OA
ENDBRANCH  12  19
ENDBRANCH   1  15
BRANCH   7  20
ATOM     20  O   UNL     1      -0.218  12.490  20.924  0.00  0.00    +0.000 OA
ATOM     21  C   UNL     1       0.772  13.486  21.145  0.00  0.00    +0.000 C 
ENDBRANCH   7  20
BRANCH   8  22
ATOM     22  O   UNL     1      -0.913  11.584  23.178  0.00  0.00    +0.000 OA
ATOM     23  C   UNL     1      -2.300  11.783  23.354  0.00  0.00    +0.000 C 
ENDBRANCH   8  22
TORSDOF 4
ENDMDL
MODEL 9
REMARK VINA RESULT:      -6.7      1.922      7.723
REMARK  Name = 
REMARK  7 active torsions:
REMARK  status: ('A' for Active; 'I' for Inactive)
REMARK    1  A    between atoms: C_1  and  O_2
REMARK    2  A    between atoms: O_2  and  C_3
REMARK    3  A    between atoms: C_6  and  C_7
REMARK    4  A    between atoms: C_13  and  O_14
REMARK    5  A    between atoms: O_14  and  C_15
REMARK    6  A    between atoms: C_16  and  O_17
REMARK    7  A    between atoms: O_17  and  C_18
REMARK                            x       y       z     vdW  Elec       q    Type
REMARK                         _______ _______ _______ _____ _____    ______ ____
ROOT
ATOM      1  C   UNL     1       1.510   8.214  20.226  0.00  0.00    +0.000 A 
ATOM      2  C   UNL     1       1.349   8.097  21.580  0.00  0.00    +0.000 A 
ATOM      3  C   UNL     1       0.674   9.174  22.303  0.00  0.00    +0.000 A 
ATOM      4  O   UNL     1       1.035   9.631  23.370  0.00  0.00    +0.000 OA
ATOM      5  O   UNL     1      -0.510   9.401  21.673  0.00  0.00    +0.000 OA
ATOM      6  C   UNL     1      -0.123  10.089  20.526  0.00  0.00    +0.000 A 
ATOM      7  C   UNL     1      -0.700  11.361  20.378  0.00  0.00    +0.000 A 
ATOM      8  C   UNL     1      -0.186  12.266  19.449  0.00  0.00    +0.000 A 
ATOM      9  C   UNL     1       0.906  11.831  18.672  0.00  0.00    +0.000 A 
ATOM     10  C   UNL     1       1.449  10.485  18.797  0.00  0.00    +0.000 A 
ATOM     11  C   UNL     1       0.939   9.558  19.729  0.00  0.00    +0.000 A 
ENDROOT
BRANCH   1  15
ATOM     12  C   UNL     1       2.553   4.271  18.548  0.00  0.00    +0.000 A 
ATOM     13  C   UNL     1       2.822   5.445  17.828  0.00  0.00    +0.000 A 
ATOM     14  C   UNL     1       2.582   6.747  18.370  0.00  0.00    +0.000 A 
ATOM     15  C   UNL     1       2.058   6.913  19.659  0.00  0.00    +0.000 A 
ATOM     16  C   UNL     1       1.831   5.689  20.365  0.00  0.00    +0.000 A 
ATOM     17  C   UNL     1       2.030   4.404  19.817  0.00  0.00    +0.000 A 
BRANCH  12  19
ATOM     18  C   UNL     1       3.321   2.015  18.714  0.00  0.00    +0.000 C 
ATOM     19  O   UNL     1       2.795   3.079  17.914  0.00  0.00    +0.000 OA
ENDBRANCH  12  19
ENDBRANCH   1  15
BRANCH   7  20
ATOM     20  O   UNL     1      -1.628  11.877  21.267  0.00  0.00    +0.000 OA
ATOM     21  C   UNL     1      -1.092  12.460  22.448  0.00  0.00    +0.000 C 
ENDBRANCH   7  20
BRANCH   8  22
ATOM     22  O   UNL     1      -0.863  13.444  19.438  0.00  0.00    +0.000 OA
ATOM     23  C   UNL     1      -0.308  14.731  19.259  0.00  0.00    +0.000 C 
ENDBRANCH   8  22
TORSDOF 4
ENDMDL
