MODEL 1
REMARK VINA RESULT:      -7.2      0.000      0.000
REMARK  Name = 
REMARK  3 active torsions:
REMARK  status: ('A' for Active; 'I' for Inactive)
REMARK    1  A    between atoms: C_1  and  S_2
REMARK    2  A    between atoms: S_2  and  C_3
REMARK    3  A    between atoms: N_14  and  C_15
REMARK                            x       y       z     vdW  Elec       q    Type
REMARK                         _______ _______ _______ _____ _____    ______ ____
ROOT
ATOM      1  C   UNL     1       2.182   3.691  19.078  0.00  0.00    +0.000 A 
ATOM      2  N   UNL     1       1.788   3.234  17.860  0.00  0.00    +0.000 NA
ATOM      3  N   UNL     1       2.594   3.308  16.800  0.00  0.00    +0.000 NA
ATOM      4  C   UNL     1       3.816   3.854  17.014  0.00  0.00    +0.000 A 
ATOM      5  C   UNL     1       4.906   4.103  16.140  0.00  0.00    +0.000 A 
ATOM      6  C   UNL     1       5.127   3.888  14.766  0.00  0.00    +0.000 A 
ATOM      7  C   UNL     1       6.342   4.283  14.209  0.00  0.00    +0.000 A 
ATOM      8  F   UNL     1       6.554   4.093  12.900  0.00  0.00    +0.000 F 
ATOM      9  C   UNL     1       7.336   4.871  14.976  0.00  0.00    +0.000 A 
ATOM     10  C   UNL     1       7.146   5.088  16.344  0.00  0.00    +0.000 A 
ATOM     11  C   UNL     1       5.918   4.698  16.909  0.00  0.00    +0.000 A 
ATOM     12  N   UNL     1       5.442   4.789  18.207  0.00  0.00    +0.000 N 
ATOM     13  C   UNL     1       6.149   5.325  19.347  0.00  0.00    +0.000 C 
ATOM     14  C   UNL     1       4.165   4.294  18.278  0.00  0.00    +0.000 A 
ATOM     15  N   UNL     1       3.382   4.240  19.372  0.00  0.00    +0.000 NA
ENDROOT
BRANCH   1  17
ATOM     16  C   UNL     1       2.112   2.693  21.640  0.00  0.00    +0.000 C 
ATOM     17  S   UNL     1       1.047   3.537  20.445  0.00  0.00    +0.000 S 
ENDBRANCH   1  17
TORSDOF 1
ENDMDL
MODEL 2
REMARK VINA RESULT:      -7.0      3.759      6.011
REMARK  Name = 
REMARK  3 active torsions:
REMARK  status: ('A' for Active; 'I' for Inactive)
REMARK    1  A    between atoms: C_1  and  S_2
REMARK    2  A    between atoms: S_2  and  C_3
REMARK    3  A    between atoms: N_14  and  C_15
REMARK                            x       y       z     vdW  Elec       q    Type
REMARK                         _______ _______ _______ _____ _____    ______ ____
ROOT
ATOM      1  C   UNL     1       5.804   5.099  15.588  0.00  0.00    +0.000 A 
ATOM      2  N   UNL     1       5.643   6.396  15.963  0.00  0.00    +0.000 NA
ATOM      3  N   UNL     1       4.827   6.730  16.965  0.00  0.00    +0.000 NA
ATOM      4  C   UNL     1       4.186   5.707  17.581  0.00  0.00    +0.000 A 
ATOM      5  C   UNL     1       3.254   5.684  18.651  0.00  0.00    +0.000 A 
ATOM      6  C   UNL     1       2.659   6.678  19.452  0.00  0.00    +0.000 A 
ATOM      7  C   UNL     1       1.741   6.296  20.429  0.00  0.00    +0.000 A 
ATOM      8  F   UNL     1       1.162   7.238  21.186  0.00  0.00    +0.000 F 
ATOM      9  C   UNL     1       1.410   4.965  20.634  0.00  0.00    +0.000 A 
ATOM     10  C   UNL     1       1.992   3.958  19.859  0.00  0.00    +0.000 A 
ATOM     11  C   UNL     1       2.913   4.339  18.866  0.00  0.00    +0.000 A 
ATOM     12  N   UNL     1       3.634   3.587  17.953  0.00  0.00    +0.000 N 
ATOM     13  C   UNL     1       3.612   2.148  17.816  0.00  0.00    +0.000 C 
ATOM     14  C   UNL     1       4.396   4.406  17.162  0.00  0.00    +0.000 A 
ATOM     15  N   UNL     1       5.206   4.028  16.155  0.00  0.00    +0.000 NA
ENDROOT
BRANCH   1  17
ATOM     16  C   UNL     1       5.875   3.665  13.243  0.00  0.00    +0.000 C 
ATOM     17  S   UNL     1       6.926   4.741  14.249  0.00  0.00    +0.000 S 
ENDBRANCH   1  17
TORSDOF 1
ENDMDL
MODEL 3
REMARK VINA RESULT:      -6.2      3.750      5.853
REMARK  Name = 
REMARK  3 active torsions:
REMARK  status: ('A' for Active; 'I' for Inactive)
REMARK    1  A    between atoms: C_1  and  S_2
REMARK    2  A    between atoms: S_2  and  C_3
REMARK    3  A    between atoms: N_14  and  C_15
REMARK                            x       y       z     vdW  Elec       q    Type
REMARK                         _______ _______ _______ _____ _____    ______ ____
ROOT
ATOM      1  C   UNL     1       5.675   4.674  15.680  0.00  0.00    +0.000 A 
ATOM      2  N   UNL     1       5.484   3.403  16.124  0.00  0.00    +0.000 NA
ATOM      3  N   UNL     1       4.670   3.144  17.148  0.00  0.00    +0.000 NA
ATOM      4  C   UNL     1       4.048   4.212  17.705  0.00  0.00    +0.000 A 
ATOM      5  C   UNL     1       3.144   4.318  18.793  0.00  0.00    +0.000 A 
ATOM      6  C   UNL     1       2.569   3.389  19.681  0.00  0.00    +0.000 A 
ATOM      7  C   UNL     1       1.712   3.851  20.679  0.00  0.00    +0.000 A 
ATOM      8  F   UNL     1       1.171   2.973  21.534  0.00  0.00    +0.000 F 
ATOM      9  C   UNL     1       1.408   5.198  20.809  0.00  0.00    +0.000 A 
ATOM     10  C   UNL     1       1.959   6.140  19.935  0.00  0.00    +0.000 A 
ATOM     11  C   UNL     1       2.830   5.679  18.932  0.00  0.00    +0.000 A 
ATOM     12  N   UNL     1       3.524   6.358  17.944  0.00  0.00    +0.000 N 
ATOM     13  C   UNL     1       3.494   7.782  17.695  0.00  0.00    +0.000 C 
ATOM     14  C   UNL     1       4.275   5.481  17.204  0.00  0.00    +0.000 A 
ATOM     15  N   UNL     1       5.089   5.786  16.176  0.00  0.00    +0.000 NA
ENDROOT
BRANCH   1  17
ATOM     16  C   UNL     1       6.107   3.695  13.147  0.00  0.00    +0.000 C 
ATOM     17  S   UNL     1       6.768   4.928  14.294  0.00  0.00    +0.000 S 
ENDBRANCH   1  17
TORSDOF 1
ENDMDL
MODEL 4
REMARK VINA RESULT:      -6.2      3.979      6.162
REMARK  Name = 
REMARK  3 active torsions:
REMARK  status: ('A' for Active; 'I' for Inactive)
REMARK    1  A    between atoms: C_1  and  S_2
REMARK    2  A    between atoms: S_2  and  C_3
REMARK    3  A    between atoms: N_14  and  C_15
REMARK                            x       y       z     vdW  Elec       q    Type
REMARK                         _______ _______ _______ _____ _____    ______ ____
ROOT
ATOM      1  C   UNL     1       6.389   5.890  17.766  0.00  0.00    +0.000 A 
ATOM      2  N   UNL     1       6.797   4.757  18.397  0.00  0.00    +0.000 NA
ATOM      3  N   UNL     1       5.952   4.035  19.136  0.00  0.00    +0.000 NA
ATOM      4  C   UNL     1       4.678   4.493  19.208  0.00  0.00    +0.000 A 
ATOM      5  C   UNL     1       3.536   4.005  19.895  0.00  0.00    +0.000 A 
ATOM      6  C   UNL     1       3.298   2.900  20.734  0.00  0.00    +0.000 A 
ATOM      7  C   UNL     1       2.024   2.726  21.272  0.00  0.00    +0.000 A 
ATOM      8  F   UNL     1       1.794   1.684  22.082  0.00  0.00    +0.000 F 
ATOM      9  C   UNL     1       0.990   3.607  20.993  0.00  0.00    +0.000 A 
ATOM     10  C   UNL     1       1.197   4.706  20.155  0.00  0.00    +0.000 A 
ATOM     11  C   UNL     1       2.483   4.891  19.616  0.00  0.00    +0.000 A 
ATOM     12  N   UNL     1       2.989   5.871  18.778  0.00  0.00    +0.000 N 
ATOM     13  C   UNL     1       2.259   6.987  18.220  0.00  0.00    +0.000 C 
ATOM     14  C   UNL     1       4.320   5.648  18.536  0.00  0.00    +0.000 A 
ATOM     15  N   UNL     1       5.141   6.405  17.784  0.00  0.00    +0.000 NA
ENDROOT
BRANCH   1  17
ATOM     16  C   UNL     1       7.789   8.256  17.818  0.00  0.00    +0.000 C 
ATOM     17  S   UNL     1       7.581   6.784  16.786  0.00  0.00    +0.000 S 
ENDBRANCH   1  17
TORSDOF 1
ENDMDL
MODEL 5
REMARK VINA RESULT:      -6.1      1.382      1.462
REMARK  Name = 
REMARK  3 active torsions:
REMARK  status: ('A' for Active; 'I' for Inactive)
REMARK    1  A    between atoms: C_1  and  S_2
REMARK    2  A    between atoms: S_2  and  C_3
REMARK    3  A    between atoms: N_14  and  C_15
REMARK                            x       y       z     vdW  Elec       q    Type
REMARK                         _______ _______ _______ _____ _____    ______ ____
ROOT
ATOM      1  C   UNL     1       2.047   3.359  19.307  0.00  0.00    +0.000 A 
ATOM      2  N   UNL     1       2.584   2.250  18.732  0.00  0.00    +0.000 NA
ATOM      3  N   UNL     1       3.493   2.348  17.760  0.00  0.00    +0.000 NA
ATOM      4  C   UNL     1       3.846   3.604  17.394  0.00  0.00    +0.000 A 
ATOM      5  C   UNL     1       4.750   4.083  16.411  0.00  0.00    +0.000 A 
ATOM      6  C   UNL     1       5.595   3.459  15.472  0.00  0.00    +0.000 A 
ATOM      7  C   UNL     1       6.356   4.255  14.618  0.00  0.00    +0.000 A 
ATOM      8  F   UNL     1       7.152   3.668  13.714  0.00  0.00    +0.000 F 
ATOM      9  C   UNL     1       6.308   5.640  14.678  0.00  0.00    +0.000 A 
ATOM     10  C   UNL     1       5.485   6.284  15.607  0.00  0.00    +0.000 A 
ATOM     11  C   UNL     1       4.708   5.485  16.466  0.00  0.00    +0.000 A 
ATOM     12  N   UNL     1       3.810   5.825  17.464  0.00  0.00    +0.000 N 
ATOM     13  C   UNL     1       3.456   7.162  17.884  0.00  0.00    +0.000 C 
ATOM     14  C   UNL     1       3.272   4.694  18.022  0.00  0.00    +0.000 A 
ATOM     15  N   UNL     1       2.351   4.640  19.003  0.00  0.00    +0.000 NA
ENDROOT
BRANCH   1  17
ATOM     16  C   UNL     1       1.940   2.572  21.940  0.00  0.00    +0.000 C 
ATOM     17  S   UNL     1       0.850   3.137  20.611  0.00  0.00    +0.000 S 
ENDBRANCH   1  17
TORSDOF 1
ENDMDL
MODEL 6
REMARK VINA RESULT:      -6.1      3.528      3.960
REMARK  Name = 
REMARK  3 active torsions:
REMARK  status: ('A' for Active; 'I' for Inactive)
REMARK    1  A    between atoms: C_1  and  S_2
REMARK    2  A    between atoms: S_2  and  C_3
REMARK    3  A    between atoms: N_14  and  C_15
REMARK                            x       y       z     vdW  Elec       q    Type
REMARK                         _______ _______ _______ _____ _____    ______ ____
ROOT
ATOM      1  C   UNL     1       1.567   8.695  19.437  0.00  0.00    +0.000 A 
ATOM      2  N   UNL     1       1.984   9.284  18.285  0.00  0.00    +0.000 NA
ATOM      3  N   UNL     1       2.827   8.663  17.458  0.00  0.00    +0.000 NA
ATOM      4  C   UNL     1       3.228   7.423  17.831  0.00  0.00    +0.000 A 
ATOM      5  C   UNL     1       4.109   6.492  17.222  0.00  0.00    +0.000 A 
ATOM      6  C   UNL     1       4.877   6.500  16.041  0.00  0.00    +0.000 A 
ATOM      7  C   UNL     1       5.673   5.394  15.748  0.00  0.00    +0.000 A 
ATOM      8  F   UNL     1       6.416   5.401  14.633  0.00  0.00    +0.000 F 
ATOM      9  C   UNL     1       5.716   4.288  16.584  0.00  0.00    +0.000 A 
ATOM     10  C   UNL     1       4.957   4.251  17.756  0.00  0.00    +0.000 A 
ATOM     11  C   UNL     1       4.159   5.368  18.061  0.00  0.00    +0.000 A 
ATOM     12  N   UNL     1       3.320   5.625  19.133  0.00  0.00    +0.000 N 
ATOM     13  C   UNL     1       3.046   4.740  20.243  0.00  0.00    +0.000 C 
ATOM     14  C   UNL     1       2.763   6.872  19.010  0.00  0.00    +0.000 A 
ATOM     15  N   UNL     1       1.916   7.464  19.873  0.00  0.00    +0.000 NA
ENDROOT
BRANCH   1  17
ATOM     16  C   UNL     1       1.066   9.128  22.106  0.00  0.00    +0.000 C 
ATOM     17  S   UNL     1       0.427   9.589  20.477  0.00  0.00    +0.000 S 
ENDBRANCH   1  17
TORSDOF 1
ENDMDL
MODEL 7
REMARK VINA RESULT:      -6.0      2.829      3.302
REMARK  Name = 
REMARK  3 active torsions:
REMARK  status: ('A' for Active; 'I' for Inactive)
REMARK    1  A    between atoms: C_1  and  S_2
REMARK    2  A    between atoms: S_2  and  C_3
REMARK    3  A    between atoms: N_14  and  C_15
REMARK                            x       y       z     vdW  Elec       q    Type
REMARK                         _______ _______ _______ _____ _____    ______ ____
ROOT
ATOM      1  C   UNL     1       2.179   7.404  19.686  0.00  0.00    +0.000 A 
ATOM      2  N   UNL     1       2.497   8.238  18.661  0.00  0.00    +0.000 NA
ATOM      3  N   UNL     1       3.266   7.829  17.651  0.00  0.00    +0.000 NA
ATOM      4  C   UNL     1       3.697   6.545  17.708  0.00  0.00    +0.000 A 
ATOM      5  C   UNL     1       4.524   5.786  16.839  0.00  0.00    +0.000 A 
ATOM      6  C   UNL     1       5.189   6.066  15.630  0.00  0.00    +0.000 A 
ATOM      7  C   UNL     1       5.957   5.065  15.036  0.00  0.00    +0.000 A 
ATOM      8  F   UNL     1       6.603   5.329  13.892  0.00  0.00    +0.000 F 
ATOM      9  C   UNL     1       6.071   3.804  15.602  0.00  0.00    +0.000 A 
ATOM     10  C   UNL     1       5.413   3.498  16.797  0.00  0.00    +0.000 A 
ATOM     11  C   UNL     1       4.644   4.507  17.404  0.00  0.00    +0.000 A 
ATOM     12  N   UNL     1       3.899   4.507  18.572  0.00  0.00    +0.000 N 
ATOM     13  C   UNL     1       3.720   3.397  19.479  0.00  0.00    +0.000 C 
ATOM     14  C   UNL     1       3.334   5.740  18.772  0.00  0.00    +0.000 A 
ATOM     15  N   UNL     1       2.563   6.115  19.811  0.00  0.00    +0.000 NA
ENDROOT
BRANCH   1  17
ATOM     16  C   UNL     1       0.607   9.591  20.240  0.00  0.00    +0.000 C 
ATOM     17  S   UNL     1       1.132   8.029  20.988  0.00  0.00    +0.000 S 
ENDBRANCH   1  17
TORSDOF 1
ENDMDL
MODEL 8
REMARK VINA RESULT:      -6.0      4.466      5.968
REMARK  Name = 
REMARK  3 active torsions:
REMARK  status: ('A' for Active; 'I' for Inactive)
REMARK    1  A    between atoms: C_1  and  S_2
REMARK    2  A    between atoms: S_2  and  C_3
REMARK    3  A    between atoms: N_14  and  C_15
REMARK                            x       y       z     vdW  Elec       q    Type
REMARK                         _______ _______ _______ _____ _____    ______ ____
ROOT
ATOM      1  C   UNL     1       1.982   8.913  18.805  0.00  0.00    +0.000 A 
ATOM      2  N   UNL     1       1.354   8.619  19.974  0.00  0.00    +0.000 NA
ATOM      3  N   UNL     1       1.455   7.410  20.528  0.00  0.00    +0.000 NA
ATOM      4  C   UNL     1       2.220   6.509  19.864  0.00  0.00    +0.000 A 
ATOM      5  C   UNL     1       2.537   5.154  20.139  0.00  0.00    +0.000 A 
ATOM      6  C   UNL     1       2.191   4.258  21.169  0.00  0.00    +0.000 A 
ATOM      7  C   UNL     1       2.676   2.952  21.118  0.00  0.00    +0.000 A 
ATOM      8  F   UNL     1       2.340   2.091  22.088  0.00  0.00    +0.000 F 
ATOM      9  C   UNL     1       3.496   2.522  20.084  0.00  0.00    +0.000 A 
ATOM     10  C   UNL     1       3.861   3.393  19.055  0.00  0.00    +0.000 A 
ATOM     11  C   UNL     1       3.367   4.709  19.098  0.00  0.00    +0.000 A 
ATOM     12  N   UNL     1       3.544   5.779  18.235  0.00  0.00    +0.000 N 
ATOM     13  C   UNL     1       4.338   5.788  17.028  0.00  0.00    +0.000 C 
ATOM     14  C   UNL     1       2.842   6.868  18.682  0.00  0.00    +0.000 A 
ATOM     15  N   UNL     1       2.763   8.075  18.089  0.00  0.00    +0.000 NA
ENDROOT
BRANCH   1  17
ATOM     16  C   UNL     1       0.207  11.013  18.861  0.00  0.00    +0.000 C 
ATOM     17  S   UNL     1       1.806  10.560  18.143  0.00  0.00    +0.000 S 
ENDBRANCH   1  17
TORSDOF 1
ENDMDL
MODEL 9
REMARK VINA RESULT:      -5.9      3.805      4.481
REMARK  Name = 
REMARK  3 active torsions:
REMARK  status: ('A' for Active; 'I' for Inactive)
REMARK    1  A    between atoms: C_1  and  S_2
REMARK    2  A    between atoms: S_2  and  C_3
REMARK    3  A    between atoms: N_14  and  C_15
REMARK                            x       y       z     vdW  Elec       q    Type
REMARK                         _______ _______ _______ _____ _____    ______ ____
ROOT
ATOM      1  C   UNL     1       1.228   8.800  19.955  0.00  0.00    +0.000 A 
ATOM      2  N   UNL     1       1.664   9.420  18.826  0.00  0.00    +0.000 NA
ATOM      3  N   UNL     1       2.501   8.811  17.984  0.00  0.00    +0.000 NA
ATOM      4  C   UNL     1       2.877   7.552  18.318  0.00  0.00    +0.000 A 
ATOM      5  C   UNL     1       3.745   6.626  17.684  0.00  0.00    +0.000 A 
ATOM      6  C   UNL     1       4.522   6.659  16.510  0.00  0.00    +0.000 A 
ATOM      7  C   UNL     1       5.299   5.549  16.186  0.00  0.00    +0.000 A 
ATOM      8  F   UNL     1       6.051   5.578  15.077  0.00  0.00    +0.000 F 
ATOM      9  C   UNL     1       5.316   4.414  16.984  0.00  0.00    +0.000 A 
ATOM     10  C   UNL     1       4.548   4.352  18.150  0.00  0.00    +0.000 A 
ATOM     11  C   UNL     1       3.768   5.474  18.486  0.00  0.00    +0.000 A 
ATOM     12  N   UNL     1       2.926   5.710  19.560  0.00  0.00    +0.000 N 
ATOM     13  C   UNL     1       2.628   4.794  20.638  0.00  0.00    +0.000 C 
ATOM     14  C   UNL     1       2.393   6.970  19.475  0.00  0.00    +0.000 A 
ATOM     15  N   UNL     1       1.551   7.550  20.352  0.00  0.00    +0.000 NA
ENDROOT
BRANCH   1  17
ATOM     16  C   UNL     1      -0.784  10.667  19.781  0.00  0.00    +0.000 C 
ATOM     17  S   UNL     1       0.097   9.681  21.017  0.00  0.00    +0.000 S 
ENDBRANCH   1  17
TORSDOF 1
ENDMDL
