MODEL 1
REMARK VINA RESULT:      -8.0      0.000      0.000
REMARK  Name = 
REMARK  8 active torsions:
REMARK  status: ('A' for Active; 'I' for Inactive)
REMARK    1  A    between atoms: C_2  and  C_3
REMARK    2  A    between atoms: C_3  and  C_23
REMARK    3  A    between atoms: C_4  and  C_5
REMARK    4  A    between atoms: C_8  and  O_9
REMARK    5  A    between atoms: O_9  and  C_10
REMARK    6  A    between atoms: C_10  and  C_11
REMARK    7  A    between atoms: C_14  and  C_15
REMARK    8  A    between atoms: C_15  and  O_17
REMARK                            x       y       z     vdW  Elec       q    Type
REMARK                         _______ _______ _______ _____ _____    ______ ____
ROOT
ATOM      1  C   UNL     1       3.511   5.326  17.610  0.00  0.00    +0.000 A 
ATOM      2  C   UNL     1       3.225   6.689  17.659  0.00  0.00    +0.000 A 
ATOM      3  C   UNL     1       2.566   7.227  18.764  0.00  0.00    +0.000 A 
ATOM      4  C   UNL     1       2.164   6.410  19.828  0.00  0.00    +0.000 A 
ATOM      5  C   UNL     1       2.485   5.045  19.786  0.00  0.00    +0.000 A 
ATOM      6 BR   UNL     1       2.024   3.873  21.208  0.00  0.00    +0.000 Br
ATOM      7  C   UNL     1       3.151   4.504  18.681  0.00  0.00    +0.000 A 
ENDROOT
BRANCH   1   9
ATOM      8  C   UNL     1       5.519   4.863  16.199  0.00  0.00    +0.000 C 
ATOM      9  C   UNL     1       4.194   4.779  16.439  0.00  0.00    +0.000 C 
BRANCH   8  10
ATOM     10  C   UNL     1       6.457   5.562  17.086  0.00  0.00    +0.000 A 
ATOM     11  C   UNL     1       6.957   4.924  18.233  0.00  0.00    +0.000 A 
ATOM     12  C   UNL     1       7.789   5.610  19.121  0.00  0.00    +0.000 A 
ATOM     13  C   UNL     1       8.130   6.939  18.867  0.00  0.00    +0.000 A 
ATOM     14  C   UNL     1       7.643   7.563  17.723  0.00  0.00    +0.000 A 
ATOM     15  F   UNL     1       7.968   8.841  17.485  0.00  0.00    +0.000 F 
ATOM     16  C   UNL     1       6.815   6.890  16.833  0.00  0.00    +0.000 A 
ENDBRANCH   8  10
BRANCH   8  18
ATOM     17  N   UNL     1       6.457   3.718  13.844  0.00  0.00    +0.000 NA
ATOM     18  C   UNL     1       6.032   4.237  14.911  0.00  0.00    +0.000 C 
ENDBRANCH   8  18
ENDBRANCH   1   9
BRANCH   4  19
ATOM     19  O   UNL     1       1.470   6.875  20.920  0.00  0.00    +0.000 OA
BRANCH  19  20
ATOM     20  C   UNL     1       1.955   8.104  21.464  0.00  0.00    +0.000 C 
BRANCH  20  21
ATOM     21  C   UNL     1       0.878   9.155  21.594  0.00  0.00    +0.000 A 
ATOM     22  C   UNL     1       0.304   9.364  22.858  0.00  0.00    +0.000 A 
ATOM     23  C   UNL     1      -0.657  10.356  23.048  0.00  0.00    +0.000 A 
ATOM     24  C   UNL     1      -1.056  11.159  21.976  0.00  0.00    +0.000 A 
ATOM     25  C   UNL     1      -0.457  10.988  20.720  0.00  0.00    +0.000 A 
ATOM     26  C   UNL     1       0.502   9.987  20.531  0.00  0.00    +0.000 A 
BRANCH  24  27
ATOM     27  C   UNL     1      -2.082  12.199  22.239  0.00  0.00    +0.000 C 
ATOM     28  O   UNL     1      -2.998  12.432  21.469  0.00  0.00    +0.000 OA
BRANCH  27  29
ATOM     29  O   UNL     1      -1.880  12.897  23.375  0.00  0.00    +0.000 OA
ATOM     30  H   UNL     1      -1.202  13.594  23.317  0.00  0.00    +0.000 HD
ENDBRANCH  27  29
ENDBRANCH  24  27
ENDBRANCH  20  21
ENDBRANCH  19  20
ENDBRANCH   4  19
TORSDOF 8
ENDMDL
MODEL 2
REMARK VINA RESULT:      -8.0      0.851      1.235
REMARK  Name = 
REMARK  8 active torsions:
REMARK  status: ('A' for Active; 'I' for Inactive)
REMARK    1  A    between atoms: C_2  and  C_3
REMARK    2  A    between atoms: C_3  and  C_23
REMARK    3  A    between atoms: C_4  and  C_5
REMARK    4  A    between atoms: C_8  and  O_9
REMARK    5  A    between atoms: O_9  and  C_10
REMARK    6  A    between atoms: C_10  and  C_11
REMARK    7  A    between atoms: C_14  and  C_15
REMARK    8  A    between atoms: C_15  and  O_17
REMARK                            x       y       z     vdW  Elec       q    Type
REMARK                         _______ _______ _______ _____ _____    ______ ____
ROOT
ATOM      1  C   UNL     1       3.460   5.348  17.673  0.00  0.00    +0.000 A 
ATOM      2  C   UNL     1       3.276   6.726  17.770  0.00  0.00    +0.000 A 
ATOM      3  C   UNL     1       2.588   7.266  18.857  0.00  0.00    +0.000 A 
ATOM      4  C   UNL     1       2.055   6.437  19.852  0.00  0.00    +0.000 A 
ATOM      5  C   UNL     1       2.273   5.054  19.763  0.00  0.00    +0.000 A 
ATOM      6 BR   UNL     1       1.630   3.860  21.094  0.00  0.00    +0.000 Br
ATOM      7  C   UNL     1       2.968   4.511  18.677  0.00  0.00    +0.000 A 
ENDROOT
BRANCH   1   9
ATOM      8  C   UNL     1       5.495   4.950  16.280  0.00  0.00    +0.000 C 
ATOM      9  C   UNL     1       4.177   4.800  16.521  0.00  0.00    +0.000 C 
BRANCH   8  10
ATOM     10  C   UNL     1       6.390   5.730  17.144  0.00  0.00    +0.000 A 
ATOM     11  C   UNL     1       6.707   7.059  16.822  0.00  0.00    +0.000 A 
ATOM     12  C   UNL     1       7.618   7.779  17.598  0.00  0.00    +0.000 A 
ATOM     13  C   UNL     1       8.217   7.177  18.704  0.00  0.00    +0.000 A 
ATOM     14  C   UNL     1       7.890   5.864  19.028  0.00  0.00    +0.000 A 
ATOM     15  F   UNL     1       8.472   5.287  20.088  0.00  0.00    +0.000 F 
ATOM     16  C   UNL     1       6.987   5.138  18.263  0.00  0.00    +0.000 A 
ENDBRANCH   8  10
BRANCH   8  18
ATOM     17  N   UNL     1       6.502   3.782  13.966  0.00  0.00    +0.000 NA
ATOM     18  C   UNL     1       6.046   4.311  15.015  0.00  0.00    +0.000 C 
ENDBRANCH   8  18
ENDBRANCH   1   9
BRANCH   4  19
ATOM     19  O   UNL     1       1.327   6.907  20.919  0.00  0.00    +0.000 OA
BRANCH  19  20
ATOM     20  C   UNL     1       1.845   8.092  21.527  0.00  0.00    +0.000 C 
BRANCH  20  21
ATOM     21  C   UNL     1       0.799   9.167  21.707  0.00  0.00    +0.000 A 
ATOM     22  C   UNL     1       0.241   9.341  22.984  0.00  0.00    +0.000 A 
ATOM     23  C   UNL     1      -0.691  10.351  23.220  0.00  0.00    +0.000 A 
ATOM     24  C   UNL     1      -1.075  11.206  22.184  0.00  0.00    +0.000 A 
ATOM     25  C   UNL     1      -0.490  11.069  20.917  0.00  0.00    +0.000 A 
ATOM     26  C   UNL     1       0.440  10.050  20.681  0.00  0.00    +0.000 A 
BRANCH  24  27
ATOM     27  C   UNL     1      -2.069  12.263  22.495  0.00  0.00    +0.000 C 
ATOM     28  O   UNL     1      -3.143  12.349  21.924  0.00  0.00    +0.000 OA
BRANCH  27  29
ATOM     29  O   UNL     1      -1.657  13.149  23.425  0.00  0.00    +0.000 OA
ATOM     30  H   UNL     1      -2.107  14.013  23.402  0.00  0.00    +0.000 HD
ENDBRANCH  27  29
ENDBRANCH  24  27
ENDBRANCH  20  21
ENDBRANCH  19  20
ENDBRANCH   4  19
TORSDOF 8
ENDMDL
MODEL 3
REMARK VINA RESULT:      -7.9      0.347      1.034
REMARK  Name = 
REMARK  8 active torsions:
REMARK  status: ('A' for Active; 'I' for Inactive)
REMARK    1  A    between atoms: C_2  and  C_3
REMARK    2  A    between atoms: C_3  and  C_23
REMARK    3  A    between atoms: C_4  and  C_5
REMARK    4  A    between atoms: C_8  and  O_9
REMARK    5  A    between atoms: O_9  and  C_10
REMARK    6  A    between atoms: C_10  and  C_11
REMARK    7  A    between atoms: C_14  and  C_15
REMARK    8  A    between atoms: C_15  and  O_17
REMARK                            x       y       z     vdW  Elec       q    Type
REMARK                         _______ _______ _______ _____ _____    ______ ____
ROOT
ATOM      1  C   UNL     1       3.489   5.366  17.620  0.00  0.00    +0.000 A 
ATOM      2  C   UNL     1       3.204   6.730  17.660  0.00  0.00    +0.000 A 
ATOM      3  C   UNL     1       2.549   7.276  18.764  0.00  0.00    +0.000 A 
ATOM      4  C   UNL     1       2.148   6.466  19.834  0.00  0.00    +0.000 A 
ATOM      5  C   UNL     1       2.469   5.101  19.801  0.00  0.00    +0.000 A 
ATOM      6 BR   UNL     1       2.010   3.938  21.232  0.00  0.00    +0.000 Br
ATOM      7  C   UNL     1       3.131   4.551  18.697  0.00  0.00    +0.000 A 
ENDROOT
BRANCH   1   9
ATOM      8  C   UNL     1       5.494   4.884  16.211  0.00  0.00    +0.000 C 
ATOM      9  C   UNL     1       4.169   4.810  16.451  0.00  0.00    +0.000 C 
BRANCH   8  10
ATOM     10  C   UNL     1       6.437   5.578  17.097  0.00  0.00    +0.000 A 
ATOM     11  C   UNL     1       6.929   4.942  18.248  0.00  0.00    +0.000 A 
ATOM     12  C   UNL     1       7.765   5.624  19.134  0.00  0.00    +0.000 A 
ATOM     13  C   UNL     1       8.119   6.948  18.875  0.00  0.00    +0.000 A 
ATOM     14  C   UNL     1       7.640   7.571  17.728  0.00  0.00    +0.000 A 
ATOM     15  F   UNL     1       7.977   8.845  17.485  0.00  0.00    +0.000 F 
ATOM     16  C   UNL     1       6.807   6.903  16.839  0.00  0.00    +0.000 A 
ENDBRANCH   8  10
BRANCH   8  18
ATOM     17  N   UNL     1       6.426   3.727  13.860  0.00  0.00    +0.000 NA
ATOM     18  C   UNL     1       6.003   4.251  14.926  0.00  0.00    +0.000 C 
ENDBRANCH   8  18
ENDBRANCH   1   9
BRANCH   4  19
ATOM     19  O   UNL     1       1.457   6.939  20.924  0.00  0.00    +0.000 OA
BRANCH  19  20
ATOM     20  C   UNL     1       1.986   8.135  21.501  0.00  0.00    +0.000 C 
BRANCH  20  21
ATOM     21  C   UNL     1       0.933   9.193  21.730  0.00  0.00    +0.000 A 
ATOM     22  C   UNL     1       0.517   9.964  20.633  0.00  0.00    +0.000 A 
ATOM     23  C   UNL     1      -0.488  10.919  20.775  0.00  0.00    +0.000 A 
ATOM     24  C   UNL     1      -1.098  11.115  22.017  0.00  0.00    +0.000 A 
ATOM     25  C   UNL     1      -0.721  10.320  23.109  0.00  0.00    +0.000 A 
ATOM     26  C   UNL     1       0.293   9.367  22.965  0.00  0.00    +0.000 A 
BRANCH  24  27
ATOM     27  C   UNL     1      -2.163  12.145  22.108  0.00  0.00    +0.000 C 
ATOM     28  O   UNL     1      -3.026  12.128  22.968  0.00  0.00    +0.000 OA
BRANCH  27  29
ATOM     29  O   UNL     1      -2.120  13.068  21.125  0.00  0.00    +0.000 OA
ATOM     30  H   UNL     1      -2.079  13.993  21.428  0.00  0.00    +0.000 HD
ENDBRANCH  27  29
ENDBRANCH  24  27
ENDBRANCH  20  21
ENDBRANCH  19  20
ENDBRANCH   4  19
TORSDOF 8
ENDMDL
MODEL 4
REMARK VINA RESULT:      -7.8      1.116      1.719
REMARK  Name = 
REMARK  8 active torsions:
REMARK  status: ('A' for Active; 'I' for Inactive)
REMARK    1  A    between atoms: C_2  and  C_3
REMARK    2  A    between atoms: C_3  and  C_23
REMARK    3  A    between atoms: C_4  and  C_5
REMARK    4  A    between atoms: C_8  and  O_9
REMARK    5  A    between atoms: O_9  and  C_10
REMARK    6  A    between atoms: C_10  and  C_11
REMARK    7  A    between atoms: C_14  and  C_15
REMARK    8  A    between atoms: C_15  and  O_17
REMARK                            x       y       z     vdW  Elec       q    Type
REMARK                         _______ _______ _______ _____ _____    ______ ____
ROOT
ATOM      1  C   UNL     1       3.480   5.390  17.826  0.00  0.00    +0.000 A 
ATOM      2  C   UNL     1       3.181   6.750  17.864  0.00  0.00    +0.000 A 
ATOM      3  C   UNL     1       2.537   7.295  18.975  0.00  0.00    +0.000 A 
ATOM      4  C   UNL     1       2.160   6.486  20.054  0.00  0.00    +0.000 A 
ATOM      5  C   UNL     1       2.494   5.124  20.022  0.00  0.00    +0.000 A 
ATOM      6 BR   UNL     1       2.068   3.963  21.465  0.00  0.00    +0.000 Br
ATOM      7  C   UNL     1       3.146   4.576  18.912  0.00  0.00    +0.000 A 
ENDROOT
BRANCH   1   9
ATOM      8  C   UNL     1       5.458   4.980  16.356  0.00  0.00    +0.000 C 
ATOM      9  C   UNL     1       4.149   4.835  16.650  0.00  0.00    +0.000 C 
BRANCH   8  10
ATOM     10  C   UNL     1       6.389   5.759  17.183  0.00  0.00    +0.000 A 
ATOM     11  C   UNL     1       6.684   7.091  16.854  0.00  0.00    +0.000 A 
ATOM     12  C   UNL     1       7.627   7.812  17.590  0.00  0.00    +0.000 A 
ATOM     13  C   UNL     1       8.279   7.207  18.664  0.00  0.00    +0.000 A 
ATOM     14  C   UNL     1       7.974   5.891  18.995  0.00  0.00    +0.000 A 
ATOM     15  F   UNL     1       8.607   5.311  20.024  0.00  0.00    +0.000 F 
ATOM     16  C   UNL     1       7.039   5.164  18.269  0.00  0.00    +0.000 A 
ENDBRANCH   8  10
BRANCH   8  18
ATOM     17  N   UNL     1       6.370   3.800  14.009  0.00  0.00    +0.000 NA
ATOM     18  C   UNL     1       5.956   4.334  15.073  0.00  0.00    +0.000 C 
ENDBRANCH   8  18
ENDBRANCH   1   9
BRANCH   4  19
ATOM     19  O   UNL     1       1.480   6.957  21.152  0.00  0.00    +0.000 OA
BRANCH  19  20
ATOM     20  C   UNL     1       0.164   7.444  20.883  0.00  0.00    +0.000 C 
BRANCH  20  21
ATOM     21  C   UNL     1      -0.051   8.858  21.370  0.00  0.00    +0.000 A 
ATOM     22  C   UNL     1       0.051   9.903  20.438  0.00  0.00    +0.000 A 
ATOM     23  C   UNL     1      -0.188  11.222  20.821  0.00  0.00    +0.000 A 
ATOM     24  C   UNL     1      -0.538  11.516  22.142  0.00  0.00    +0.000 A 
ATOM     25  C   UNL     1      -0.685  10.475  23.069  0.00  0.00    +0.000 A 
ATOM     26  C   UNL     1      -0.438   9.153  22.684  0.00  0.00    +0.000 A 
BRANCH  24  27
ATOM     27  C   UNL     1      -0.781  12.938  22.491  0.00  0.00    +0.000 C 
ATOM     28  O   UNL     1      -1.888  13.372  22.760  0.00  0.00    +0.000 OA
BRANCH  27  29
ATOM     29  O   UNL     1       0.320  13.716  22.431  0.00  0.00    +0.000 OA
ATOM     30  H   UNL     1       0.617  14.076  23.286  0.00  0.00    +0.000 HD
ENDBRANCH  27  29
ENDBRANCH  24  27
ENDBRANCH  20  21
ENDBRANCH  19  20
ENDBRANCH   4  19
TORSDOF 8
ENDMDL
MODEL 5
REMARK VINA RESULT:      -7.8      2.997      3.945
REMARK  Name = 
REMARK  8 active torsions:
REMARK  status: ('A' for Active; 'I' for Inactive)
REMARK    1  A    between atoms: C_2  and  C_3
REMARK    2  A    between atoms: C_3  and  C_23
REMARK    3  A    between atoms: C_4  and  C_5
REMARK    4  A    between atoms: C_8  and  O_9
REMARK    5  A    between atoms: O_9  and  C_10
REMARK    6  A    between atoms: C_10  and  C_11
REMARK    7  A    between atoms: C_14  and  C_15
REMARK    8  A    between atoms: C_15  and  O_17
REMARK                            x       y       z     vdW  Elec       q    Type
REMARK                         _______ _______ _______ _____ _____    ______ ____
ROOT
ATOM      1  C   UNL     1       2.165   6.166  19.167  0.00  0.00    +0.000 A 
ATOM      2  C   UNL     1       2.263   6.963  18.028  0.00  0.00    +0.000 A 
ATOM      3  C   UNL     1       1.993   8.329  18.103  0.00  0.00    +0.000 A 
ATOM      4  C   UNL     1       1.599   8.917  19.312  0.00  0.00    +0.000 A 
ATOM      5  C   UNL     1       1.536   8.115  20.461  0.00  0.00    +0.000 A 
ATOM      6 BR   UNL     1       1.062   8.839  22.152  0.00  0.00    +0.000 Br
ATOM      7  C   UNL     1       1.812   6.745  20.389  0.00  0.00    +0.000 A 
ENDROOT
BRANCH   1   9
ATOM      8  C   UNL     1       3.591   4.193  18.608  0.00  0.00    +0.000 C 
ATOM      9  C   UNL     1       2.444   4.734  19.066  0.00  0.00    +0.000 C 
BRANCH   8  10
ATOM     10  C   UNL     1       4.717   4.993  18.107  0.00  0.00    +0.000 A 
ATOM     11  C   UNL     1       4.768   5.379  16.759  0.00  0.00    +0.000 A 
ATOM     12  C   UNL     1       5.873   6.073  16.261  0.00  0.00    +0.000 A 
ATOM     13  C   UNL     1       6.934   6.389  17.108  0.00  0.00    +0.000 A 
ATOM     14  C   UNL     1       6.874   6.016  18.447  0.00  0.00    +0.000 A 
ATOM     15  F   UNL     1       7.898   6.316  19.258  0.00  0.00    +0.000 F 
ATOM     16  C   UNL     1       5.780   5.325  18.953  0.00  0.00    +0.000 A 
ENDBRANCH   8  10
BRANCH   8  18
ATOM     17  N   UNL     1       3.748   1.417  18.541  0.00  0.00    +0.000 NA
ATOM     18  C   UNL     1       3.677   2.676  18.571  0.00  0.00    +0.000 C 
ENDBRANCH   8  18
ENDBRANCH   1   9
BRANCH   4  19
ATOM     19  O   UNL     1       1.274  10.247  19.436  0.00  0.00    +0.000 OA
BRANCH  19  20
ATOM     20  C   UNL     1       0.769  10.858  18.247  0.00  0.00    +0.000 C 
BRANCH  20  21
ATOM     21  C   UNL     1      -0.737  10.801  18.150  0.00  0.00    +0.000 A 
ATOM     22  C   UNL     1      -1.480  11.823  18.762  0.00  0.00    +0.000 A 
ATOM     23  C   UNL     1      -2.870  11.849  18.661  0.00  0.00    +0.000 A 
ATOM     24  C   UNL     1      -3.540  10.856  17.941  0.00  0.00    +0.000 A 
ATOM     25  C   UNL     1      -2.804   9.857  17.289  0.00  0.00    +0.000 A 
ATOM     26  C   UNL     1      -1.409   9.829  17.398  0.00  0.00    +0.000 A 
BRANCH  24  27
ATOM     27  C   UNL     1      -5.020  10.937  17.867  0.00  0.00    +0.000 C 
ATOM     28  O   UNL     1      -5.752  10.389  18.674  0.00  0.00    +0.000 OA
BRANCH  27  29
ATOM     29  O   UNL     1      -5.481  11.624  16.802  0.00  0.00    +0.000 OA
ATOM     30  H   UNL     1      -5.083  11.377  15.948  0.00  0.00    +0.000 HD
ENDBRANCH  27  29
ENDBRANCH  24  27
ENDBRANCH  20  21
ENDBRANCH  19  20
ENDBRANCH   4  19
TORSDOF 8
ENDMDL
MODEL 6
REMARK VINA RESULT:      -7.7      1.151      1.598
REMARK  Name = 
REMARK  8 active torsions:
REMARK  status: ('A' for Active; 'I' for Inactive)
REMARK    1  A    between atoms: C_2  and  C_3
REMARK    2  A    between atoms: C_3  and  C_23
REMARK    3  A    between atoms: C_4  and  C_5
REMARK    4  A    between atoms: C_8  and  O_9
REMARK    5  A    between atoms: O_9  and  C_10
REMARK    6  A    between atoms: C_10  and  C_11
REMARK    7  A    between atoms: C_14  and  C_15
REMARK    8  A    between atoms: C_15  and  O_17
REMARK                            x       y       z     vdW  Elec       q    Type
REMARK                         _______ _______ _______ _____ _____    ______ ____
ROOT
ATOM      1  C   UNL     1       3.554   5.238  17.556  0.00  0.00    +0.000 A 
ATOM      2  C   UNL     1       3.297   6.607  17.597  0.00  0.00    +0.000 A 
ATOM      3  C   UNL     1       2.630   7.162  18.688  0.00  0.00    +0.000 A 
ATOM      4  C   UNL     1       2.190   6.356  19.747  0.00  0.00    +0.000 A 
ATOM      5  C   UNL     1       2.483   4.985  19.714  0.00  0.00    +0.000 A 
ATOM      6 BR   UNL     1       1.970   3.826  21.130  0.00  0.00    +0.000 Br
ATOM      7  C   UNL     1       3.157   4.426  18.622  0.00  0.00    +0.000 A 
ENDROOT
BRANCH   1   9
ATOM      8  C   UNL     1       5.569   4.777  16.154  0.00  0.00    +0.000 C 
ATOM      9  C   UNL     1       4.247   4.672  16.399  0.00  0.00    +0.000 C 
BRANCH   8  10
ATOM     10  C   UNL     1       6.494   5.519  17.020  0.00  0.00    +0.000 A 
ATOM     11  C   UNL     1       7.064   4.901  18.144  0.00  0.00    +0.000 A 
ATOM     12  C   UNL     1       7.883   5.624  19.014  0.00  0.00    +0.000 A 
ATOM     13  C   UNL     1       8.142   6.971  18.764  0.00  0.00    +0.000 A 
ATOM     14  C   UNL     1       7.587   7.577  17.641  0.00  0.00    +0.000 A 
ATOM     15  F   UNL     1       7.834   8.873  17.407  0.00  0.00    +0.000 F 
ATOM     16  C   UNL     1       6.770   6.868  16.770  0.00  0.00    +0.000 A 
ENDBRANCH   8  10
BRANCH   8  18
ATOM     17  N   UNL     1       6.527   3.588  13.829  0.00  0.00    +0.000 NA
ATOM     18  C   UNL     1       6.093   4.127  14.883  0.00  0.00    +0.000 C 
ENDBRANCH   8  18
ENDBRANCH   1   9
BRANCH   4  19
ATOM     19  O   UNL     1       1.487   6.840  20.824  0.00  0.00    +0.000 OA
BRANCH  19  20
ATOM     20  C   UNL     1       1.792   8.187  21.188  0.00  0.00    +0.000 C 
BRANCH  20  21
ATOM     21  C   UNL     1       0.892   9.197  20.515  0.00  0.00    +0.000 A 
ATOM     22  C   UNL     1      -0.189   9.713  21.248  0.00  0.00    +0.000 A 
ATOM     23  C   UNL     1      -1.021  10.686  20.695  0.00  0.00    +0.000 A 
ATOM     24  C   UNL     1      -0.783  11.160  19.403  0.00  0.00    +0.000 A 
ATOM     25  C   UNL     1       0.320  10.683  18.681  0.00  0.00    +0.000 A 
ATOM     26  C   UNL     1       1.150   9.702  19.235  0.00  0.00    +0.000 A 
BRANCH  24  27
ATOM     27  C   UNL     1      -1.701  12.196  18.868  0.00  0.00    +0.000 C 
ATOM     28  O   UNL     1      -2.484  12.812  19.572  0.00  0.00    +0.000 OA
BRANCH  27  29
ATOM     29  O   UNL     1      -1.631  12.357  17.530  0.00  0.00    +0.000 OA
ATOM     30  H   UNL     1      -1.939  11.596  17.006  0.00  0.00    +0.000 HD
ENDBRANCH  27  29
ENDBRANCH  24  27
ENDBRANCH  20  21
ENDBRANCH  19  20
ENDBRANCH   4  19
TORSDOF 8
ENDMDL
MODEL 7
REMARK VINA RESULT:      -7.7      3.647      5.231
REMARK  Name = 
REMARK  8 active torsions:
REMARK  status: ('A' for Active; 'I' for Inactive)
REMARK    1  A    between atoms: C_2  and  C_3
REMARK    2  A    between atoms: C_3  and  C_23
REMARK    3  A    between atoms: C_4  and  C_5
REMARK    4  A    between atoms: C_8  and  O_9
REMARK    5  A    between atoms: O_9  and  C_10
REMARK    6  A    between atoms: C_10  and  C_11
REMARK    7  A    between atoms: C_14  and  C_15
REMARK    8  A    between atoms: C_15  and  O_17
REMARK                            x       y       z     vdW  Elec       q    Type
REMARK                         _______ _______ _______ _____ _____    ______ ____
ROOT
ATOM      1  C   UNL     1       2.637   7.802  18.291  0.00  0.00    +0.000 A 
ATOM      2  C   UNL     1       2.007   8.726  17.459  0.00  0.00    +0.000 A 
ATOM      3  C   UNL     1       1.049   9.596  17.978  0.00  0.00    +0.000 A 
ATOM      4  C   UNL     1       0.689   9.543  19.330  0.00  0.00    +0.000 A 
ATOM      5  C   UNL     1       1.351   8.634  20.167  0.00  0.00    +0.000 A 
ATOM      6 BR   UNL     1       0.963   8.530  22.025  0.00  0.00    +0.000 Br
ATOM      7  C   UNL     1       2.317   7.763  19.651  0.00  0.00    +0.000 A 
ENDROOT
BRANCH   1   9
ATOM      8  C   UNL     1       3.683   5.561  17.941  0.00  0.00    +0.000 C 
ATOM      9  C   UNL     1       3.633   6.892  17.727  0.00  0.00    +0.000 C 
BRANCH   8  10
ATOM     10  C   UNL     1       2.742   4.849  18.816  0.00  0.00    +0.000 A 
ATOM     11  C   UNL     1       2.831   4.981  20.210  0.00  0.00    +0.000 A 
ATOM     12  C   UNL     1       1.989   4.246  21.048  0.00  0.00    +0.000 A 
ATOM     13  C   UNL     1       1.049   3.376  20.498  0.00  0.00    +0.000 A 
ATOM     14  C   UNL     1       0.954   3.257  19.115  0.00  0.00    +0.000 A 
ATOM     15  F   UNL     1       0.054   2.416  18.589  0.00  0.00    +0.000 F 
ATOM     16  C   UNL     1       1.787   3.982  18.272  0.00  0.00    +0.000 A 
ENDBRANCH   8  10
BRANCH   8  18
ATOM     17  N   UNL     1       5.744   4.154  16.715  0.00  0.00    +0.000 NA
ATOM     18  C   UNL     1       4.810   4.791  17.271  0.00  0.00    +0.000 C 
ENDBRANCH   8  18
ENDBRANCH   1   9
BRANCH   4  19
ATOM     19  O   UNL     1      -0.282  10.342  19.886  0.00  0.00    +0.000 OA
BRANCH  19  20
ATOM     20  C   UNL     1      -0.715  11.427  19.064  0.00  0.00    +0.000 C 
BRANCH  20  21
ATOM     21  C   UNL     1      -2.191  11.372  18.746  0.00  0.00    +0.000 A 
ATOM     22  C   UNL     1      -3.061  12.177  19.498  0.00  0.00    +0.000 A 
ATOM     23  C   UNL     1      -4.426  12.206  19.215  0.00  0.00    +0.000 A 
ATOM     24  C   UNL     1      -4.941  11.433  18.171  0.00  0.00    +0.000 A 
ATOM     25  C   UNL     1      -4.074  10.661  17.386  0.00  0.00    +0.000 A 
ATOM     26  C   UNL     1      -2.706  10.628  17.677  0.00  0.00    +0.000 A 
BRANCH  24  27
ATOM     27  C   UNL     1      -6.402  11.505  17.916  0.00  0.00    +0.000 C 
ATOM     28  O   UNL     1      -7.218  10.871  18.562  0.00  0.00    +0.000 OA
BRANCH  27  29
ATOM     29  O   UNL     1      -6.740  12.292  16.874  0.00  0.00    +0.000 OA
ATOM     30  H   UNL     1      -7.570  12.790  16.984  0.00  0.00    +0.000 HD
ENDBRANCH  27  29
ENDBRANCH  24  27
ENDBRANCH  20  21
ENDBRANCH  19  20
ENDBRANCH   4  19
TORSDOF 8
ENDMDL
MODEL 8
REMARK VINA RESULT:      -7.6      3.549      5.124
REMARK  Name = 
REMARK  8 active torsions:
REMARK  status: ('A' for Active; 'I' for Inactive)
REMARK    1  A    between atoms: C_2  and  C_3
REMARK    2  A    between atoms: C_3  and  C_23
REMARK    3  A    between atoms: C_4  and  C_5
REMARK    4  A    between atoms: C_8  and  O_9
REMARK    5  A    between atoms: O_9  and  C_10
REMARK    6  A    between atoms: C_10  and  C_11
REMARK    7  A    between atoms: C_14  and  C_15
REMARK    8  A    between atoms: C_15  and  O_17
REMARK                            x       y       z     vdW  Elec       q    Type
REMARK                         _______ _______ _______ _____ _____    ______ ____
ROOT
ATOM      1  C   UNL     1       2.753   7.784  18.233  0.00  0.00    +0.000 A 
ATOM      2  C   UNL     1       2.079   8.635  17.360  0.00  0.00    +0.000 A 
ATOM      3  C   UNL     1       1.061   9.461  17.836  0.00  0.00    +0.000 A 
ATOM      4  C   UNL     1       0.685   9.434  19.185  0.00  0.00    +0.000 A 
ATOM      5  C   UNL     1       1.392   8.599  20.062  0.00  0.00    +0.000 A 
ATOM      6 BR   UNL     1       0.985   8.536  21.917  0.00  0.00    +0.000 Br
ATOM      7  C   UNL     1       2.417   7.773  19.589  0.00  0.00    +0.000 A 
ENDROOT
BRANCH   1   9
ATOM      8  C   UNL     1       3.888   5.584  17.897  0.00  0.00    +0.000 C 
ATOM      9  C   UNL     1       3.812   6.918  17.714  0.00  0.00    +0.000 C 
BRANCH   8  10
ATOM     10  C   UNL     1       2.914   4.821  18.687  0.00  0.00    +0.000 A 
ATOM     11  C   UNL     1       1.763   4.295  18.079  0.00  0.00    +0.000 A 
ATOM     12  C   UNL     1       0.796   3.636  18.841  0.00  0.00    +0.000 A 
ATOM     13  C   UNL     1       0.973   3.493  20.217  0.00  0.00    +0.000 A 
ATOM     14  C   UNL     1       2.121   4.004  20.814  0.00  0.00    +0.000 A 
ATOM     15  F   UNL     1       2.286   3.871  22.137  0.00  0.00    +0.000 F 
ATOM     16  C   UNL     1       3.089   4.663  20.066  0.00  0.00    +0.000 A 
ENDBRANCH   8  10
BRANCH   8  18
ATOM     17  N   UNL     1       6.069   4.271  16.777  0.00  0.00    +0.000 NA
ATOM     18  C   UNL     1       5.080   4.866  17.284  0.00  0.00    +0.000 C 
ENDBRANCH   8  18
ENDBRANCH   1   9
BRANCH   4  19
ATOM     19  O   UNL     1      -0.342  10.189  19.700  0.00  0.00    +0.000 OA
BRANCH  19  20
ATOM     20  C   UNL     1      -0.826  11.218  18.836  0.00  0.00    +0.000 C 
BRANCH  20  21
ATOM     21  C   UNL     1      -2.325  11.175  18.652  0.00  0.00    +0.000 A 
ATOM     22  C   UNL     1      -3.104  12.126  19.332  0.00  0.00    +0.000 A 
ATOM     23  C   UNL     1      -4.487  12.166  19.160  0.00  0.00    +0.000 A 
ATOM     24  C   UNL     1      -5.112  11.258  18.301  0.00  0.00    +0.000 A 
ATOM     25  C   UNL     1      -4.339  10.335  17.584  0.00  0.00    +0.000 A 
ATOM     26  C   UNL     1      -2.952  10.292  17.764  0.00  0.00    +0.000 A 
BRANCH  24  27
ATOM     27  C   UNL     1      -6.587  11.349  18.157  0.00  0.00    +0.000 C 
ATOM     28  O   UNL     1      -7.147  12.337  17.713  0.00  0.00    +0.000 OA
BRANCH  27  29
ATOM     29  O   UNL     1      -7.252  10.267  18.610  0.00  0.00    +0.000 OA
ATOM     30  H   UNL     1      -8.034  10.461  19.157  0.00  0.00    +0.000 HD
ENDBRANCH  27  29
ENDBRANCH  24  27
ENDBRANCH  20  21
ENDBRANCH  19  20
ENDBRANCH   4  19
TORSDOF 8
ENDMDL
MODEL 9
REMARK VINA RESULT:      -7.6      1.436      1.779
REMARK  Name = 
REMARK  8 active torsions:
REMARK  status: ('A' for Active; 'I' for Inactive)
REMARK    1  A    between atoms: C_2  and  C_3
REMARK    2  A    between atoms: C_3  and  C_23
REMARK    3  A    between atoms: C_4  and  C_5
REMARK    4  A    between atoms: C_8  and  O_9
REMARK    5  A    between atoms: O_9  and  C_10
REMARK    6  A    between atoms: C_10  and  C_11
REMARK    7  A    between atoms: C_14  and  C_15
REMARK    8  A    between atoms: C_15  and  O_17
REMARK                            x       y       z     vdW  Elec       q    Type
REMARK                         _______ _______ _______ _____ _____    ______ ____
ROOT
ATOM      1  C   UNL     1       3.518   5.874  17.652  0.00  0.00    +0.000 A 
ATOM      2  C   UNL     1       3.337   5.275  18.897  0.00  0.00    +0.000 A 
ATOM      3  C   UNL     1       2.746   5.990  19.938  0.00  0.00    +0.000 A 
ATOM      4  C   UNL     1       2.346   7.320  19.760  0.00  0.00    +0.000 A 
ATOM      5  C   UNL     1       2.502   7.905  18.494  0.00  0.00    +0.000 A 
ATOM      6 BR   UNL     1       1.940   9.687  18.148  0.00  0.00    +0.000 Br
ATOM      7  C   UNL     1       3.089   7.188  17.446  0.00  0.00    +0.000 A 
ENDROOT
BRANCH   1   9
ATOM      8  C   UNL     1       5.476   5.017  16.360  0.00  0.00    +0.000 C 
ATOM      9  C   UNL     1       4.148   5.112  16.574  0.00  0.00    +0.000 C 
BRANCH   8  10
ATOM     10  C   UNL     1       6.478   5.711  17.179  0.00  0.00    +0.000 A 
ATOM     11  C   UNL     1       7.069   5.065  18.276  0.00  0.00    +0.000 A 
ATOM     12  C   UNL     1       7.964   5.746  19.103  0.00  0.00    +0.000 A 
ATOM     13  C   UNL     1       8.277   7.079  18.839  0.00  0.00    +0.000 A 
ATOM     14  C   UNL     1       7.700   7.712  17.743  0.00  0.00    +0.000 A 
ATOM     15  F   UNL     1       7.999   8.994  17.495  0.00  0.00    +0.000 F 
ATOM     16  C   UNL     1       6.808   7.044  16.914  0.00  0.00    +0.000 A 
ENDBRANCH   8  10
BRANCH   8  18
ATOM     17  N   UNL     1       6.304   3.490  14.188  0.00  0.00    +0.000 NA
ATOM     18  C   UNL     1       5.929   4.182  15.172  0.00  0.00    +0.000 C 
ENDBRANCH   8  18
ENDBRANCH   1   9
BRANCH   4  19
ATOM     19  O   UNL     1       1.804   8.089  20.762  0.00  0.00    +0.000 OA
BRANCH  19  20
ATOM     20  C   UNL     1       0.386   7.978  20.907  0.00  0.00    +0.000 C 
BRANCH  20  21
ATOM     21  C   UNL     1      -0.259   9.262  21.373  0.00  0.00    +0.000 A 
ATOM     22  C   UNL     1      -0.475   9.433  22.750  0.00  0.00    +0.000 A 
ATOM     23  C   UNL     1      -1.019  10.619  23.242  0.00  0.00    +0.000 A 
ATOM     24  C   UNL     1      -1.352  11.654  22.364  0.00  0.00    +0.000 A 
ATOM     25  C   UNL     1      -1.100  11.510  20.993  0.00  0.00    +0.000 A 
ATOM     26  C   UNL     1      -0.559  10.316  20.501  0.00  0.00    +0.000 A 
BRANCH  24  27
ATOM     27  C   UNL     1      -1.928  12.892  22.946  0.00  0.00    +0.000 C 
ATOM     28  O   UNL     1      -1.289  13.644  23.663  0.00  0.00    +0.000 OA
BRANCH  27  29
ATOM     29  O   UNL     1      -3.231  13.083  22.655  0.00  0.00    +0.000 OA
ATOM     30  H   UNL     1      -3.714  13.655  23.278  0.00  0.00    +0.000 HD
ENDBRANCH  27  29
ENDBRANCH  24  27
ENDBRANCH  20  21
ENDBRANCH  19  20
ENDBRANCH   4  19
TORSDOF 8
ENDMDL
