MODEL 1
REMARK VINA RESULT:      -6.9      0.000      0.000
REMARK  Name = 
REMARK  4 active torsions:
REMARK  status: ('A' for Active; 'I' for Inactive)
REMARK    1  A    between atoms: C_1  and  N_2
REMARK    2  A    between atoms: N_2  and  C_3
REMARK    3  A    between atoms: N_2  and  C_4
REMARK    4  A    between atoms: C_12  and  C_13
REMARK                            x       y       z     vdW  Elec       q    Type
REMARK                         _______ _______ _______ _____ _____    ______ ____
ROOT
ATOM      1  C   UNL     1       5.755   5.629  16.421  0.00  0.00    +0.000 C 
ATOM      2  C   UNL     1       4.861   4.385  16.572  0.00  0.00    +0.000 C 
ATOM      3  C   UNL     1       4.132   4.390  17.915  0.00  0.00    +0.000 C 
ATOM      4  C   UNL     1       3.424   5.688  18.250  0.00  0.00    +0.000 A 
ATOM      5  C   UNL     1       3.762   6.854  17.515  0.00  0.00    +0.000 A 
ATOM      6  C   UNL     1       3.101   8.066  17.777  0.00  0.00    +0.000 A 
ATOM      7  C   UNL     1       2.150   8.142  18.786  0.00  0.00    +0.000 A 
ATOM      8  C   UNL     1       1.850   7.011  19.545  0.00  0.00    +0.000 A 
ATOM      9  C   UNL     1       2.464   5.767  19.301  0.00  0.00    +0.000 A 
ATOM     10  C   UNL     1       4.772   6.828  16.386  0.00  0.00    +0.000 C 
ENDROOT
BRANCH   9  11
ATOM     11  C   UNL     1       2.094   4.602  20.149  0.00  0.00    +0.000 A 
ATOM     12  C   UNL     1       2.513   4.253  21.424  0.00  0.00    +0.000 A 
ATOM     13  C   UNL     1       1.956   3.028  21.897  0.00  0.00    +0.000 A 
ATOM     14  C   UNL     1       1.062   2.496  21.001  0.00  0.00    +0.000 A 
ATOM     15  S   UNL     1       0.963   3.426  19.573  0.00  0.00    +0.000 S 
ENDBRANCH   9  11
BRANCH   1  17
ATOM     16  C   UNL     1       7.584   6.957  17.399  0.00  0.00    +0.000 C 
ATOM     17  N   UNL     1       6.812   5.712  17.470  0.00  0.00    +0.000 NA
ATOM     18  C   UNL     1       7.748   4.583  17.407  0.00  0.00    +0.000 C 
ENDBRANCH   1  17
TORSDOF 2
ENDMDL
MODEL 2
REMARK VINA RESULT:      -6.8      0.822      1.080
REMARK  Name = 
REMARK  4 active torsions:
REMARK  status: ('A' for Active; 'I' for Inactive)
REMARK    1  A    between atoms: C_1  and  N_2
REMARK    2  A    between atoms: N_2  and  C_3
REMARK    3  A    between atoms: N_2  and  C_4
REMARK    4  A    between atoms: C_12  and  C_13
REMARK                            x       y       z     vdW  Elec       q    Type
REMARK                         _______ _______ _______ _____ _____    ______ ____
ROOT
ATOM      1  C   UNL     1       6.119   5.600  16.487  0.00  0.00    +0.000 C 
ATOM      2  C   UNL     1       5.184   4.379  16.424  0.00  0.00    +0.000 C 
ATOM      3  C   UNL     1       4.248   4.339  17.631  0.00  0.00    +0.000 C 
ATOM      4  C   UNL     1       3.526   5.640  17.921  0.00  0.00    +0.000 A 
ATOM      5  C   UNL     1       4.005   6.831  17.315  0.00  0.00    +0.000 A 
ATOM      6  C   UNL     1       3.340   8.048  17.535  0.00  0.00    +0.000 A 
ATOM      7  C   UNL     1       2.241   8.103  18.383  0.00  0.00    +0.000 A 
ATOM      8  C   UNL     1       1.796   6.945  19.020  0.00  0.00    +0.000 A 
ATOM      9  C   UNL     1       2.411   5.696  18.808  0.00  0.00    +0.000 A 
ATOM     10  C   UNL     1       5.184   6.830  16.363  0.00  0.00    +0.000 C 
ENDROOT
BRANCH   9  11
ATOM     11  C   UNL     1       1.883   4.501  19.520  0.00  0.00    +0.000 A 
ATOM     12  C   UNL     1       1.100   3.455  19.057  0.00  0.00    +0.000 A 
ATOM     13  C   UNL     1       0.762   2.501  20.062  0.00  0.00    +0.000 A 
ATOM     14  C   UNL     1       1.354   2.797  21.264  0.00  0.00    +0.000 A 
ATOM     15  S   UNL     1       2.240   4.255  21.196  0.00  0.00    +0.000 S 
ENDBRANCH   9  11
BRANCH   1  17
ATOM     16  C   UNL     1       7.743   6.847  17.857  0.00  0.00    +0.000 C 
ATOM     17  N   UNL     1       6.995   5.595  17.694  0.00  0.00    +0.000 NA
ATOM     18  C   UNL     1       7.953   4.482  17.683  0.00  0.00    +0.000 C 
ENDBRANCH   1  17
TORSDOF 2
ENDMDL
MODEL 3
REMARK VINA RESULT:      -6.8      2.406      4.731
REMARK  Name = 
REMARK  4 active torsions:
REMARK  status: ('A' for Active; 'I' for Inactive)
REMARK    1  A    between atoms: C_1  and  N_2
REMARK    2  A    between atoms: N_2  and  C_3
REMARK    3  A    between atoms: N_2  and  C_4
REMARK    4  A    between atoms: C_12  and  C_13
REMARK                            x       y       z     vdW  Elec       q    Type
REMARK                         _______ _______ _______ _____ _____    ______ ____
ROOT
ATOM      1  C   UNL     1       2.657   2.635  19.039  0.00  0.00    +0.000 C 
ATOM      2  C   UNL     1       1.374   3.483  19.005  0.00  0.00    +0.000 C 
ATOM      3  C   UNL     1       1.689   4.967  19.195  0.00  0.00    +0.000 C 
ATOM      4  C   UNL     1       2.792   5.502  18.304  0.00  0.00    +0.000 A 
ATOM      5  C   UNL     1       3.649   4.576  17.655  0.00  0.00    +0.000 A 
ATOM      6  C   UNL     1       4.660   5.038  16.796  0.00  0.00    +0.000 A 
ATOM      7  C   UNL     1       4.860   6.400  16.615  0.00  0.00    +0.000 A 
ATOM      8  C   UNL     1       4.052   7.316  17.291  0.00  0.00    +0.000 A 
ATOM      9  C   UNL     1       3.006   6.902  18.138  0.00  0.00    +0.000 A 
ATOM     10  C   UNL     1       3.466   3.078  17.793  0.00  0.00    +0.000 C 
ENDROOT
BRANCH   9  11
ATOM     11  C   UNL     1       2.184   7.934  18.826  0.00  0.00    +0.000 A 
ATOM     12  C   UNL     1       1.794   8.032  20.153  0.00  0.00    +0.000 A 
ATOM     13  C   UNL     1       0.968   9.161  20.428  0.00  0.00    +0.000 A 
ATOM     14  C   UNL     1       0.799   9.950  19.317  0.00  0.00    +0.000 A 
ATOM     15  S   UNL     1       1.563   9.287  17.942  0.00  0.00    +0.000 S 
ENDBRANCH   9  11
BRANCH   1  17
ATOM     16  C   UNL     1       4.583   1.895  20.385  0.00  0.00    +0.000 C 
ATOM     17  N   UNL     1       3.388   2.744  20.335  0.00  0.00    +0.000 NA
ATOM     18  C   UNL     1       2.536   2.412  21.484  0.00  0.00    +0.000 C 
ENDBRANCH   1  17
TORSDOF 2
ENDMDL
MODEL 4
REMARK VINA RESULT:      -6.7      2.207      4.863
REMARK  Name = 
REMARK  4 active torsions:
REMARK  status: ('A' for Active; 'I' for Inactive)
REMARK    1  A    between atoms: C_1  and  N_2
REMARK    2  A    between atoms: N_2  and  C_3
REMARK    3  A    between atoms: N_2  and  C_4
REMARK    4  A    between atoms: C_12  and  C_13
REMARK                            x       y       z     vdW  Elec       q    Type
REMARK                         _______ _______ _______ _____ _____    ______ ____
ROOT
ATOM      1  C   UNL     1       2.626   2.602  18.954  0.00  0.00    +0.000 C 
ATOM      2  C   UNL     1       1.373   3.465  18.719  0.00  0.00    +0.000 C 
ATOM      3  C   UNL     1       1.693   4.953  18.859  0.00  0.00    +0.000 C 
ATOM      4  C   UNL     1       2.904   5.419  18.075  0.00  0.00    +0.000 A 
ATOM      5  C   UNL     1       3.812   4.444  17.586  0.00  0.00    +0.000 A 
ATOM      6  C   UNL     1       4.926   4.839  16.827  0.00  0.00    +0.000 A 
ATOM      7  C   UNL     1       5.173   6.185  16.593  0.00  0.00    +0.000 A 
ATOM      8  C   UNL     1       4.311   7.151  17.113  0.00  0.00    +0.000 A 
ATOM      9  C   UNL     1       3.165   6.803  17.854  0.00  0.00    +0.000 A 
ATOM     10  C   UNL     1       3.584   2.960  17.788  0.00  0.00    +0.000 C 
ENDROOT
BRANCH   9  11
ATOM     11  C   UNL     1       2.289   7.886  18.379  0.00  0.00    +0.000 A 
ATOM     12  C   UNL     1       1.665   8.933  17.718  0.00  0.00    +0.000 A 
ATOM     13  C   UNL     1       0.927   9.797  18.580  0.00  0.00    +0.000 A 
ATOM     14  C   UNL     1       0.940   9.353  19.878  0.00  0.00    +0.000 A 
ATOM     15  S   UNL     1       1.901   7.955  20.064  0.00  0.00    +0.000 S 
ENDBRANCH   9  11
BRANCH   1  17
ATOM     16  C   UNL     1       4.424   1.995  20.524  0.00  0.00    +0.000 C 
ATOM     17  N   UNL     1       3.202   2.780  20.319  0.00  0.00    +0.000 NA
ATOM     18  C   UNL     1       2.245   2.431  21.376  0.00  0.00    +0.000 C 
ENDBRANCH   1  17
TORSDOF 2
ENDMDL
MODEL 5
REMARK VINA RESULT:      -6.0      1.865      4.029
REMARK  Name = 
REMARK  4 active torsions:
REMARK  status: ('A' for Active; 'I' for Inactive)
REMARK    1  A    between atoms: C_1  and  N_2
REMARK    2  A    between atoms: N_2  and  C_3
REMARK    3  A    between atoms: N_2  and  C_4
REMARK    4  A    between atoms: C_12  and  C_13
REMARK                            x       y       z     vdW  Elec       q    Type
REMARK                         _______ _______ _______ _____ _____    ______ ____
ROOT
ATOM      1  C   UNL     1       6.921   5.346  16.712  0.00  0.00    +0.000 C 
ATOM      2  C   UNL     1       6.679   6.769  17.248  0.00  0.00    +0.000 C 
ATOM      3  C   UNL     1       5.196   7.008  17.528  0.00  0.00    +0.000 C 
ATOM      4  C   UNL     1       4.522   5.929  18.351  0.00  0.00    +0.000 A 
ATOM      5  C   UNL     1       5.174   4.676  18.492  0.00  0.00    +0.000 A 
ATOM      6  C   UNL     1       4.593   3.666  19.275  0.00  0.00    +0.000 A 
ATOM      7  C   UNL     1       3.357   3.867  19.875  0.00  0.00    +0.000 A 
ATOM      8  C   UNL     1       2.688   5.078  19.700  0.00  0.00    +0.000 A 
ATOM      9  C   UNL     1       3.244   6.132  18.948  0.00  0.00    +0.000 A 
ATOM     10  C   UNL     1       6.534   4.405  17.881  0.00  0.00    +0.000 C 
ENDROOT
BRANCH   9  11
ATOM     11  C   UNL     1       2.474   7.398  18.803  0.00  0.00    +0.000 A 
ATOM     12  C   UNL     1       2.208   8.160  17.676  0.00  0.00    +0.000 A 
ATOM     13  C   UNL     1       1.457   9.342  17.947  0.00  0.00    +0.000 A 
ATOM     14  C   UNL     1       1.098   9.426  19.269  0.00  0.00    +0.000 A 
ATOM     15  S   UNL     1       1.734   8.133  20.184  0.00  0.00    +0.000 S 
ENDBRANCH   9  11
BRANCH   1  17
ATOM     16  C   UNL     1       5.535   3.779  15.412  0.00  0.00    +0.000 C 
ATOM     17  N   UNL     1       6.206   5.083  15.429  0.00  0.00    +0.000 NA
ATOM     18  C   UNL     1       7.101   5.159  14.267  0.00  0.00    +0.000 C 
ENDBRANCH   1  17
TORSDOF 2
ENDMDL
MODEL 6
REMARK VINA RESULT:      -5.9      2.540      5.935
REMARK  Name = 
REMARK  4 active torsions:
REMARK  status: ('A' for Active; 'I' for Inactive)
REMARK    1  A    between atoms: C_1  and  N_2
REMARK    2  A    between atoms: N_2  and  C_3
REMARK    3  A    between atoms: N_2  and  C_4
REMARK    4  A    between atoms: C_12  and  C_13
REMARK                            x       y       z     vdW  Elec       q    Type
REMARK                         _______ _______ _______ _____ _____    ______ ____
ROOT
ATOM      1  C   UNL     1       2.225   4.502  18.761  0.00  0.00    +0.000 C 
ATOM      2  C   UNL     1       2.605   5.990  18.652  0.00  0.00    +0.000 C 
ATOM      3  C   UNL     1       4.118   6.163  18.517  0.00  0.00    +0.000 C 
ATOM      4  C   UNL     1       4.766   5.293  17.459  0.00  0.00    +0.000 A 
ATOM      5  C   UNL     1       4.036   4.189  16.947  0.00  0.00    +0.000 A 
ATOM      6  C   UNL     1       4.594   3.383  15.942  0.00  0.00    +0.000 A 
ATOM      7  C   UNL     1       5.879   3.629  15.478  0.00  0.00    +0.000 A 
ATOM      8  C   UNL     1       6.621   4.682  16.013  0.00  0.00    +0.000 A 
ATOM      9  C   UNL     1       6.094   5.537  17.000  0.00  0.00    +0.000 A 
ATOM     10  C   UNL     1       2.621   3.884  17.396  0.00  0.00    +0.000 C 
ENDROOT
BRANCH   9  11
ATOM     11  C   UNL     1       6.942   6.641  17.525  0.00  0.00    +0.000 A 
ATOM     12  C   UNL     1       7.055   7.959  17.109  0.00  0.00    +0.000 A 
ATOM     13  C   UNL     1       8.013   8.714  17.849  0.00  0.00    +0.000 A 
ATOM     14  C   UNL     1       8.564   7.978  18.868  0.00  0.00    +0.000 A 
ATOM     15  S   UNL     1       7.990   6.371  18.875  0.00  0.00    +0.000 S 
ENDBRANCH   9  11
BRANCH   1  17
ATOM     16  C   UNL     1       2.912   2.380  19.806  0.00  0.00    +0.000 C 
ATOM     17  N   UNL     1       2.829   3.837  19.952  0.00  0.00    +0.000 NA
ATOM     18  C   UNL     1       2.097   4.137  21.189  0.00  0.00    +0.000 C 
ENDBRANCH   1  17
TORSDOF 2
ENDMDL
MODEL 7
REMARK VINA RESULT:      -5.9      2.166      4.049
REMARK  Name = 
REMARK  4 active torsions:
REMARK  status: ('A' for Active; 'I' for Inactive)
REMARK    1  A    between atoms: C_1  and  N_2
REMARK    2  A    between atoms: N_2  and  C_3
REMARK    3  A    between atoms: N_2  and  C_4
REMARK    4  A    between atoms: C_12  and  C_13
REMARK                            x       y       z     vdW  Elec       q    Type
REMARK                         _______ _______ _______ _____ _____    ______ ____
ROOT
ATOM      1  C   UNL     1       6.748   4.910  16.312  0.00  0.00    +0.000 C 
ATOM      2  C   UNL     1       6.648   6.042  17.350  0.00  0.00    +0.000 C 
ATOM      3  C   UNL     1       5.216   6.564  17.462  0.00  0.00    +0.000 C 
ATOM      4  C   UNL     1       4.160   5.491  17.633  0.00  0.00    +0.000 A 
ATOM      5  C   UNL     1       4.504   4.147  17.337  0.00  0.00    +0.000 A 
ATOM      6  C   UNL     1       3.559   3.124  17.517  0.00  0.00    +0.000 A 
ATOM      7  C   UNL     1       2.270   3.425  17.938  0.00  0.00    +0.000 A 
ATOM      8  C   UNL     1       1.912   4.751  18.183  0.00  0.00    +0.000 A 
ATOM      9  C   UNL     1       2.832   5.808  18.046  0.00  0.00    +0.000 A 
ATOM     10  C   UNL     1       5.899   3.752  16.897  0.00  0.00    +0.000 C 
ENDROOT
BRANCH   9  11
ATOM     11  C   UNL     1       2.381   7.198  18.325  0.00  0.00    +0.000 A 
ATOM     12  C   UNL     1       2.267   8.291  17.479  0.00  0.00    +0.000 A 
ATOM     13  C   UNL     1       1.827   9.480  18.131  0.00  0.00    +0.000 A 
ATOM     14  C   UNL     1       1.540   9.257  19.455  0.00  0.00    +0.000 A 
ATOM     15  S   UNL     1       1.880   7.650  19.919  0.00  0.00    +0.000 S 
ENDBRANCH   9  11
BRANCH   1  17
ATOM     16  C   UNL     1       5.389   4.441  14.312  0.00  0.00    +0.000 C 
ATOM     17  N   UNL     1       6.355   5.348  14.941  0.00  0.00    +0.000 NA
ATOM     18  C   UNL     1       7.512   5.485  14.047  0.00  0.00    +0.000 C 
ENDBRANCH   1  17
TORSDOF 2
ENDMDL
MODEL 8
REMARK VINA RESULT:      -5.9      2.626      5.502
REMARK  Name = 
REMARK  4 active torsions:
REMARK  status: ('A' for Active; 'I' for Inactive)
REMARK    1  A    between atoms: C_1  and  N_2
REMARK    2  A    between atoms: N_2  and  C_3
REMARK    3  A    between atoms: N_2  and  C_4
REMARK    4  A    between atoms: C_12  and  C_13
REMARK                            x       y       z     vdW  Elec       q    Type
REMARK                         _______ _______ _______ _____ _____    ______ ____
ROOT
ATOM      1  C   UNL     1       2.673   3.547  20.266  0.00  0.00    +0.000 C 
ATOM      2  C   UNL     1       4.152   3.336  19.894  0.00  0.00    +0.000 C 
ATOM      3  C   UNL     1       4.452   3.884  18.499  0.00  0.00    +0.000 C 
ATOM      4  C   UNL     1       3.961   5.296  18.251  0.00  0.00    +0.000 A 
ATOM      5  C   UNL     1       3.004   5.848  19.142  0.00  0.00    +0.000 A 
ATOM      6  C   UNL     1       2.553   7.166  18.960  0.00  0.00    +0.000 A 
ATOM      7  C   UNL     1       3.002   7.919  17.884  0.00  0.00    +0.000 A 
ATOM      8  C   UNL     1       3.906   7.364  16.977  0.00  0.00    +0.000 A 
ATOM      9  C   UNL     1       4.409   6.059  17.133  0.00  0.00    +0.000 A 
ATOM     10  C   UNL     1       2.494   5.085  20.348  0.00  0.00    +0.000 C 
ENDROOT
BRANCH   9  11
ATOM     11  C   UNL     1       5.371   5.532  16.127  0.00  0.00    +0.000 A 
ATOM     12  C   UNL     1       5.144   4.907  14.910  0.00  0.00    +0.000 A 
ATOM     13  C   UNL     1       6.336   4.508  14.237  0.00  0.00    +0.000 A 
ATOM     14  C   UNL     1       7.461   4.901  14.919  0.00  0.00    +0.000 A 
ATOM     15  S   UNL     1       7.076   5.668  16.394  0.00  0.00    +0.000 S 
ENDBRANCH   9  11
BRANCH   1  17
ATOM     16  C   UNL     1       0.335   2.969  19.749  0.00  0.00    +0.000 C 
ATOM     17  N   UNL     1       1.738   2.853  19.334  0.00  0.00    +0.000 NA
ATOM     18  C   UNL     1       2.059   1.428  19.181  0.00  0.00    +0.000 C 
ENDBRANCH   1  17
TORSDOF 2
ENDMDL
MODEL 9
REMARK VINA RESULT:      -5.7      2.677      5.426
REMARK  Name = 
REMARK  4 active torsions:
REMARK  status: ('A' for Active; 'I' for Inactive)
REMARK    1  A    between atoms: C_1  and  N_2
REMARK    2  A    between atoms: N_2  and  C_3
REMARK    3  A    between atoms: N_2  and  C_4
REMARK    4  A    between atoms: C_12  and  C_13
REMARK                            x       y       z     vdW  Elec       q    Type
REMARK                         _______ _______ _______ _____ _____    ______ ____
ROOT
ATOM      1  C   UNL     1       2.715   2.845  20.695  0.00  0.00    +0.000 C 
ATOM      2  C   UNL     1       4.190   2.734  20.268  0.00  0.00    +0.000 C 
ATOM      3  C   UNL     1       4.419   3.381  18.903  0.00  0.00    +0.000 C 
ATOM      4  C   UNL     1       3.851   4.778  18.757  0.00  0.00    +0.000 A 
ATOM      5  C   UNL     1       2.895   5.224  19.706  0.00  0.00    +0.000 A 
ATOM      6  C   UNL     1       2.374   6.526  19.620  0.00  0.00    +0.000 A 
ATOM      7  C   UNL     1       2.751   7.365  18.580  0.00  0.00    +0.000 A 
ATOM      8  C   UNL     1       3.652   6.914  17.615  0.00  0.00    +0.000 A 
ATOM      9  C   UNL     1       4.225   5.629  17.675  0.00  0.00    +0.000 A 
ATOM     10  C   UNL     1       2.463   4.364  20.876  0.00  0.00    +0.000 C 
ENDROOT
BRANCH   9  11
ATOM     11  C   UNL     1       5.180   5.214  16.612  0.00  0.00    +0.000 A 
ATOM     12  C   UNL     1       4.978   4.448  15.475  0.00  0.00    +0.000 A 
ATOM     13  C   UNL     1       6.161   4.234  14.708  0.00  0.00    +0.000 A 
ATOM     14  C   UNL     1       7.237   4.904  15.235  0.00  0.00    +0.000 A 
ATOM     15  S   UNL     1       6.836   5.712  16.684  0.00  0.00    +0.000 S 
ENDBRANCH   9  11
BRANCH   1  17
ATOM     16  C   UNL     1       2.465   1.677  18.541  0.00  0.00    +0.000 C 
ATOM     17  N   UNL     1       1.787   2.162  19.748  0.00  0.00    +0.000 NA
ATOM     18  C   UNL     1       0.674   3.026  19.339  0.00  0.00    +0.000 C 
ENDBRANCH   1  17
TORSDOF 2
ENDMDL
