MODEL 1
REMARK VINA RESULT:      -7.5      0.000      0.000
REMARK  Name = 
REMARK  7 active torsions:
REMARK  status: ('A' for Active; 'I' for Inactive)
REMARK    1  A    between atoms: C_1  and  C_2
REMARK    2  A    between atoms: C_2  and  C_3
REMARK    3  A    between atoms: C_3  and  C_4
REMARK    4  A    between atoms: C_4  and  N_5
REMARK    5  A    between atoms: C_9  and  C_10
REMARK    6  A    between atoms: C_10  and  C_11
REMARK    7  A    between atoms: C_11  and  C_12
REMARK                            x       y       z     vdW  Elec       q    Type
REMARK                         _______ _______ _______ _____ _____    ______ ____
ROOT
ATOM      1  N   UNL     1       5.185   4.753  15.429  0.00  0.00    +0.000 N 
ATOM      2  C   UNL     1       5.017   6.109  15.545  0.00  0.00    +0.000 C 
ATOM      3  O   UNL     1       5.349   6.972  14.752  0.00  0.00    +0.000 OA
ATOM      4  C   UNL     1       4.479   6.383  16.903  0.00  0.00    +0.000 C 
ATOM      5  C   UNL     1       5.516   6.601  18.015  0.00  0.00    +0.000 C 
ATOM      6  N   UNL     1       4.784   6.168  19.230  0.00  0.00    +0.000 NA
ATOM      7  C   UNL     1       3.720   5.208  18.800  0.00  0.00    +0.000 C 
ATOM      8  C   UNL     1       2.329   5.918  19.120  0.00  0.00    +0.000 C 
ATOM      9  O   UNL     1       1.918   6.964  18.643  0.00  0.00    +0.000 OA
ATOM     10  N   UNL     1       1.687   5.184  20.097  0.00  0.00    +0.000 N 
ATOM     11  C   UNL     1       2.423   4.069  20.446  0.00  0.00    +0.000 A 
ATOM     12  C   UNL     1       2.067   3.135  21.401  0.00  0.00    +0.000 A 
ATOM     13  C   UNL     1       2.951   2.079  21.617  0.00  0.00    +0.000 A 
ATOM     14  C   UNL     1       4.145   2.003  20.888  0.00  0.00    +0.000 A 
ATOM     15  F   UNL     1       4.981   0.982  21.118  0.00  0.00    +0.000 F 
ATOM     16  C   UNL     1       4.494   2.967  19.937  0.00  0.00    +0.000 A 
ATOM     17  C   UNL     1       3.611   4.008  19.704  0.00  0.00    +0.000 A 
ATOM     18  C   UNL     1       3.802   5.073  17.281  0.00  0.00    +0.000 C 
ATOM     19  C   UNL     1       4.709   4.099  16.547  0.00  0.00    +0.000 C 
ATOM     20  O   UNL     1       4.984   2.958  16.881  0.00  0.00    +0.000 OA
ATOM     21  H   UNL     1       4.336   6.985  19.654  0.00  0.00    +0.000 HD
ATOM     22  H   UNL     1       0.808   5.466  20.504  0.00  0.00    +0.000 HD
ENDROOT
BRANCH   1  23
ATOM     23  C   UNL     1       6.105   4.215  14.435  0.00  0.00    +0.000 C 
BRANCH  23  24
ATOM     24  C   UNL     1       5.485   3.890  13.087  0.00  0.00    +0.000 C 
BRANCH  24  26
ATOM     25  C   UNL     1       5.716   1.974  11.496  0.00  0.00    +0.000 C 
ATOM     26  C   UNL     1       6.437   3.120  12.180  0.00  0.00    +0.000 C 
ENDBRANCH  24  26
ENDBRANCH  23  24
ENDBRANCH   1  23
BRANCH   5  27
ATOM     27  C   UNL     1       6.831   5.788  18.085  0.00  0.00    +0.000 C 
BRANCH  27  28
ATOM     28  C   UNL     1       8.060   6.465  18.681  0.00  0.00    +0.000 C 
BRANCH  28  29
ATOM     29  C   UNL     1       8.228   7.890  18.184  0.00  0.00    +0.000 C 
ATOM     30  N   UNL     1       8.813   8.779  19.037  0.00  0.00    +0.000 N 
ATOM     31  O   UNL     1       7.929   8.231  17.045  0.00  0.00    +0.000 OA
ATOM     32  H   UNL     1       9.027   8.601  20.010  0.00  0.00    +0.000 HD
ATOM     33  H   UNL     1       8.907   9.734  18.710  0.00  0.00    +0.000 HD
ENDBRANCH  28  29
ENDBRANCH  27  28
ENDBRANCH   5  27
TORSDOF 6
ENDMDL
MODEL 2
REMARK VINA RESULT:      -7.1      2.637      6.490
REMARK  Name = 
REMARK  7 active torsions:
REMARK  status: ('A' for Active; 'I' for Inactive)
REMARK    1  A    between atoms: C_1  and  C_2
REMARK    2  A    between atoms: C_2  and  C_3
REMARK    3  A    between atoms: C_3  and  C_4
REMARK    4  A    between atoms: C_4  and  N_5
REMARK    5  A    between atoms: C_9  and  C_10
REMARK    6  A    between atoms: C_10  and  C_11
REMARK    7  A    between atoms: C_11  and  C_12
REMARK                            x       y       z     vdW  Elec       q    Type
REMARK                         _______ _______ _______ _____ _____    ______ ____
ROOT
ATOM      1  N   UNL     1       4.043   3.154  18.867  0.00  0.00    +0.000 N 
ATOM      2  C   UNL     1       4.434   4.294  19.521  0.00  0.00    +0.000 C 
ATOM      3  O   UNL     1       4.181   4.623  20.666  0.00  0.00    +0.000 OA
ATOM      4  C   UNL     1       5.119   5.169  18.532  0.00  0.00    +0.000 C 
ATOM      5  C   UNL     1       4.224   6.142  17.751  0.00  0.00    +0.000 C 
ATOM      6  N   UNL     1       4.975   6.327  16.484  0.00  0.00    +0.000 NA
ATOM      7  C   UNL     1       5.833   5.116  16.287  0.00  0.00    +0.000 C 
ATOM      8  C   UNL     1       7.341   5.624  16.386  0.00  0.00    +0.000 C 
ATOM      9  O   UNL     1       7.873   6.143  17.354  0.00  0.00    +0.000 OA
ATOM     10  N   UNL     1       7.936   5.448  15.153  0.00  0.00    +0.000 N 
ATOM     11  C   UNL     1       7.062   4.861  14.259  0.00  0.00    +0.000 A 
ATOM     12  C   UNL     1       7.342   4.559  12.939  0.00  0.00    +0.000 A 
ATOM     13  C   UNL     1       6.321   3.973  12.192  0.00  0.00    +0.000 A 
ATOM     14  C   UNL     1       5.075   3.723  12.780  0.00  0.00    +0.000 A 
ATOM     15  F   UNL     1       4.108   3.165  12.040  0.00  0.00    +0.000 F 
ATOM     16  C   UNL     1       4.807   4.050  14.113  0.00  0.00    +0.000 A 
ATOM     17  C   UNL     1       5.822   4.614  14.867  0.00  0.00    +0.000 A 
ATOM     18  C   UNL     1       5.606   4.187  17.476  0.00  0.00    +0.000 C 
ATOM     19  C   UNL     1       4.499   3.150  17.565  0.00  0.00    +0.000 C 
ATOM     20  O   UNL     1       4.073   2.451  16.660  0.00  0.00    +0.000 OA
ATOM     21  H   UNL     1       5.581   7.147  16.576  0.00  0.00    +0.000 HD
ATOM     22  H   UNL     1       8.879   5.744  14.953  0.00  0.00    +0.000 HD
ENDROOT
BRANCH   1  23
ATOM     23  C   UNL     1       2.971   2.332  19.415  0.00  0.00    +0.000 C 
BRANCH  23  24
ATOM     24  C   UNL     1       1.564   2.804  19.094  0.00  0.00    +0.000 C 
BRANCH  24  26
ATOM     25  C   UNL     1       1.403   2.763  21.590  0.00  0.00    +0.000 C 
ATOM     26  C   UNL     1       0.848   3.369  20.314  0.00  0.00    +0.000 C 
ENDBRANCH  24  26
ENDBRANCH  23  24
ENDBRANCH   1  23
BRANCH   5  27
ATOM     27  C   UNL     1       2.806   5.752  17.268  0.00  0.00    +0.000 C 
BRANCH  27  28
ATOM     28  C   UNL     1       1.611   6.295  18.043  0.00  0.00    +0.000 C 
BRANCH  28  29
ATOM     29  C   UNL     1       2.010   7.384  19.023  0.00  0.00    +0.000 C 
ATOM     30  N   UNL     1       2.232   7.004  20.315  0.00  0.00    +0.000 N 
ATOM     31  O   UNL     1       2.205   8.544  18.678  0.00  0.00    +0.000 OA
ATOM     32  H   UNL     1       2.030   6.090  20.697  0.00  0.00    +0.000 HD
ATOM     33  H   UNL     1       2.479   7.736  20.971  0.00  0.00    +0.000 HD
ENDBRANCH  28  29
ENDBRANCH  27  28
ENDBRANCH   5  27
TORSDOF 6
ENDMDL
MODEL 3
REMARK VINA RESULT:      -7.1      6.040      8.266
REMARK  Name = 
REMARK  7 active torsions:
REMARK  status: ('A' for Active; 'I' for Inactive)
REMARK    1  A    between atoms: C_1  and  C_2
REMARK    2  A    between atoms: C_2  and  C_3
REMARK    3  A    between atoms: C_3  and  C_4
REMARK    4  A    between atoms: C_4  and  N_5
REMARK    5  A    between atoms: C_9  and  C_10
REMARK    6  A    between atoms: C_10  and  C_11
REMARK    7  A    between atoms: C_11  and  C_12
REMARK                            x       y       z     vdW  Elec       q    Type
REMARK                         _______ _______ _______ _____ _____    ______ ____
ROOT
ATOM      1  N   UNL     1      -2.171  11.164  18.331  0.00  0.00    +0.000 N 
ATOM      2  C   UNL     1      -2.157  11.821  19.534  0.00  0.00    +0.000 C 
ATOM      3  O   UNL     1      -2.862  12.750  19.887  0.00  0.00    +0.000 OA
ATOM      4  C   UNL     1      -1.008  11.299  20.319  0.00  0.00    +0.000 C 
ATOM      5  C   UNL     1       0.335  12.017  20.119  0.00  0.00    +0.000 C 
ATOM      6  N   UNL     1       1.321  10.950  20.420  0.00  0.00    +0.000 NA
ATOM      7  C   UNL     1       0.654   9.634  20.171  0.00  0.00    +0.000 C 
ATOM      8  C   UNL     1       0.557   8.913  21.589  0.00  0.00    +0.000 C 
ATOM      9  O   UNL     1      -0.053   9.311  22.569  0.00  0.00    +0.000 OA
ATOM     10  N   UNL     1       1.349   7.783  21.553  0.00  0.00    +0.000 N 
ATOM     11  C   UNL     1       1.928   7.622  20.308  0.00  0.00    +0.000 A 
ATOM     12  C   UNL     1       2.783   6.599  19.944  0.00  0.00    +0.000 A 
ATOM     13  C   UNL     1       3.271   6.614  18.639  0.00  0.00    +0.000 A 
ATOM     14  C   UNL     1       2.898   7.641  17.762  0.00  0.00    +0.000 A 
ATOM     15  F   UNL     1       3.385   7.637  16.514  0.00  0.00    +0.000 F 
ATOM     16  C   UNL     1       2.042   8.675  18.154  0.00  0.00    +0.000 A 
ATOM     17  C   UNL     1       1.539   8.655  19.444  0.00  0.00    +0.000 A 
ATOM     18  C   UNL     1      -0.779   9.916  19.725  0.00  0.00    +0.000 C 
ATOM     19  C   UNL     1      -1.201  10.184  18.291  0.00  0.00    +0.000 C 
ATOM     20  O   UNL     1      -0.762   9.652  17.284  0.00  0.00    +0.000 OA
ATOM     21  H   UNL     1       1.576  11.006  21.410  0.00  0.00    +0.000 HD
ATOM     22  H   UNL     1       1.491   7.188  22.354  0.00  0.00    +0.000 HD
ENDROOT
BRANCH   1  23
ATOM     23  C   UNL     1      -2.858  11.754  17.188  0.00  0.00    +0.000 C 
BRANCH  23  24
ATOM     24  C   UNL     1      -4.135  11.052  16.765  0.00  0.00    +0.000 C 
BRANCH  24  26
ATOM     25  C   UNL     1      -2.980  10.330  14.667  0.00  0.00    +0.000 C 
ATOM     26  C   UNL     1      -3.873   9.891  15.813  0.00  0.00    +0.000 C 
ENDBRANCH  24  26
ENDBRANCH  23  24
ENDBRANCH   1  23
BRANCH   5  27
ATOM     27  C   UNL     1       0.791  12.541  18.737  0.00  0.00    +0.000 C 
BRANCH  27  28
ATOM     28  C   UNL     1       2.274  12.463  18.394  0.00  0.00    +0.000 C 
BRANCH  28  29
ATOM     29  C   UNL     1       2.995  13.772  18.665  0.00  0.00    +0.000 C 
ATOM     30  N   UNL     1       3.808  14.247  17.679  0.00  0.00    +0.000 N 
ATOM     31  O   UNL     1       2.810  14.428  19.684  0.00  0.00    +0.000 OA
ATOM     32  H   UNL     1       4.068  13.741  16.842  0.00  0.00    +0.000 HD
ATOM     33  H   UNL     1       4.303  15.111  17.870  0.00  0.00    +0.000 HD
ENDBRANCH  28  29
ENDBRANCH  27  28
ENDBRANCH   5  27
TORSDOF 6
ENDMDL
MODEL 4
REMARK VINA RESULT:      -7.0      2.777      6.398
REMARK  Name = 
REMARK  7 active torsions:
REMARK  status: ('A' for Active; 'I' for Inactive)
REMARK    1  A    between atoms: C_1  and  C_2
REMARK    2  A    between atoms: C_2  and  C_3
REMARK    3  A    between atoms: C_3  and  C_4
REMARK    4  A    between atoms: C_4  and  N_5
REMARK    5  A    between atoms: C_9  and  C_10
REMARK    6  A    between atoms: C_10  and  C_11
REMARK    7  A    between atoms: C_11  and  C_12
REMARK                            x       y       z     vdW  Elec       q    Type
REMARK                         _______ _______ _______ _____ _____    ______ ____
ROOT
ATOM      1  N   UNL     1       2.525   4.281  18.973  0.00  0.00    +0.000 N 
ATOM      2  C   UNL     1       3.172   5.151  19.812  0.00  0.00    +0.000 C 
ATOM      3  O   UNL     1       2.789   5.574  20.890  0.00  0.00    +0.000 OA
ATOM      4  C   UNL     1       4.392   5.631  19.112  0.00  0.00    +0.000 C 
ATOM      5  C   UNL     1       4.228   6.883  18.239  0.00  0.00    +0.000 C 
ATOM      6  N   UNL     1       5.289   6.708  17.217  0.00  0.00    +0.000 NA
ATOM      7  C   UNL     1       5.579   5.243  17.114  0.00  0.00    +0.000 C 
ATOM      8  C   UNL     1       7.077   5.053  17.626  0.00  0.00    +0.000 C 
ATOM      9  O   UNL     1       7.503   5.306  18.741  0.00  0.00    +0.000 OA
ATOM     10  N   UNL     1       7.844   4.620  16.563  0.00  0.00    +0.000 N 
ATOM     11  C   UNL     1       7.072   4.453  15.429  0.00  0.00    +0.000 A 
ATOM     12  C   UNL     1       7.534   4.041  14.193  0.00  0.00    +0.000 A 
ATOM     13  C   UNL     1       6.598   3.942  13.166  0.00  0.00    +0.000 A 
ATOM     14  C   UNL     1       5.255   4.261  13.406  0.00  0.00    +0.000 A 
ATOM     15  F   UNL     1       4.375   4.164  12.401  0.00  0.00    +0.000 F 
ATOM     16  C   UNL     1       4.810   4.691  14.661  0.00  0.00    +0.000 A 
ATOM     17  C   UNL     1       5.732   4.774  15.690  0.00  0.00    +0.000 A 
ATOM     18  C   UNL     1       4.681   4.519  18.113  0.00  0.00    +0.000 C 
ATOM     19  C   UNL     1       3.261   4.063  17.826  0.00  0.00    +0.000 C 
ATOM     20  O   UNL     1       2.835   3.602  16.780  0.00  0.00    +0.000 OA
ATOM     21  H   UNL     1       6.136   7.188  17.535  0.00  0.00    +0.000 HD
ATOM     22  H   UNL     1       8.840   4.478  16.628  0.00  0.00    +0.000 HD
ENDROOT
BRANCH   1  23
ATOM     23  C   UNL     1       1.105   4.010  19.159  0.00  0.00    +0.000 C 
BRANCH  23  24
ATOM     24  C   UNL     1       0.763   2.579  19.537  0.00  0.00    +0.000 C 
BRANCH  24  26
ATOM     25  C   UNL     1       1.565   2.509  21.905  0.00  0.00    +0.000 C 
ATOM     26  C   UNL     1       1.776   1.975  20.500  0.00  0.00    +0.000 C 
ENDBRANCH  24  26
ENDBRANCH  23  24
ENDBRANCH   1  23
BRANCH   5  27
ATOM     27  C   UNL     1       2.958   7.135  17.390  0.00  0.00    +0.000 C 
BRANCH  27  28
ATOM     28  C   UNL     1       1.753   7.770  18.075  0.00  0.00    +0.000 C 
BRANCH  28  29
ATOM     29  C   UNL     1       1.627   9.249  17.758  0.00  0.00    +0.000 C 
ATOM     30  N   UNL     1       0.378   9.793  17.825  0.00  0.00    +0.000 N 
ATOM     31  O   UNL     1       2.598   9.959  17.526  0.00  0.00    +0.000 OA
ATOM     32  H   UNL     1      -0.481   9.270  17.943  0.00  0.00    +0.000 HD
ATOM     33  H   UNL     1       0.293  10.776  17.595  0.00  0.00    +0.000 HD
ENDBRANCH  28  29
ENDBRANCH  27  28
ENDBRANCH   5  27
TORSDOF 6
ENDMDL
MODEL 5
REMARK VINA RESULT:      -7.0      8.214     10.750
REMARK  Name = 
REMARK  7 active torsions:
REMARK  status: ('A' for Active; 'I' for Inactive)
REMARK    1  A    between atoms: C_1  and  C_2
REMARK    2  A    between atoms: C_2  and  C_3
REMARK    3  A    between atoms: C_3  and  C_4
REMARK    4  A    between atoms: C_4  and  N_5
REMARK    5  A    between atoms: C_9  and  C_10
REMARK    6  A    between atoms: C_10  and  C_11
REMARK    7  A    between atoms: C_11  and  C_12
REMARK                            x       y       z     vdW  Elec       q    Type
REMARK                         _______ _______ _______ _____ _____    ______ ____
ROOT
ATOM      1  N   UNL     1       1.079  14.449  20.050  0.00  0.00    +0.000 N 
ATOM      2  C   UNL     1       0.881  14.202  21.384  0.00  0.00    +0.000 C 
ATOM      3  O   UNL     1       1.600  14.515  22.316  0.00  0.00    +0.000 OA
ATOM      4  C   UNL     1      -0.320  13.334  21.508  0.00  0.00    +0.000 C 
ATOM      5  C   UNL     1      -0.073  11.819  21.451  0.00  0.00    +0.000 C 
ATOM      6  N   UNL     1      -1.358  11.301  20.921  0.00  0.00    +0.000 NA
ATOM      7  C   UNL     1      -2.008  12.407  20.150  0.00  0.00    +0.000 C 
ATOM      8  C   UNL     1      -3.340  12.776  20.944  0.00  0.00    +0.000 C 
ATOM      9  O   UNL     1      -3.413  13.202  22.085  0.00  0.00    +0.000 OA
ATOM     10  N   UNL     1      -4.420  12.459  20.144  0.00  0.00    +0.000 N 
ATOM     11  C   UNL     1      -4.005  11.972  18.919  0.00  0.00    +0.000 A 
ATOM     12  C   UNL     1      -4.834  11.553  17.896  0.00  0.00    +0.000 A 
ATOM     13  C   UNL     1      -4.223  11.084  16.735  0.00  0.00    +0.000 A 
ATOM     14  C   UNL     1      -2.826  11.043  16.644  0.00  0.00    +0.000 A 
ATOM     15  F   UNL     1      -2.261  10.583  15.520  0.00  0.00    +0.000 F 
ATOM     16  C   UNL     1      -2.004  11.458  17.697  0.00  0.00    +0.000 A 
ATOM     17  C   UNL     1      -2.604  11.943  18.847  0.00  0.00    +0.000 A 
ATOM     18  C   UNL     1      -1.098  13.630  20.233  0.00  0.00    +0.000 C 
ATOM     19  C   UNL     1       0.061  13.911  19.290  0.00  0.00    +0.000 C 
ATOM     20  O   UNL     1       0.100  13.693  18.091  0.00  0.00    +0.000 OA
ATOM     21  H   UNL     1      -1.964  11.051  21.708  0.00  0.00    +0.000 HD
ATOM     22  H   UNL     1      -5.375  12.554  20.451  0.00  0.00    +0.000 HD
ENDROOT
BRANCH   1  23
ATOM     23  C   UNL     1       2.395  14.858  19.573  0.00  0.00    +0.000 C 
BRANCH  23  24
ATOM     24  C   UNL     1       2.577  16.353  19.376  0.00  0.00    +0.000 C 
BRANCH  24  26
ATOM     25  C   UNL     1       3.614  15.504  17.264  0.00  0.00    +0.000 C 
ATOM     26  C   UNL     1       2.993  16.705  17.954  0.00  0.00    +0.000 C 
ENDBRANCH  24  26
ENDBRANCH  23  24
ENDBRANCH   1  23
BRANCH   5  27
ATOM     27  C   UNL     1       0.979  11.191  20.506  0.00  0.00    +0.000 C 
BRANCH  27  28
ATOM     28  C   UNL     1       0.572   9.966  19.695  0.00  0.00    +0.000 C 
BRANCH  28  29
ATOM     29  C   UNL     1       1.322   9.875  18.378  0.00  0.00    +0.000 C 
ATOM     30  N   UNL     1       1.746  11.047  17.824  0.00  0.00    +0.000 N 
ATOM     31  O   UNL     1       1.612   8.804  17.857  0.00  0.00    +0.000 OA
ATOM     32  H   UNL     1       1.493  11.971  18.149  0.00  0.00    +0.000 HD
ATOM     33  H   UNL     1       2.229  10.985  16.936  0.00  0.00    +0.000 HD
ENDBRANCH  28  29
ENDBRANCH  27  28
ENDBRANCH   5  27
TORSDOF 6
ENDMDL
MODEL 6
REMARK VINA RESULT:      -6.9      8.128     10.807
REMARK  Name = 
REMARK  7 active torsions:
REMARK  status: ('A' for Active; 'I' for Inactive)
REMARK    1  A    between atoms: C_1  and  C_2
REMARK    2  A    between atoms: C_2  and  C_3
REMARK    3  A    between atoms: C_3  and  C_4
REMARK    4  A    between atoms: C_4  and  N_5
REMARK    5  A    between atoms: C_9  and  C_10
REMARK    6  A    between atoms: C_10  and  C_11
REMARK    7  A    between atoms: C_11  and  C_12
REMARK                            x       y       z     vdW  Elec       q    Type
REMARK                         _______ _______ _______ _____ _____    ______ ____
ROOT
ATOM      1  N   UNL     1       1.084  14.436  20.060  0.00  0.00    +0.000 N 
ATOM      2  C   UNL     1       0.847  14.268  21.400  0.00  0.00    +0.000 C 
ATOM      3  O   UNL     1       1.550  14.617  22.332  0.00  0.00    +0.000 OA
ATOM      4  C   UNL     1      -0.377  13.436  21.542  0.00  0.00    +0.000 C 
ATOM      5  C   UNL     1      -0.164  11.915  21.575  0.00  0.00    +0.000 C 
ATOM      6  N   UNL     1      -1.448  11.397  21.042  0.00  0.00    +0.000 NA
ATOM      7  C   UNL     1      -2.052  12.472  20.194  0.00  0.00    +0.000 C 
ATOM      8  C   UNL     1      -3.394  12.914  20.932  0.00  0.00    +0.000 C 
ATOM      9  O   UNL     1      -3.485  13.404  22.047  0.00  0.00    +0.000 OA
ATOM     10  N   UNL     1      -4.461  12.576  20.124  0.00  0.00    +0.000 N 
ATOM     11  C   UNL     1      -4.028  12.012  18.940  0.00  0.00    +0.000 A 
ATOM     12  C   UNL     1      -4.843  11.556  17.920  0.00  0.00    +0.000 A 
ATOM     13  C   UNL     1      -4.214  11.009  16.803  0.00  0.00    +0.000 A 
ATOM     14  C   UNL     1      -2.817  10.932  16.750  0.00  0.00    +0.000 A 
ATOM     15  F   UNL     1      -2.236  10.397  15.668  0.00  0.00    +0.000 F 
ATOM     16  C   UNL     1      -2.011  11.386  17.800  0.00  0.00    +0.000 A 
ATOM     17  C   UNL     1      -2.628  11.948  18.904  0.00  0.00    +0.000 A 
ATOM     18  C   UNL     1      -1.116  13.676  20.233  0.00  0.00    +0.000 C 
ATOM     19  C   UNL     1       0.071  13.879  19.306  0.00  0.00    +0.000 C 
ATOM     20  O   UNL     1       0.135  13.593  18.122  0.00  0.00    +0.000 OA
ATOM     21  H   UNL     1      -2.078  11.205  21.826  0.00  0.00    +0.000 HD
ATOM     22  H   UNL     1      -5.422  12.710  20.401  0.00  0.00    +0.000 HD
ENDROOT
BRANCH   1  23
ATOM     23  C   UNL     1       2.419  14.789  19.595  0.00  0.00    +0.000 C 
BRANCH  23  24
ATOM     24  C   UNL     1       2.521  16.113  18.860  0.00  0.00    +0.000 C 
BRANCH  24  26
ATOM     25  C   UNL     1       4.507  14.891  17.955  0.00  0.00    +0.000 C 
ATOM     26  C   UNL     1       3.609  16.104  17.794  0.00  0.00    +0.000 C 
ENDBRANCH  24  26
ENDBRANCH  23  24
ENDBRANCH   1  23
BRANCH   5  27
ATOM     27  C   UNL     1       0.895  11.211  20.694  0.00  0.00    +0.000 C 
BRANCH  27  28
ATOM     28  C   UNL     1       0.559   9.835  20.131  0.00  0.00    +0.000 C 
BRANCH  28  29
ATOM     29  C   UNL     1       0.517   8.769  21.211  0.00  0.00    +0.000 C 
ATOM     30  N   UNL     1       1.713   8.335  21.701  0.00  0.00    +0.000 N 
ATOM     31  O   UNL     1      -0.533   8.357  21.690  0.00  0.00    +0.000 OA
ATOM     32  H   UNL     1       2.620   8.570  21.319  0.00  0.00    +0.000 HD
ATOM     33  H   UNL     1       1.683   7.610  22.408  0.00  0.00    +0.000 HD
ENDBRANCH  28  29
ENDBRANCH  27  28
ENDBRANCH   5  27
TORSDOF 6
ENDMDL
MODEL 7
REMARK VINA RESULT:      -6.9      6.323      8.792
REMARK  Name = 
REMARK  7 active torsions:
REMARK  status: ('A' for Active; 'I' for Inactive)
REMARK    1  A    between atoms: C_1  and  C_2
REMARK    2  A    between atoms: C_2  and  C_3
REMARK    3  A    between atoms: C_3  and  C_4
REMARK    4  A    between atoms: C_4  and  N_5
REMARK    5  A    between atoms: C_9  and  C_10
REMARK    6  A    between atoms: C_10  and  C_11
REMARK    7  A    between atoms: C_11  and  C_12
REMARK                            x       y       z     vdW  Elec       q    Type
REMARK                         _______ _______ _______ _____ _____    ______ ____
ROOT
ATOM      1  N   UNL     1      -2.247  11.208  18.491  0.00  0.00    +0.000 N 
ATOM      2  C   UNL     1      -2.179  11.874  19.687  0.00  0.00    +0.000 C 
ATOM      3  O   UNL     1      -2.869  12.806  20.063  0.00  0.00    +0.000 OA
ATOM      4  C   UNL     1      -0.995  11.360  20.424  0.00  0.00    +0.000 C 
ATOM      5  C   UNL     1       0.337  12.078  20.157  0.00  0.00    +0.000 C 
ATOM      6  N   UNL     1       1.337  11.014  20.422  0.00  0.00    +0.000 NA
ATOM      7  C   UNL     1       0.660   9.696  20.214  0.00  0.00    +0.000 C 
ATOM      8  C   UNL     1       0.629   8.987  21.641  0.00  0.00    +0.000 C 
ATOM      9  O   UNL     1       0.064   9.393  22.645  0.00  0.00    +0.000 OA
ATOM     10  N   UNL     1       1.420   7.857  21.579  0.00  0.00    +0.000 N 
ATOM     11  C   UNL     1       1.941   7.686  20.311  0.00  0.00    +0.000 A 
ATOM     12  C   UNL     1       2.781   6.661  19.917  0.00  0.00    +0.000 A 
ATOM     13  C   UNL     1       3.209   6.665  18.591  0.00  0.00    +0.000 A 
ATOM     14  C   UNL     1       2.795   7.683  17.723  0.00  0.00    +0.000 A 
ATOM     15  F   UNL     1       3.225   7.669  16.454  0.00  0.00    +0.000 F 
ATOM     16  C   UNL     1       1.957   8.720  18.145  0.00  0.00    +0.000 A 
ATOM     17  C   UNL     1       1.513   8.711  19.456  0.00  0.00    +0.000 A 
ATOM     18  C   UNL     1      -0.791   9.972  19.832  0.00  0.00    +0.000 C 
ATOM     19  C   UNL     1      -1.279  10.228  18.415  0.00  0.00    +0.000 C 
ATOM     20  O   UNL     1      -0.886   9.687  17.395  0.00  0.00    +0.000 OA
ATOM     21  H   UNL     1       1.637  11.079  21.399  0.00  0.00    +0.000 HD
ATOM     22  H   UNL     1       1.599   7.269  22.378  0.00  0.00    +0.000 HD
ENDROOT
BRANCH   1  23
ATOM     23  C   UNL     1      -2.986  11.787  17.376  0.00  0.00    +0.000 C 
BRANCH  23  24
ATOM     24  C   UNL     1      -4.292  11.093  17.032  0.00  0.00    +0.000 C 
BRANCH  24  26
ATOM     25  C   UNL     1      -5.932  12.359  18.435  0.00  0.00    +0.000 C 
ATOM     26  C   UNL     1      -5.474  12.054  17.020  0.00  0.00    +0.000 C 
ENDBRANCH  24  26
ENDBRANCH  23  24
ENDBRANCH   1  23
BRANCH   5  27
ATOM     27  C   UNL     1       0.729  12.590  18.750  0.00  0.00    +0.000 C 
BRANCH  27  28
ATOM     28  C   UNL     1       2.203  12.562  18.363  0.00  0.00    +0.000 C 
BRANCH  28  29
ATOM     29  C   UNL     1       2.806  13.954  18.300  0.00  0.00    +0.000 C 
ATOM     30  N   UNL     1       4.076  14.057  17.813  0.00  0.00    +0.000 N 
ATOM     31  O   UNL     1       2.173  14.961  18.594  0.00  0.00    +0.000 OA
ATOM     32  H   UNL     1       4.690  13.278  17.613  0.00  0.00    +0.000 HD
ATOM     33  H   UNL     1       4.483  14.985  17.790  0.00  0.00    +0.000 HD
ENDBRANCH  28  29
ENDBRANCH  27  28
ENDBRANCH   5  27
TORSDOF 6
ENDMDL
MODEL 8
REMARK VINA RESULT:      -6.8      7.682      9.867
REMARK  Name = 
REMARK  7 active torsions:
REMARK  status: ('A' for Active; 'I' for Inactive)
REMARK    1  A    between atoms: C_1  and  C_2
REMARK    2  A    between atoms: C_2  and  C_3
REMARK    3  A    between atoms: C_3  and  C_4
REMARK    4  A    between atoms: C_4  and  N_5
REMARK    5  A    between atoms: C_9  and  C_10
REMARK    6  A    between atoms: C_10  and  C_11
REMARK    7  A    between atoms: C_11  and  C_12
REMARK                            x       y       z     vdW  Elec       q    Type
REMARK                         _______ _______ _______ _____ _____    ______ ____
ROOT
ATOM      1  N   UNL     1       0.408   9.691  20.038  0.00  0.00    +0.000 N 
ATOM      2  C   UNL     1       0.555  10.074  18.730  0.00  0.00    +0.000 C 
ATOM      3  O   UNL     1       1.441   9.759  17.955  0.00  0.00    +0.000 OA
ATOM      4  C   UNL     1      -0.494  11.085  18.435  0.00  0.00    +0.000 C 
ATOM      5  C   UNL     1      -0.125  12.549  18.714  0.00  0.00    +0.000 C 
ATOM      6  N   UNL     1      -1.444  13.168  18.994  0.00  0.00    +0.000 NA
ATOM      7  C   UNL     1      -2.360  12.085  19.471  0.00  0.00    +0.000 C 
ATOM      8  C   UNL     1      -3.495  11.946  18.360  0.00  0.00    +0.000 C 
ATOM      9  O   UNL     1      -3.336  11.632  17.191  0.00  0.00    +0.000 OA
ATOM     10  N   UNL     1      -4.698  12.319  18.926  0.00  0.00    +0.000 N 
ATOM     11  C   UNL     1      -4.540  12.646  20.259  0.00  0.00    +0.000 A 
ATOM     12  C   UNL     1      -5.545  13.070  21.108  0.00  0.00    +0.000 A 
ATOM     13  C   UNL     1      -5.184  13.362  22.422  0.00  0.00    +0.000 A 
ATOM     14  C   UNL     1      -3.850  13.229  22.830  0.00  0.00    +0.000 A 
ATOM     15  F   UNL     1      -3.526  13.521  24.097  0.00  0.00    +0.000 F 
ATOM     16  C   UNL     1      -2.845  12.812  21.951  0.00  0.00    +0.000 A 
ATOM     17  C   UNL     1      -3.201  12.503  20.649  0.00  0.00    +0.000 A 
ATOM     18  C   UNL     1      -1.576  10.775  19.460  0.00  0.00    +0.000 C 
ATOM     19  C   UNL     1      -0.706  10.278  20.602  0.00  0.00    +0.000 C 
ATOM     20  O   UNL     1      -0.931  10.386  21.797  0.00  0.00    +0.000 OA
ATOM     21  H   UNL     1      -1.819  13.555  18.123  0.00  0.00    +0.000 HD
ATOM     22  H   UNL     1      -5.558  12.364  18.402  0.00  0.00    +0.000 HD
ENDROOT
BRANCH   1  23
ATOM     23  C   UNL     1       1.528   9.089  20.751  0.00  0.00    +0.000 C 
BRANCH  23  24
ATOM     24  C   UNL     1       1.399   7.601  21.023  0.00  0.00    +0.000 C 
BRANCH  24  26
ATOM     25  C   UNL     1       1.978   5.278  20.295  0.00  0.00    +0.000 C 
ATOM     26  C   UNL     1       2.169   6.757  20.014  0.00  0.00    +0.000 C 
ENDBRANCH  24  26
ENDBRANCH  23  24
ENDBRANCH   1  23
BRANCH   5  27
ATOM     27  C   UNL     1       0.728  12.965  19.936  0.00  0.00    +0.000 C 
BRANCH  27  28
ATOM     28  C   UNL     1       2.238  13.074  19.752  0.00  0.00    +0.000 C 
BRANCH  28  29
ATOM     29  C   UNL     1       2.617  13.448  18.331  0.00  0.00    +0.000 C 
ATOM     30  N   UNL     1       2.852  12.423  17.462  0.00  0.00    +0.000 N 
ATOM     31  O   UNL     1       2.642  14.608  17.938  0.00  0.00    +0.000 OA
ATOM     32  H   UNL     1       2.919  11.446  17.717  0.00  0.00    +0.000 HD
ATOM     33  H   UNL     1       3.124  12.675  16.519  0.00  0.00    +0.000 HD
ENDBRANCH  28  29
ENDBRANCH  27  28
ENDBRANCH   5  27
TORSDOF 6
ENDMDL
MODEL 9
REMARK VINA RESULT:      -6.8      7.871     10.488
REMARK  Name = 
REMARK  7 active torsions:
REMARK  status: ('A' for Active; 'I' for Inactive)
REMARK    1  A    between atoms: C_1  and  C_2
REMARK    2  A    between atoms: C_2  and  C_3
REMARK    3  A    between atoms: C_3  and  C_4
REMARK    4  A    between atoms: C_4  and  N_5
REMARK    5  A    between atoms: C_9  and  C_10
REMARK    6  A    between atoms: C_10  and  C_11
REMARK    7  A    between atoms: C_11  and  C_12
REMARK                            x       y       z     vdW  Elec       q    Type
REMARK                         _______ _______ _______ _____ _____    ______ ____
ROOT
ATOM      1  N   UNL     1       1.559  13.949  20.019  0.00  0.00    +0.000 N 
ATOM      2  C   UNL     1       1.176  14.101  21.326  0.00  0.00    +0.000 C 
ATOM      3  O   UNL     1       1.834  14.545  22.251  0.00  0.00    +0.000 OA
ATOM      4  C   UNL     1      -0.168  13.484  21.477  0.00  0.00    +0.000 C 
ATOM      5  C   UNL     1      -0.195  11.991  21.835  0.00  0.00    +0.000 C 
ATOM      6  N   UNL     1      -1.488  11.544  21.260  0.00  0.00    +0.000 NA
ATOM      7  C   UNL     1      -1.839  12.484  20.150  0.00  0.00    +0.000 C 
ATOM      8  C   UNL     1      -3.160  13.243  20.617  0.00  0.00    +0.000 C 
ATOM      9  O   UNL     1      -3.279  13.966  21.594  0.00  0.00    +0.000 OA
ATOM     10  N   UNL     1      -4.187  12.885  19.767  0.00  0.00    +0.000 N 
ATOM     11  C   UNL     1      -3.736  12.031  18.778  0.00  0.00    +0.000 A 
ATOM     12  C   UNL     1      -4.512  11.479  17.776  0.00  0.00    +0.000 A 
ATOM     13  C   UNL     1      -3.874  10.631  16.873  0.00  0.00    +0.000 A 
ATOM     14  C   UNL     1      -2.505  10.363  17.008  0.00  0.00    +0.000 A 
ATOM     15  F   UNL     1      -1.915   9.540  16.132  0.00  0.00    +0.000 F 
ATOM     16  C   UNL     1      -1.741  10.920  18.038  0.00  0.00    +0.000 A 
ATOM     17  C   UNL     1      -2.365  11.779  18.927  0.00  0.00    +0.000 A 
ATOM     18  C   UNL     1      -0.737  13.537  20.066  0.00  0.00    +0.000 C 
ATOM     19  C   UNL     1       0.548  13.382  19.270  0.00  0.00    +0.000 C 
ATOM     20  O   UNL     1       0.677  12.847  18.182  0.00  0.00    +0.000 OA
ATOM     21  H   UNL     1      -2.210  11.606  21.983  0.00  0.00    +0.000 HD
ATOM     22  H   UNL     1      -5.137  13.198  19.892  0.00  0.00    +0.000 HD
ENDROOT
BRANCH   1  23
ATOM     23  C   UNL     1       2.970  14.019  19.661  0.00  0.00    +0.000 C 
BRANCH  23  24
ATOM     24  C   UNL     1       3.446  15.369  19.156  0.00  0.00    +0.000 C 
BRANCH  24  26
ATOM     25  C   UNL     1       2.935  16.805  17.172  0.00  0.00    +0.000 C 
ATOM     26  C   UNL     1       3.446  15.453  17.635  0.00  0.00    +0.000 C 
ENDBRANCH  24  26
ENDBRANCH  23  24
ENDBRANCH   1  23
BRANCH   5  27
ATOM     27  C   UNL     1       0.822  10.985  21.245  0.00  0.00    +0.000 C 
BRANCH  27  28
ATOM     28  C   UNL     1       0.678   9.515  21.624  0.00  0.00    +0.000 C 
BRANCH  28  29
ATOM     29  C   UNL     1       1.299   8.593  20.590  0.00  0.00    +0.000 C 
ATOM     30  N   UNL     1       1.640   7.339  21.004  0.00  0.00    +0.000 N 
ATOM     31  O   UNL     1       1.428   8.911  19.414  0.00  0.00    +0.000 OA
ATOM     32  H   UNL     1       1.631   7.018  21.964  0.00  0.00    +0.000 HD
ATOM     33  H   UNL     1       2.072   6.731  20.318  0.00  0.00    +0.000 HD
ENDBRANCH  28  29
ENDBRANCH  27  28
ENDBRANCH   5  27
TORSDOF 6
ENDMDL
