MODEL 1
REMARK VINA RESULT:      -8.9      0.000      0.000
REMARK  Name = 
REMARK  8 active torsions:
REMARK  status: ('A' for Active; 'I' for Inactive)
REMARK    1  A    between atoms: C_1  and  N_2
REMARK    2  A    between atoms: N_2  and  C_3
REMARK    3  A    between atoms: N_2  and  C_4
REMARK    4  A    between atoms: C_7  and  C_8
REMARK    5  A    between atoms: C_8  and  C_9
REMARK    6  A    between atoms: C_9  and  C_11
REMARK    7  A    between atoms: C_16  and  O_17
REMARK    8  A    between atoms: C_22  and  O_23
REMARK                            x       y       z     vdW  Elec       q    Type
REMARK                         _______ _______ _______ _____ _____    ______ ____
ROOT
ATOM      1  C   UNL     1       3.112   6.166  17.699  0.00  0.00    +0.000 C 
ATOM      2  C   UNL     1       2.586   4.814  18.166  0.00  0.00    +0.000 A 
ATOM      3  C   UNL     1       1.295   4.393  17.827  0.00  0.00    +0.000 A 
ATOM      4  C   UNL     1       0.731   3.279  18.454  0.00  0.00    +0.000 A 
ATOM      5  C   UNL     1       1.423   2.622  19.471  0.00  0.00    +0.000 A 
ATOM      6  C   UNL     1       2.722   3.003  19.781  0.00  0.00    +0.000 A 
ATOM      7  C   UNL     1       3.347   4.031  19.053  0.00  0.00    +0.000 A 
ATOM      8  C   UNL     1       4.807   4.261  19.112  0.00  0.00    +0.000 C 
ATOM      9  O   UNL     1       5.550   3.580  19.825  0.00  0.00    +0.000 OA
ATOM     10  C   UNL     1       5.426   5.273  18.229  0.00  0.00    +0.000 A 
ATOM     11  C   UNL     1       6.811   5.278  18.034  0.00  0.00    +0.000 A 
ATOM     12  C   UNL     1       7.423   6.320  17.350  0.00  0.00    +0.000 A 
ATOM     13  C   UNL     1       6.646   7.349  16.824  0.00  0.00    +0.000 A 
ATOM     14  C   UNL     1       5.253   7.298  16.926  0.00  0.00    +0.000 A 
ATOM     15  C   UNL     1       4.620   6.246  17.617  0.00  0.00    +0.000 A 
ENDROOT
BRANCH   1  16
ATOM     16  C   UNL     1       2.535   7.309  18.558  0.00  0.00    +0.000 C 
ATOM     17  O   UNL     1       2.206   7.100  19.726  0.00  0.00    +0.000 OA
BRANCH  16  18
ATOM     18  C   UNL     1       2.390   8.679  17.894  0.00  0.00    +0.000 C 
BRANCH  18  22
ATOM     19  C   UNL     1      -1.132  11.070  18.890  0.00  0.00    +0.000 A 
ATOM     20  C   UNL     1       0.088  11.221  19.568  0.00  0.00    +0.000 A 
ATOM     21  C   UNL     1       1.209  10.428  19.278  0.00  0.00    +0.000 A 
ATOM     22  C   UNL     1       1.162   9.470  18.265  0.00  0.00    +0.000 A 
ATOM     23  C   UNL     1      -0.041   9.293  17.580  0.00  0.00    +0.000 A 
ATOM     24  C   UNL     1      -1.160  10.084  17.888  0.00  0.00    +0.000 A 
BRANCH  19  26
ATOM     25  C   UNL     1      -2.411  12.464  20.482  0.00  0.00    +0.000 C 
ATOM     26  N   UNL     1      -2.249  11.869  19.160  0.00  0.00    +0.000 N 
ATOM     27  C   UNL     1      -3.478  11.577  18.427  0.00  0.00    +0.000 C 
ENDBRANCH  19  26
ENDBRANCH  18  22
ENDBRANCH  16  18
ENDBRANCH   1  16
BRANCH   6  28
ATOM     28  O   UNL     1       3.368   2.396  20.808  0.00  0.00    +0.000 OA
ATOM     29  H   UNL     1       4.240   2.089  20.518  0.00  0.00    +0.000 HD
ENDBRANCH   6  28
BRANCH  11  30
ATOM     30  O   UNL     1       7.631   4.272  18.473  0.00  0.00    +0.000 OA
ATOM     31  H   UNL     1       8.093   4.600  19.281  0.00  0.00    +0.000 HD
ENDBRANCH  11  30
TORSDOF 6
ENDMDL
MODEL 2
REMARK VINA RESULT:      -8.7      1.494      1.913
REMARK  Name = 
REMARK  8 active torsions:
REMARK  status: ('A' for Active; 'I' for Inactive)
REMARK    1  A    between atoms: C_1  and  N_2
REMARK    2  A    between atoms: N_2  and  C_3
REMARK    3  A    between atoms: N_2  and  C_4
REMARK    4  A    between atoms: C_7  and  C_8
REMARK    5  A    between atoms: C_8  and  C_9
REMARK    6  A    between atoms: C_9  and  C_11
REMARK    7  A    between atoms: C_16  and  O_17
REMARK    8  A    between atoms: C_22  and  O_23
REMARK                            x       y       z     vdW  Elec       q    Type
REMARK                         _______ _______ _______ _____ _____    ______ ____
ROOT
ATOM      1  C   UNL     1       3.023   5.851  17.744  0.00  0.00    +0.000 C 
ATOM      2  C   UNL     1       2.588   4.487  18.267  0.00  0.00    +0.000 A 
ATOM      3  C   UNL     1       1.314   3.984  17.981  0.00  0.00    +0.000 A 
ATOM      4  C   UNL     1       0.833   2.860  18.657  0.00  0.00    +0.000 A 
ATOM      5  C   UNL     1       1.590   2.275  19.671  0.00  0.00    +0.000 A 
ATOM      6  C   UNL     1       2.874   2.738  19.930  0.00  0.00    +0.000 A 
ATOM      7  C   UNL     1       3.418   3.775  19.153  0.00  0.00    +0.000 A 
ATOM      8  C   UNL     1       4.864   4.088  19.160  0.00  0.00    +0.000 C 
ATOM      9  O   UNL     1       5.665   3.472  19.870  0.00  0.00    +0.000 OA
ATOM     10  C   UNL     1       5.398   5.105  18.229  0.00  0.00    +0.000 A 
ATOM     11  C   UNL     1       6.774   5.181  17.992  0.00  0.00    +0.000 A 
ATOM     12  C   UNL     1       7.306   6.234  17.258  0.00  0.00    +0.000 A 
ATOM     13  C   UNL     1       6.457   7.201  16.726  0.00  0.00    +0.000 A 
ATOM     14  C   UNL     1       5.072   7.076  16.873  0.00  0.00    +0.000 A 
ATOM     15  C   UNL     1       4.520   6.012  17.614  0.00  0.00    +0.000 A 
ENDROOT
BRANCH   1  16
ATOM     16  C   UNL     1       2.407   6.986  18.586  0.00  0.00    +0.000 C 
ATOM     17  O   UNL     1       2.620   7.042  19.798  0.00  0.00    +0.000 OA
BRANCH  16  18
ATOM     18  C   UNL     1       1.534   8.006  17.855  0.00  0.00    +0.000 C 
BRANCH  18  22
ATOM     19  C   UNL     1       1.342  12.063  19.473  0.00  0.00    +0.000 A 
ATOM     20  C   UNL     1       2.146  11.738  18.370  0.00  0.00    +0.000 A 
ATOM     21  C   UNL     1       2.240  10.429  17.872  0.00  0.00    +0.000 A 
ATOM     22  C   UNL     1       1.500   9.393  18.443  0.00  0.00    +0.000 A 
ATOM     23  C   UNL     1       0.698   9.687  19.546  0.00  0.00    +0.000 A 
ATOM     24  C   UNL     1       0.621  10.998  20.044  0.00  0.00    +0.000 A 
BRANCH  19  26
ATOM     25  C   UNL     1       0.570  14.390  19.154  0.00  0.00    +0.000 C 
ATOM     26  N   UNL     1       1.226  13.369  19.964  0.00  0.00    +0.000 N 
ATOM     27  C   UNL     1       2.261  13.837  20.883  0.00  0.00    +0.000 C 
ENDBRANCH  19  26
ENDBRANCH  18  22
ENDBRANCH  16  18
ENDBRANCH   1  16
BRANCH   6  28
ATOM     28  O   UNL     1       3.583   2.199  20.954  0.00  0.00    +0.000 OA
ATOM     29  H   UNL     1       4.352   2.753  21.153  0.00  0.00    +0.000 HD
ENDBRANCH   6  28
BRANCH  11  30
ATOM     30  O   UNL     1       7.662   4.237  18.434  0.00  0.00    +0.000 OA
ATOM     31  H   UNL     1       8.141   3.889  17.645  0.00  0.00    +0.000 HD
ENDBRANCH  11  30
TORSDOF 6
ENDMDL
MODEL 3
REMARK VINA RESULT:      -8.7      0.773      1.355
REMARK  Name = 
REMARK  8 active torsions:
REMARK  status: ('A' for Active; 'I' for Inactive)
REMARK    1  A    between atoms: C_1  and  N_2
REMARK    2  A    between atoms: N_2  and  C_3
REMARK    3  A    between atoms: N_2  and  C_4
REMARK    4  A    between atoms: C_7  and  C_8
REMARK    5  A    between atoms: C_8  and  C_9
REMARK    6  A    between atoms: C_9  and  C_11
REMARK    7  A    between atoms: C_16  and  O_17
REMARK    8  A    between atoms: C_22  and  O_23
REMARK                            x       y       z     vdW  Elec       q    Type
REMARK                         _______ _______ _______ _____ _____    ______ ____
ROOT
ATOM      1  C   UNL     1       3.080   5.931  17.771  0.00  0.00    +0.000 C 
ATOM      2  C   UNL     1       2.623   4.560  18.259  0.00  0.00    +0.000 A 
ATOM      3  C   UNL     1       1.342   4.085  17.960  0.00  0.00    +0.000 A 
ATOM      4  C   UNL     1       0.842   2.952  18.607  0.00  0.00    +0.000 A 
ATOM      5  C   UNL     1       1.590   2.330  19.606  0.00  0.00    +0.000 A 
ATOM      6  C   UNL     1       2.880   2.765  19.876  0.00  0.00    +0.000 A 
ATOM      7  C   UNL     1       3.441   3.813  19.126  0.00  0.00    +0.000 A 
ATOM      8  C   UNL     1       4.892   4.103  19.141  0.00  0.00    +0.000 C 
ATOM      9  O   UNL     1       5.683   3.456  19.835  0.00  0.00    +0.000 OA
ATOM     10  C   UNL     1       5.443   5.135  18.236  0.00  0.00    +0.000 A 
ATOM     11  C   UNL     1       6.820   5.195  18.001  0.00  0.00    +0.000 A 
ATOM     12  C   UNL     1       7.369   6.258  17.295  0.00  0.00    +0.000 A 
ATOM     13  C   UNL     1       6.536   7.252  16.789  0.00  0.00    +0.000 A 
ATOM     14  C   UNL     1       5.149   7.145  16.932  0.00  0.00    +0.000 A 
ATOM     15  C   UNL     1       4.580   6.071  17.645  0.00  0.00    +0.000 A 
ENDROOT
BRANCH   1  16
ATOM     16  C   UNL     1       2.483   7.053  18.642  0.00  0.00    +0.000 C 
ATOM     17  O   UNL     1       2.375   6.901  19.860  0.00  0.00    +0.000 OA
BRANCH  16  18
ATOM     18  C   UNL     1       2.034   8.329  17.929  0.00  0.00    +0.000 C 
BRANCH  18  22
ATOM     19  C   UNL     1      -0.621  10.919  20.244  0.00  0.00    +0.000 A 
ATOM     20  C   UNL     1      -0.794  10.715  18.867  0.00  0.00    +0.000 A 
ATOM     21  C   UNL     1       0.080   9.915  18.113  0.00  0.00    +0.000 A 
ATOM     22  C   UNL     1       1.148   9.256  18.721  0.00  0.00    +0.000 A 
ATOM     23  C   UNL     1       1.348   9.447  20.089  0.00  0.00    +0.000 A 
ATOM     24  C   UNL     1       0.475  10.260  20.831  0.00  0.00    +0.000 A 
BRANCH  19  26
ATOM     25  C   UNL     1      -2.482  12.543  20.341  0.00  0.00    +0.000 C 
ATOM     26  N   UNL     1      -1.498  11.698  21.008  0.00  0.00    +0.000 N 
ATOM     27  C   UNL     1      -1.028  12.158  22.312  0.00  0.00    +0.000 C 
ENDBRANCH  19  26
ENDBRANCH  18  22
ENDBRANCH  16  18
ENDBRANCH   1  16
BRANCH   6  28
ATOM     28  O   UNL     1       3.580   2.189  20.886  0.00  0.00    +0.000 OA
ATOM     29  H   UNL     1       3.387   2.638  21.723  0.00  0.00    +0.000 HD
ENDBRANCH   6  28
BRANCH  11  30
ATOM     30  O   UNL     1       7.693   4.225  18.420  0.00  0.00    +0.000 OA
ATOM     31  H   UNL     1       7.975   3.719  17.622  0.00  0.00    +0.000 HD
ENDBRANCH  11  30
TORSDOF 6
ENDMDL
MODEL 4
REMARK VINA RESULT:      -8.7      1.497      1.844
REMARK  Name = 
REMARK  8 active torsions:
REMARK  status: ('A' for Active; 'I' for Inactive)
REMARK    1  A    between atoms: C_1  and  N_2
REMARK    2  A    between atoms: N_2  and  C_3
REMARK    3  A    between atoms: N_2  and  C_4
REMARK    4  A    between atoms: C_7  and  C_8
REMARK    5  A    between atoms: C_8  and  C_9
REMARK    6  A    between atoms: C_9  and  C_11
REMARK    7  A    between atoms: C_16  and  O_17
REMARK    8  A    between atoms: C_22  and  O_23
REMARK                            x       y       z     vdW  Elec       q    Type
REMARK                         _______ _______ _______ _____ _____    ______ ____
ROOT
ATOM      1  C   UNL     1       3.107   6.018  17.733  0.00  0.00    +0.000 C 
ATOM      2  C   UNL     1       2.659   4.639  18.204  0.00  0.00    +0.000 A 
ATOM      3  C   UNL     1       1.403   4.135  17.850  0.00  0.00    +0.000 A 
ATOM      4  C   UNL     1       0.900   2.992  18.477  0.00  0.00    +0.000 A 
ATOM      5  C   UNL     1       1.615   2.390  19.512  0.00  0.00    +0.000 A 
ATOM      6  C   UNL     1       2.882   2.855  19.839  0.00  0.00    +0.000 A 
ATOM      7  C   UNL     1       3.453   3.913  19.111  0.00  0.00    +0.000 A 
ATOM      8  C   UNL     1       4.895   4.236  19.191  0.00  0.00    +0.000 C 
ATOM      9  O   UNL     1       5.667   3.609  19.923  0.00  0.00    +0.000 OA
ATOM     10  C   UNL     1       5.463   5.277  18.309  0.00  0.00    +0.000 A 
ATOM     11  C   UNL     1       6.848   5.367  18.136  0.00  0.00    +0.000 A 
ATOM     12  C   UNL     1       7.404   6.440  17.452  0.00  0.00    +0.000 A 
ATOM     13  C   UNL     1       6.574   7.414  16.904  0.00  0.00    +0.000 A 
ATOM     14  C   UNL     1       5.184   7.276  16.984  0.00  0.00    +0.000 A 
ATOM     15  C   UNL     1       4.607   6.192  17.675  0.00  0.00    +0.000 A 
ENDROOT
BRANCH   1  16
ATOM     16  C   UNL     1       2.445   7.129  18.572  0.00  0.00    +0.000 C 
ATOM     17  O   UNL     1       2.568   7.136  19.797  0.00  0.00    +0.000 OA
BRANCH  16  18
ATOM     18  C   UNL     1       1.641   8.190  17.819  0.00  0.00    +0.000 C 
BRANCH  18  22
ATOM     19  C   UNL     1       1.236  11.996  19.931  0.00  0.00    +0.000 A 
ATOM     20  C   UNL     1       0.635  10.817  20.398  0.00  0.00    +0.000 A 
ATOM     21  C   UNL     1       0.731   9.601  19.702  0.00  0.00    +0.000 A 
ATOM     22  C   UNL     1       1.466   9.512  18.520  0.00  0.00    +0.000 A 
ATOM     23  C   UNL     1       2.067  10.672  18.029  0.00  0.00    +0.000 A 
ATOM     24  C   UNL     1       1.954  11.885  18.727  0.00  0.00    +0.000 A 
BRANCH  19  26
ATOM     25  C   UNL     1       2.383  13.961  20.898  0.00  0.00    +0.000 C 
ATOM     26  N   UNL     1       1.163  13.208  20.628  0.00  0.00    +0.000 N 
ATOM     27  C   UNL     1       0.079  13.365  21.595  0.00  0.00    +0.000 C 
ENDBRANCH  19  26
ENDBRANCH  18  22
ENDBRANCH  16  18
ENDBRANCH   1  16
BRANCH   6  28
ATOM     28  O   UNL     1       3.548   2.297  20.882  0.00  0.00    +0.000 OA
ATOM     29  H   UNL     1       3.086   1.501  21.184  0.00  0.00    +0.000 HD
ENDBRANCH   6  28
BRANCH  11  30
ATOM     30  O   UNL     1       7.722   4.419  18.598  0.00  0.00    +0.000 OA
ATOM     31  H   UNL     1       7.388   4.112  19.473  0.00  0.00    +0.000 HD
ENDBRANCH  11  30
TORSDOF 6
ENDMDL
MODEL 5
REMARK VINA RESULT:      -8.6      3.775      7.545
REMARK  Name = 
REMARK  8 active torsions:
REMARK  status: ('A' for Active; 'I' for Inactive)
REMARK    1  A    between atoms: C_1  and  N_2
REMARK    2  A    between atoms: N_2  and  C_3
REMARK    3  A    between atoms: N_2  and  C_4
REMARK    4  A    between atoms: C_7  and  C_8
REMARK    5  A    between atoms: C_8  and  C_9
REMARK    6  A    between atoms: C_9  and  C_11
REMARK    7  A    between atoms: C_16  and  O_17
REMARK    8  A    between atoms: C_22  and  O_23
REMARK                            x       y       z     vdW  Elec       q    Type
REMARK                         _______ _______ _______ _____ _____    ______ ____
ROOT
ATOM      1  C   UNL     1       3.764   5.508  17.824  0.00  0.00    +0.000 C 
ATOM      2  C   UNL     1       2.921   6.700  18.262  0.00  0.00    +0.000 A 
ATOM      3  C   UNL     1       2.881   7.869  17.494  0.00  0.00    +0.000 A 
ATOM      4  C   UNL     1       2.313   9.034  18.015  0.00  0.00    +0.000 A 
ATOM      5  C   UNL     1       1.848   9.059  19.330  0.00  0.00    +0.000 A 
ATOM      6  C   UNL     1       1.841   7.893  20.083  0.00  0.00    +0.000 A 
ATOM      7  C   UNL     1       2.276   6.684  19.513  0.00  0.00    +0.000 A 
ATOM      8  C   UNL     1       1.996   5.373  20.138  0.00  0.00    +0.000 C 
ATOM      9  O   UNL     1       1.388   5.273  21.208  0.00  0.00    +0.000 OA
ATOM     10  C   UNL     1       2.368   4.129  19.430  0.00  0.00    +0.000 A 
ATOM     11  C   UNL     1       1.830   2.904  19.839  0.00  0.00    +0.000 A 
ATOM     12  C   UNL     1       2.298   1.713  19.300  0.00  0.00    +0.000 A 
ATOM     13  C   UNL     1       3.286   1.742  18.320  0.00  0.00    +0.000 A 
ATOM     14  C   UNL     1       3.755   2.966  17.833  0.00  0.00    +0.000 A 
ATOM     15  C   UNL     1       3.288   4.182  18.371  0.00  0.00    +0.000 A 
ENDROOT
BRANCH   1  16
ATOM     16  C   UNL     1       5.255   5.742  18.138  0.00  0.00    +0.000 C 
ATOM     17  O   UNL     1       5.692   5.519  19.267  0.00  0.00    +0.000 OA
BRANCH  16  18
ATOM     18  C   UNL     1       6.137   6.260  17.001  0.00  0.00    +0.000 C 
BRANCH  18  22
ATOM     19  C   UNL     1       6.067   3.847  13.357  0.00  0.00    +0.000 A 
ATOM     20  C   UNL     1       7.263   4.334  13.905  0.00  0.00    +0.000 A 
ATOM     21  C   UNL     1       7.286   5.141  15.053  0.00  0.00    +0.000 A 
ATOM     22  C   UNL     1       6.105   5.466  15.721  0.00  0.00    +0.000 A 
ATOM     23  C   UNL     1       4.900   5.001  15.192  0.00  0.00    +0.000 A 
ATOM     24  C   UNL     1       4.888   4.205  14.036  0.00  0.00    +0.000 A 
BRANCH  19  26
ATOM     25  C   UNL     1       7.257   2.801  11.459  0.00  0.00    +0.000 C 
ATOM     26  N   UNL     1       6.035   3.024  12.224  0.00  0.00    +0.000 N 
ATOM     27  C   UNL     1       4.782   2.955  11.477  0.00  0.00    +0.000 C 
ENDBRANCH  19  26
ENDBRANCH  18  22
ENDBRANCH  16  18
ENDBRANCH   1  16
BRANCH   6  28
ATOM     28  O   UNL     1       1.437   7.938  21.378  0.00  0.00    +0.000 OA
ATOM     29  H   UNL     1       0.513   8.225  21.428  0.00  0.00    +0.000 HD
ENDBRANCH   6  28
BRANCH  11  30
ATOM     30  O   UNL     1       0.817   2.802  20.757  0.00  0.00    +0.000 OA
ATOM     31  H   UNL     1       0.378   1.931  20.614  0.00  0.00    +0.000 HD
ENDBRANCH  11  30
TORSDOF 6
ENDMDL
MODEL 6
REMARK VINA RESULT:      -8.6      3.788      7.610
REMARK  Name = 
REMARK  8 active torsions:
REMARK  status: ('A' for Active; 'I' for Inactive)
REMARK    1  A    between atoms: C_1  and  N_2
REMARK    2  A    between atoms: N_2  and  C_3
REMARK    3  A    between atoms: N_2  and  C_4
REMARK    4  A    between atoms: C_7  and  C_8
REMARK    5  A    between atoms: C_8  and  C_9
REMARK    6  A    between atoms: C_9  and  C_11
REMARK    7  A    between atoms: C_16  and  O_17
REMARK    8  A    between atoms: C_22  and  O_23
REMARK                            x       y       z     vdW  Elec       q    Type
REMARK                         _______ _______ _______ _____ _____    ______ ____
ROOT
ATOM      1  C   UNL     1       3.813   5.447  17.789  0.00  0.00    +0.000 C 
ATOM      2  C   UNL     1       2.967   6.644  18.209  0.00  0.00    +0.000 A 
ATOM      3  C   UNL     1       2.931   7.803  17.426  0.00  0.00    +0.000 A 
ATOM      4  C   UNL     1       2.361   8.975  17.930  0.00  0.00    +0.000 A 
ATOM      5  C   UNL     1       1.889   9.016  19.242  0.00  0.00    +0.000 A 
ATOM      6  C   UNL     1       1.877   7.859  20.009  0.00  0.00    +0.000 A 
ATOM      7  C   UNL     1       2.316   6.644  19.456  0.00  0.00    +0.000 A 
ATOM      8  C   UNL     1       2.032   5.340  20.096  0.00  0.00    +0.000 C 
ATOM      9  O   UNL     1       1.419   5.254  21.164  0.00  0.00    +0.000 OA
ATOM     10  C   UNL     1       2.408   4.087  19.405  0.00  0.00    +0.000 A 
ATOM     11  C   UNL     1       1.868   2.868  19.827  0.00  0.00    +0.000 A 
ATOM     12  C   UNL     1       2.339   1.670  19.304  0.00  0.00    +0.000 A 
ATOM     13  C   UNL     1       3.332   1.687  18.329  0.00  0.00    +0.000 A 
ATOM     14  C   UNL     1       3.804   2.905  17.830  0.00  0.00    +0.000 A 
ATOM     15  C   UNL     1       3.333   4.127  18.351  0.00  0.00    +0.000 A 
ENDROOT
BRANCH   1  16
ATOM     16  C   UNL     1       5.302   5.685  18.108  0.00  0.00    +0.000 C 
ATOM     17  O   UNL     1       5.734   5.471  19.242  0.00  0.00    +0.000 OA
BRANCH  16  18
ATOM     18  C   UNL     1       6.189   6.195  16.972  0.00  0.00    +0.000 C 
BRANCH  18  22
ATOM     19  C   UNL     1       6.109   3.946  13.224  0.00  0.00    +0.000 A 
ATOM     20  C   UNL     1       4.960   4.124  14.011  0.00  0.00    +0.000 A 
ATOM     21  C   UNL     1       4.990   4.812  15.234  0.00  0.00    +0.000 A 
ATOM     22  C   UNL     1       6.174   5.382  15.703  0.00  0.00    +0.000 A 
ATOM     23  C   UNL     1       7.333   5.214  14.944  0.00  0.00    +0.000 A 
ATOM     24  C   UNL     1       7.294   4.512  13.728  0.00  0.00    +0.000 A 
BRANCH  19  26
ATOM     25  C   UNL     1       4.816   2.801  11.455  0.00  0.00    +0.000 C 
ATOM     26  N   UNL     1       6.085   3.279  11.994  0.00  0.00    +0.000 N 
ATOM     27  C   UNL     1       7.275   2.521  11.615  0.00  0.00    +0.000 C 
ENDBRANCH  19  26
ENDBRANCH  18  22
ENDBRANCH  16  18
ENDBRANCH   1  16
BRANCH   6  28
ATOM     28  O   UNL     1       1.466   7.920  21.301  0.00  0.00    +0.000 OA
ATOM     29  H   UNL     1       1.954   8.612  21.773  0.00  0.00    +0.000 HD
ENDBRANCH   6  28
BRANCH  11  30
ATOM     30  O   UNL     1       0.850   2.777  20.740  0.00  0.00    +0.000 OA
ATOM     31  H   UNL     1       0.976   1.935  21.237  0.00  0.00    +0.000 HD
ENDBRANCH  11  30
TORSDOF 6
ENDMDL
MODEL 7
REMARK VINA RESULT:      -8.4      1.852      4.183
REMARK  Name = 
REMARK  8 active torsions:
REMARK  status: ('A' for Active; 'I' for Inactive)
REMARK    1  A    between atoms: C_1  and  N_2
REMARK    2  A    between atoms: N_2  and  C_3
REMARK    3  A    between atoms: N_2  and  C_4
REMARK    4  A    between atoms: C_7  and  C_8
REMARK    5  A    between atoms: C_8  and  C_9
REMARK    6  A    between atoms: C_9  and  C_11
REMARK    7  A    between atoms: C_16  and  O_17
REMARK    8  A    between atoms: C_22  and  O_23
REMARK                            x       y       z     vdW  Elec       q    Type
REMARK                         _______ _______ _______ _____ _____    ______ ____
ROOT
ATOM      1  C   UNL     1       3.530   5.912  18.853  0.00  0.00    +0.000 C 
ATOM      2  C   UNL     1       4.804   5.597  18.078  0.00  0.00    +0.000 A 
ATOM      3  C   UNL     1       5.827   6.545  17.967  0.00  0.00    +0.000 A 
ATOM      4  C   UNL     1       6.873   6.350  17.061  0.00  0.00    +0.000 A 
ATOM      5  C   UNL     1       6.866   5.245  16.211  0.00  0.00    +0.000 A 
ATOM      6  C   UNL     1       5.881   4.276  16.345  0.00  0.00    +0.000 A 
ATOM      7  C   UNL     1       4.909   4.395  17.354  0.00  0.00    +0.000 A 
ATOM      8  C   UNL     1       4.046   3.262  17.753  0.00  0.00    +0.000 C 
ATOM      9  O   UNL     1       4.115   2.159  17.202  0.00  0.00    +0.000 OA
ATOM     10  C   UNL     1       3.129   3.408  18.904  0.00  0.00    +0.000 A 
ATOM     11  C   UNL     1       2.558   2.274  19.491  0.00  0.00    +0.000 A 
ATOM     12  C   UNL     1       1.568   2.404  20.457  0.00  0.00    +0.000 A 
ATOM     13  C   UNL     1       1.166   3.672  20.866  0.00  0.00    +0.000 A 
ATOM     14  C   UNL     1       1.804   4.808  20.358  0.00  0.00    +0.000 A 
ATOM     15  C   UNL     1       2.811   4.690  19.379  0.00  0.00    +0.000 A 
ENDROOT
BRANCH   1  16
ATOM     16  C   UNL     1       2.586   6.805  18.024  0.00  0.00    +0.000 C 
ATOM     17  O   UNL     1       1.766   6.296  17.258  0.00  0.00    +0.000 OA
BRANCH  16  18
ATOM     18  C   UNL     1       2.725   8.318  18.194  0.00  0.00    +0.000 C 
BRANCH  18  22
ATOM     19  C   UNL     1      -0.174  10.326  20.778  0.00  0.00    +0.000 A 
ATOM     20  C   UNL     1       0.539   9.192  21.198  0.00  0.00    +0.000 A 
ATOM     21  C   UNL     1       1.442   8.522  20.357  0.00  0.00    +0.000 A 
ATOM     22  C   UNL     1       1.692   8.986  19.065  0.00  0.00    +0.000 A 
ATOM     23  C   UNL     1       0.991  10.107  18.620  0.00  0.00    +0.000 A 
ATOM     24  C   UNL     1       0.082  10.762  19.465  0.00  0.00    +0.000 A 
BRANCH  19  26
ATOM     25  C   UNL     1      -1.511  12.352  21.249  0.00  0.00    +0.000 C 
ATOM     26  N   UNL     1      -1.060  11.013  21.616  0.00  0.00    +0.000 N 
ATOM     27  C   UNL     1      -1.001  10.720  23.045  0.00  0.00    +0.000 C 
ENDBRANCH  19  26
ENDBRANCH  18  22
ENDBRANCH  16  18
ENDBRANCH   1  16
BRANCH   6  28
ATOM     28  O   UNL     1       5.850   3.232  15.479  0.00  0.00    +0.000 OA
ATOM     29  H   UNL     1       4.934   2.968  15.307  0.00  0.00    +0.000 HD
ENDBRANCH   6  28
BRANCH  11  30
ATOM     30  O   UNL     1       2.943   0.997  19.180  0.00  0.00    +0.000 OA
ATOM     31  H   UNL     1       3.295   1.012  18.259  0.00  0.00    +0.000 HD
ENDBRANCH  11  30
TORSDOF 6
ENDMDL
MODEL 8
REMARK VINA RESULT:      -8.4      1.632      1.992
REMARK  Name = 
REMARK  8 active torsions:
REMARK  status: ('A' for Active; 'I' for Inactive)
REMARK    1  A    between atoms: C_1  and  N_2
REMARK    2  A    between atoms: N_2  and  C_3
REMARK    3  A    between atoms: N_2  and  C_4
REMARK    4  A    between atoms: C_7  and  C_8
REMARK    5  A    between atoms: C_8  and  C_9
REMARK    6  A    between atoms: C_9  and  C_11
REMARK    7  A    between atoms: C_16  and  O_17
REMARK    8  A    between atoms: C_22  and  O_23
REMARK                            x       y       z     vdW  Elec       q    Type
REMARK                         _______ _______ _______ _____ _____    ______ ____
ROOT
ATOM      1  C   UNL     1       2.877   5.761  17.609  0.00  0.00    +0.000 C 
ATOM      2  C   UNL     1       2.438   4.497  18.340  0.00  0.00    +0.000 A 
ATOM      3  C   UNL     1       1.149   3.981  18.166  0.00  0.00    +0.000 A 
ATOM      4  C   UNL     1       0.673   2.978  19.014  0.00  0.00    +0.000 A 
ATOM      5  C   UNL     1       1.452   2.536  20.083  0.00  0.00    +0.000 A 
ATOM      6  C   UNL     1       2.749   3.008  20.235  0.00  0.00    +0.000 A 
ATOM      7  C   UNL     1       3.284   3.909  19.298  0.00  0.00    +0.000 A 
ATOM      8  C   UNL     1       4.734   4.193  19.219  0.00  0.00    +0.000 C 
ATOM      9  O   UNL     1       5.547   3.675  19.991  0.00  0.00    +0.000 OA
ATOM     10  C   UNL     1       5.254   5.052  18.133  0.00  0.00    +0.000 A 
ATOM     11  C   UNL     1       6.624   5.067  17.850  0.00  0.00    +0.000 A 
ATOM     12  C   UNL     1       7.148   5.990  16.954  0.00  0.00    +0.000 A 
ATOM     13  C   UNL     1       6.298   6.883  16.309  0.00  0.00    +0.000 A 
ATOM     14  C   UNL     1       4.916   6.806  16.510  0.00  0.00    +0.000 A 
ATOM     15  C   UNL     1       4.372   5.873  17.415  0.00  0.00    +0.000 A 
ENDROOT
BRANCH   1  16
ATOM     16  C   UNL     1       2.302   7.019  18.290  0.00  0.00    +0.000 C 
ATOM     17  O   UNL     1       1.928   7.975  17.610  0.00  0.00    +0.000 OA
BRANCH  16  18
ATOM     18  C   UNL     1       2.232   7.017  19.817  0.00  0.00    +0.000 C 
BRANCH  18  22
ATOM     19  C   UNL     1       0.226  10.426  21.681  0.00  0.00    +0.000 A 
ATOM     20  C   UNL     1       0.646   9.311  22.423  0.00  0.00    +0.000 A 
ATOM     21  C   UNL     1       1.255   8.198  21.822  0.00  0.00    +0.000 A 
ATOM     22  C   UNL     1       1.500   8.174  20.449  0.00  0.00    +0.000 A 
ATOM     23  C   UNL     1       1.086   9.266  19.686  0.00  0.00    +0.000 A 
ATOM     24  C   UNL     1       0.467  10.369  20.296  0.00  0.00    +0.000 A 
BRANCH  19  26
ATOM     25  C   UNL     1      -1.605  11.401  23.026  0.00  0.00    +0.000 C 
ATOM     26  N   UNL     1      -0.363  11.549  22.274  0.00  0.00    +0.000 N 
ATOM     27  C   UNL     1      -0.147  12.842  21.631  0.00  0.00    +0.000 C 
ENDBRANCH  19  26
ENDBRANCH  18  22
ENDBRANCH  16  18
ENDBRANCH   1  16
BRANCH   6  28
ATOM     28  O   UNL     1       3.480   2.614  21.308  0.00  0.00    +0.000 OA
ATOM     29  H   UNL     1       3.566   3.344  21.939  0.00  0.00    +0.000 HD
ENDBRANCH   6  28
BRANCH  11  30
ATOM     30  O   UNL     1       7.512   4.182  18.404  0.00  0.00    +0.000 OA
ATOM     31  H   UNL     1       8.295   4.700  18.703  0.00  0.00    +0.000 HD
ENDBRANCH  11  30
TORSDOF 6
ENDMDL
MODEL 9
REMARK VINA RESULT:      -8.4      4.763      9.240
REMARK  Name = 
REMARK  8 active torsions:
REMARK  status: ('A' for Active; 'I' for Inactive)
REMARK    1  A    between atoms: C_1  and  N_2
REMARK    2  A    between atoms: N_2  and  C_3
REMARK    3  A    between atoms: N_2  and  C_4
REMARK    4  A    between atoms: C_7  and  C_8
REMARK    5  A    between atoms: C_8  and  C_9
REMARK    6  A    between atoms: C_9  and  C_11
REMARK    7  A    between atoms: C_16  and  O_17
REMARK    8  A    between atoms: C_22  and  O_23
REMARK                            x       y       z     vdW  Elec       q    Type
REMARK                         _______ _______ _______ _____ _____    ______ ____
ROOT
ATOM      1  C   UNL     1      -1.200  11.237  19.368  0.00  0.00    +0.000 C 
ATOM      2  C   UNL     1      -2.278  10.905  18.342  0.00  0.00    +0.000 A 
ATOM      3  C   UNL     1      -2.047   9.950  17.345  0.00  0.00    +0.000 A 
ATOM      4  C   UNL     1      -2.931   9.826  16.270  0.00  0.00    +0.000 A 
ATOM      5  C   UNL     1      -4.009  10.702  16.146  0.00  0.00    +0.000 A 
ATOM      6  C   UNL     1      -4.273  11.621  17.153  0.00  0.00    +0.000 A 
ATOM      7  C   UNL     1      -3.470  11.650  18.307  0.00  0.00    +0.000 A 
ATOM      8  C   UNL     1      -3.882  12.367  19.534  0.00  0.00    +0.000 C 
ATOM      9  O   UNL     1      -4.941  12.999  19.600  0.00  0.00    +0.000 OA
ATOM     10  C   UNL     1      -3.059  12.259  20.757  0.00  0.00    +0.000 A 
ATOM     11  C   UNL     1      -3.588  12.648  21.992  0.00  0.00    +0.000 A 
ATOM     12  C   UNL     1      -2.776  12.714  23.117  0.00  0.00    +0.000 A 
ATOM     13  C   UNL     1      -1.434  12.358  23.020  0.00  0.00    +0.000 A 
ATOM     14  C   UNL     1      -0.923  11.870  21.813  0.00  0.00    +0.000 A 
ATOM     15  C   UNL     1      -1.737  11.797  20.665  0.00  0.00    +0.000 A 
ENDROOT
BRANCH   1  16
ATOM     16  C   UNL     1      -0.125  12.159  18.759  0.00  0.00    +0.000 C 
ATOM     17  O   UNL     1      -0.451  13.222  18.228  0.00  0.00    +0.000 OA
BRANCH  16  18
ATOM     18  C   UNL     1       1.328  11.691  18.841  0.00  0.00    +0.000 C 
BRANCH  18  22
ATOM     19  C   UNL     1       2.073   7.395  19.167  0.00  0.00    +0.000 A 
ATOM     20  C   UNL     1       2.237   8.091  17.959  0.00  0.00    +0.000 A 
ATOM     21  C   UNL     1       1.961   9.462  17.841  0.00  0.00    +0.000 A 
ATOM     22  C   UNL     1       1.541  10.202  18.947  0.00  0.00    +0.000 A 
ATOM     23  C   UNL     1       1.362   9.534  20.159  0.00  0.00    +0.000 A 
ATOM     24  C   UNL     1       1.629   8.159  20.261  0.00  0.00    +0.000 A 
BRANCH  19  26
ATOM     25  C   UNL     1       2.413   5.185  18.112  0.00  0.00    +0.000 C 
ATOM     26  N   UNL     1       2.365   6.032  19.299  0.00  0.00    +0.000 N 
ATOM     27  C   UNL     1       1.975   5.378  20.545  0.00  0.00    +0.000 C 
ENDBRANCH  19  26
ENDBRANCH  18  22
ENDBRANCH  16  18
ENDBRANCH   1  16
BRANCH   6  28
ATOM     28  O   UNL     1      -5.291  12.505  16.999  0.00  0.00    +0.000 OA
ATOM     29  H   UNL     1      -5.997  12.312  17.634  0.00  0.00    +0.000 HD
ENDBRANCH   6  28
BRANCH  11  30
ATOM     30  O   UNL     1      -4.910  12.958  22.175  0.00  0.00    +0.000 OA
ATOM     31  H   UNL     1      -5.377  12.124  22.417  0.00  0.00    +0.000 HD
ENDBRANCH  11  30
TORSDOF 6
ENDMDL
