MODEL 1
REMARK VINA RESULT:      -8.0      0.000      0.000
REMARK  Name = 
REMARK  7 active torsions:
REMARK  status: ('A' for Active; 'I' for Inactive)
REMARK    1  A    between atoms: C_1  and  C_2
REMARK    2  A    between atoms: N_4  and  C_5
REMARK    3  A    between atoms: C_5  and  C_6
REMARK    4  A    between atoms: N_8  and  C_9
REMARK    5  A    between atoms: C_12  and  N_13
REMARK    6  A    between atoms: C_15  and  C_16
REMARK    7  A    between atoms: N_17  and  O_18
REMARK                            x       y       z     vdW  Elec       q    Type
REMARK                         _______ _______ _______ _____ _____    ______ ____
ROOT
ATOM      1  C   UNL     1       3.053   6.916  18.530  0.00  0.00    +0.000 A 
ATOM      2  C   UNL     1       2.790   7.985  17.664  0.00  0.00    +0.000 A 
ATOM      3  C   UNL     1       1.941   9.036  18.037  0.00  0.00    +0.000 A 
ATOM      4  C   UNL     1       1.352   9.046  19.306  0.00  0.00    +0.000 A 
ATOM      5  C   UNL     1       1.608   7.980  20.168  0.00  0.00    +0.000 A 
ATOM      6  F   UNL     1       1.087   7.922  21.400  0.00  0.00    +0.000 F 
ATOM      7  C   UNL     1       2.431   6.919  19.781  0.00  0.00    +0.000 A 
ENDROOT
BRANCH   1  10
ATOM      8  C   UNL     1       5.805   4.565  17.863  0.00  0.00    +0.000 C 
ATOM      9  C   UNL     1       5.343   5.995  18.060  0.00  0.00    +0.000 C 
ATOM     10  N   UNL     1       3.919   5.862  18.151  0.00  0.00    +0.000 N 
ATOM     11  C   UNL     1       3.534   4.616  17.687  0.00  0.00    +0.000 C 
ATOM     12  O   UNL     1       2.406   4.187  17.497  0.00  0.00    +0.000 OA
ATOM     13  O   UNL     1       4.641   3.871  17.385  0.00  0.00    +0.000 OA
BRANCH   8  14
ATOM     14  C   UNL     1       6.916   4.440  16.824  0.00  0.00    +0.000 C 
BRANCH  14  18
ATOM     15  C   UNL     1       6.209   3.809  13.158  0.00  0.00    +0.000 C 
ATOM     16  C   UNL     1       6.835   4.468  14.357  0.00  0.00    +0.000 C 
ATOM     17  O   UNL     1       7.615   5.407  14.274  0.00  0.00    +0.000 OA
ATOM     18  N   UNL     1       6.419   3.934  15.556  0.00  0.00    +0.000 N 
ATOM     19  H   UNL     1       5.991   3.016  15.552  0.00  0.00    +0.000 HD
ENDBRANCH  14  18
ENDBRANCH   8  14
ENDBRANCH   1  10
BRANCH   4  20
ATOM     20  N   UNL     1       0.533  10.135  19.687  0.00  0.00    +0.000 N 
ATOM     21  C   UNL     1      -0.692  10.511  19.202  0.00  0.00    +0.000 A 
ATOM     22  C   UNL     1      -1.063  11.601  19.956  0.00  0.00    +0.000 A 
ATOM     23  N   UNL     1      -0.067  11.884  20.845  0.00  0.00    +0.000 NA
ATOM     24  N   UNL     1       0.899  10.992  20.676  0.00  0.00    +0.000 NA
BRANCH  22  25
ATOM     25  C   UNL     1      -2.291  12.348  19.874  0.00  0.00    +0.000 C 
ATOM     26  N   UNL     1      -3.219  11.936  19.073  0.00  0.00    +0.000 NA
BRANCH  26  27
ATOM     27  O   UNL     1      -4.324  12.793  19.161  0.00  0.00    +0.000 OA
ATOM     28  H   UNL     1      -4.053  13.539  18.594  0.00  0.00    +0.000 HD
ENDBRANCH  26  27
ENDBRANCH  22  25
ENDBRANCH   4  20
TORSDOF 6
ENDMDL
MODEL 2
REMARK VINA RESULT:      -7.9      1.762      2.210
REMARK  Name = 
REMARK  7 active torsions:
REMARK  status: ('A' for Active; 'I' for Inactive)
REMARK    1  A    between atoms: C_1  and  C_2
REMARK    2  A    between atoms: N_4  and  C_5
REMARK    3  A    between atoms: C_5  and  C_6
REMARK    4  A    between atoms: N_8  and  C_9
REMARK    5  A    between atoms: C_12  and  N_13
REMARK    6  A    between atoms: C_15  and  C_16
REMARK    7  A    between atoms: N_17  and  O_18
REMARK                            x       y       z     vdW  Elec       q    Type
REMARK                         _______ _______ _______ _____ _____    ______ ____
ROOT
ATOM      1  C   UNL     1       2.847   6.882  18.828  0.00  0.00    +0.000 A 
ATOM      2  C   UNL     1       2.272   6.902  20.105  0.00  0.00    +0.000 A 
ATOM      3  C   UNL     1       1.485   7.979  20.535  0.00  0.00    +0.000 A 
ATOM      4  C   UNL     1       1.238   9.055  19.677  0.00  0.00    +0.000 A 
ATOM      5  C   UNL     1       1.814   9.040  18.407  0.00  0.00    +0.000 A 
ATOM      6  F   UNL     1       1.618  10.030  17.527  0.00  0.00    +0.000 F 
ATOM      7  C   UNL     1       2.623   7.980  17.992  0.00  0.00    +0.000 A 
ENDROOT
BRANCH   1  10
ATOM      8  C   UNL     1       5.401   4.335  18.097  0.00  0.00    +0.000 C 
ATOM      9  C   UNL     1       5.066   5.777  18.420  0.00  0.00    +0.000 C 
ATOM     10  N   UNL     1       3.633   5.787  18.395  0.00  0.00    +0.000 N 
ATOM     11  C   UNL     1       3.168   4.644  17.768  0.00  0.00    +0.000 C 
ATOM     12  O   UNL     1       2.023   4.359  17.452  0.00  0.00    +0.000 OA
ATOM     13  O   UNL     1       4.217   3.822  17.463  0.00  0.00    +0.000 OA
BRANCH   8  14
ATOM     14  C   UNL     1       6.575   4.202  17.132  0.00  0.00    +0.000 C 
BRANCH  14  18
ATOM     15  C   UNL     1       6.093   3.771  13.401  0.00  0.00    +0.000 C 
ATOM     16  C   UNL     1       6.660   4.348  14.669  0.00  0.00    +0.000 C 
ATOM     17  O   UNL     1       7.477   5.260  14.683  0.00  0.00    +0.000 OA
ATOM     18  N   UNL     1       6.147   3.775  15.810  0.00  0.00    +0.000 N 
ATOM     19  H   UNL     1       5.687   2.876  15.733  0.00  0.00    +0.000 HD
ENDBRANCH  14  18
ENDBRANCH   8  14
ENDBRANCH   1  10
BRANCH   4  20
ATOM     20  N   UNL     1       0.405  10.115  20.107  0.00  0.00    +0.000 N 
ATOM     21  C   UNL     1       0.628  11.054  21.081  0.00  0.00    +0.000 A 
ATOM     22  C   UNL     1      -0.477  11.875  21.053  0.00  0.00    +0.000 A 
ATOM     23  N   UNL     1      -1.347  11.416  20.108  0.00  0.00    +0.000 NA
ATOM     24  N   UNL     1      -0.807  10.346  19.538  0.00  0.00    +0.000 NA
BRANCH  22  25
ATOM     25  C   UNL     1      -0.719  13.047  21.853  0.00  0.00    +0.000 C 
ATOM     26  N   UNL     1      -0.505  12.987  23.127  0.00  0.00    +0.000 NA
BRANCH  26  27
ATOM     27  O   UNL     1      -0.788  14.232  23.705  0.00  0.00    +0.000 OA
ATOM     28  H   UNL     1      -1.268  13.979  24.517  0.00  0.00    +0.000 HD
ENDBRANCH  26  27
ENDBRANCH  22  25
ENDBRANCH   4  20
TORSDOF 6
ENDMDL
MODEL 3
REMARK VINA RESULT:      -7.9      0.970      1.352
REMARK  Name = 
REMARK  7 active torsions:
REMARK  status: ('A' for Active; 'I' for Inactive)
REMARK    1  A    between atoms: C_1  and  C_2
REMARK    2  A    between atoms: N_4  and  C_5
REMARK    3  A    between atoms: C_5  and  C_6
REMARK    4  A    between atoms: N_8  and  C_9
REMARK    5  A    between atoms: C_12  and  N_13
REMARK    6  A    between atoms: C_15  and  C_16
REMARK    7  A    between atoms: N_17  and  O_18
REMARK                            x       y       z     vdW  Elec       q    Type
REMARK                         _______ _______ _______ _____ _____    ______ ____
ROOT
ATOM      1  C   UNL     1       2.887   6.925  18.789  0.00  0.00    +0.000 A 
ATOM      2  C   UNL     1       2.258   6.988  20.039  0.00  0.00    +0.000 A 
ATOM      3  C   UNL     1       1.448   8.074  20.395  0.00  0.00    +0.000 A 
ATOM      4  C   UNL     1       1.231   9.116  19.488  0.00  0.00    +0.000 A 
ATOM      5  C   UNL     1       1.861   9.059  18.245  0.00  0.00    +0.000 A 
ATOM      6  F   UNL     1       1.696  10.014  17.321  0.00  0.00    +0.000 F 
ATOM      7  C   UNL     1       2.693   7.990  17.904  0.00  0.00    +0.000 A 
ENDROOT
BRANCH   1  10
ATOM      8  C   UNL     1       5.496   4.390  18.234  0.00  0.00    +0.000 C 
ATOM      9  C   UNL     1       5.131   5.842  18.462  0.00  0.00    +0.000 C 
ATOM     10  N   UNL     1       3.698   5.821  18.431  0.00  0.00    +0.000 N 
ATOM     11  C   UNL     1       3.259   4.631  17.876  0.00  0.00    +0.000 C 
ATOM     12  O   UNL     1       2.122   4.303  17.575  0.00  0.00    +0.000 OA
ATOM     13  O   UNL     1       4.327   3.813  17.629  0.00  0.00    +0.000 OA
BRANCH   8  14
ATOM     14  C   UNL     1       6.678   4.219  17.284  0.00  0.00    +0.000 C 
BRANCH  14  18
ATOM     15  C   UNL     1       6.197   3.919  13.540  0.00  0.00    +0.000 C 
ATOM     16  C   UNL     1       6.762   4.453  14.829  0.00  0.00    +0.000 C 
ATOM     17  O   UNL     1       7.576   5.367  14.875  0.00  0.00    +0.000 OA
ATOM     18  N   UNL     1       6.251   3.838  15.948  0.00  0.00    +0.000 N 
ATOM     19  H   UNL     1       5.795   2.940  15.839  0.00  0.00    +0.000 HD
ENDBRANCH  14  18
ENDBRANCH   8  14
ENDBRANCH   1  10
BRANCH   4  20
ATOM     20  N   UNL     1       0.374  10.184  19.843  0.00  0.00    +0.000 N 
ATOM     21  C   UNL     1      -0.845  10.531  19.322  0.00  0.00    +0.000 A 
ATOM     22  C   UNL     1      -1.263  11.612  20.064  0.00  0.00    +0.000 A 
ATOM     23  N   UNL     1      -0.302  11.919  20.983  0.00  0.00    +0.000 NA
ATOM     24  N   UNL     1       0.690  11.050  20.843  0.00  0.00    +0.000 NA
BRANCH  22  25
ATOM     25  C   UNL     1      -2.506  12.329  19.946  0.00  0.00    +0.000 C 
ATOM     26  N   UNL     1      -3.366  11.944  19.060  0.00  0.00    +0.000 NA
BRANCH  26  27
ATOM     27  O   UNL     1      -4.501  12.763  19.125  0.00  0.00    +0.000 OA
ATOM     28  H   UNL     1      -4.824  12.597  20.031  0.00  0.00    +0.000 HD
ENDBRANCH  26  27
ENDBRANCH  22  25
ENDBRANCH   4  20
TORSDOF 6
ENDMDL
MODEL 4
REMARK VINA RESULT:      -7.8      1.105      1.107
REMARK  Name = 
REMARK  7 active torsions:
REMARK  status: ('A' for Active; 'I' for Inactive)
REMARK    1  A    between atoms: C_1  and  C_2
REMARK    2  A    between atoms: N_4  and  C_5
REMARK    3  A    between atoms: C_5  and  C_6
REMARK    4  A    between atoms: N_8  and  C_9
REMARK    5  A    between atoms: C_12  and  N_13
REMARK    6  A    between atoms: C_15  and  C_16
REMARK    7  A    between atoms: N_17  and  O_18
REMARK                            x       y       z     vdW  Elec       q    Type
REMARK                         _______ _______ _______ _____ _____    ______ ____
ROOT
ATOM      1  C   UNL     1       3.439   6.897  18.724  0.00  0.00    +0.000 A 
ATOM      2  C   UNL     1       3.218   7.792  17.669  0.00  0.00    +0.000 A 
ATOM      3  C   UNL     1       2.210   8.763  17.734  0.00  0.00    +0.000 A 
ATOM      4  C   UNL     1       1.411   8.872  18.877  0.00  0.00    +0.000 A 
ATOM      5  C   UNL     1       1.624   7.978  19.925  0.00  0.00    +0.000 A 
ATOM      6  F   UNL     1       0.906   8.023  21.054  0.00  0.00    +0.000 F 
ATOM      7  C   UNL     1       2.610   6.991  19.846  0.00  0.00    +0.000 A 
ENDROOT
BRANCH   1  10
ATOM      8  C   UNL     1       6.537   4.926  18.485  0.00  0.00    +0.000 C 
ATOM      9  C   UNL     1       5.764   6.173  18.106  0.00  0.00    +0.000 C 
ATOM     10  N   UNL     1       4.464   5.923  18.657  0.00  0.00    +0.000 N 
ATOM     11  C   UNL     1       4.339   4.581  18.972  0.00  0.00    +0.000 C 
ATOM     12  O   UNL     1       3.346   3.974  19.344  0.00  0.00    +0.000 OA
ATOM     13  O   UNL     1       5.526   3.940  18.753  0.00  0.00    +0.000 OA
BRANCH   8  14
ATOM     14  C   UNL     1       7.434   4.421  17.359  0.00  0.00    +0.000 C 
BRANCH  14  18
ATOM     15  C   UNL     1       5.966   3.968  13.899  0.00  0.00    +0.000 C 
ATOM     16  C   UNL     1       6.855   4.551  14.964  0.00  0.00    +0.000 C 
ATOM     17  O   UNL     1       7.648   5.459  14.750  0.00  0.00    +0.000 OA
ATOM     18  N   UNL     1       6.665   3.988  16.205  0.00  0.00    +0.000 N 
ATOM     19  H   UNL     1       6.200   3.090  16.261  0.00  0.00    +0.000 HD
ENDBRANCH  14  18
ENDBRANCH   8  14
ENDBRANCH   1  10
BRANCH   4  20
ATOM     20  N   UNL     1       0.427   9.885  18.947  0.00  0.00    +0.000 N 
ATOM     21  C   UNL     1      -0.767   9.984  18.281  0.00  0.00    +0.000 A 
ATOM     22  C   UNL     1      -1.355  11.134  18.757  0.00  0.00    +0.000 A 
ATOM     23  N   UNL     1      -0.516  11.720  19.661  0.00  0.00    +0.000 NA
ATOM     24  N   UNL     1       0.564  10.958  19.771  0.00  0.00    +0.000 NA
BRANCH  22  25
ATOM     25  C   UNL     1      -2.645  11.669  18.409  0.00  0.00    +0.000 C 
ATOM     26  N   UNL     1      -3.068  11.536  17.194  0.00  0.00    +0.000 NA
BRANCH  26  27
ATOM     27  O   UNL     1      -4.340  12.110  17.078  0.00  0.00    +0.000 OA
ATOM     28  H   UNL     1      -4.130  13.031  16.833  0.00  0.00    +0.000 HD
ENDBRANCH  26  27
ENDBRANCH  22  25
ENDBRANCH   4  20
TORSDOF 6
ENDMDL
MODEL 5
REMARK VINA RESULT:      -7.8      1.472      1.536
REMARK  Name = 
REMARK  7 active torsions:
REMARK  status: ('A' for Active; 'I' for Inactive)
REMARK    1  A    between atoms: C_1  and  C_2
REMARK    2  A    between atoms: N_4  and  C_5
REMARK    3  A    between atoms: C_5  and  C_6
REMARK    4  A    between atoms: N_8  and  C_9
REMARK    5  A    between atoms: C_12  and  N_13
REMARK    6  A    between atoms: C_15  and  C_16
REMARK    7  A    between atoms: N_17  and  O_18
REMARK                            x       y       z     vdW  Elec       q    Type
REMARK                         _______ _______ _______ _____ _____    ______ ____
ROOT
ATOM      1  C   UNL     1       2.805   7.104  18.619  0.00  0.00    +0.000 A 
ATOM      2  C   UNL     1       2.527   8.052  17.626  0.00  0.00    +0.000 A 
ATOM      3  C   UNL     1       1.713   9.162  17.884  0.00  0.00    +0.000 A 
ATOM      4  C   UNL     1       1.176   9.359  19.161  0.00  0.00    +0.000 A 
ATOM      5  C   UNL     1       1.447   8.414  20.150  0.00  0.00    +0.000 A 
ATOM      6  F   UNL     1       0.976   8.536  21.397  0.00  0.00    +0.000 F 
ATOM      7  C   UNL     1       2.234   7.291  19.881  0.00  0.00    +0.000 A 
ENDROOT
BRANCH   1  10
ATOM      8  C   UNL     1       5.453   4.569  18.295  0.00  0.00    +0.000 C 
ATOM      9  C   UNL     1       5.067   6.030  18.414  0.00  0.00    +0.000 C 
ATOM     10  N   UNL     1       3.636   5.988  18.356  0.00  0.00    +0.000 N 
ATOM     11  C   UNL     1       3.222   4.757  17.878  0.00  0.00    +0.000 C 
ATOM     12  O   UNL     1       2.095   4.394  17.578  0.00  0.00    +0.000 OA
ATOM     13  O   UNL     1       4.303   3.937  17.710  0.00  0.00    +0.000 OA
BRANCH   8  14
ATOM     14  C   UNL     1       6.657   4.347  17.384  0.00  0.00    +0.000 C 
BRANCH  14  18
ATOM     15  C   UNL     1       6.202   3.879  13.654  0.00  0.00    +0.000 C 
ATOM     16  C   UNL     1       6.724   4.501  14.921  0.00  0.00    +0.000 C 
ATOM     17  O   UNL     1       7.465   5.475  14.933  0.00  0.00    +0.000 OA
ATOM     18  N   UNL     1       6.261   3.888  16.064  0.00  0.00    +0.000 N 
ATOM     19  H   UNL     1       5.875   2.954  15.988  0.00  0.00    +0.000 HD
ENDBRANCH  14  18
ENDBRANCH   8  14
ENDBRANCH   1  10
BRANCH   4  20
ATOM     20  N   UNL     1       0.393  10.508  19.420  0.00  0.00    +0.000 N 
ATOM     21  C   UNL     1       0.739  11.832  19.342  0.00  0.00    +0.000 A 
ATOM     22  C   UNL     1      -0.409  12.527  19.646  0.00  0.00    +0.000 A 
ATOM     23  N   UNL     1      -1.405  11.637  19.928  0.00  0.00    +0.000 NA
ATOM     24  N   UNL     1      -0.912  10.413  19.791  0.00  0.00    +0.000 NA
BRANCH  22  25
ATOM     25  C   UNL     1      -0.592  13.955  19.662  0.00  0.00    +0.000 C 
ATOM     26  N   UNL     1      -0.403  14.620  18.570  0.00  0.00    +0.000 NA
BRANCH  26  27
ATOM     27  O   UNL     1      -0.648  15.979  18.804  0.00  0.00    +0.000 OA
ATOM     28  H   UNL     1      -1.604  15.987  19.000  0.00  0.00    +0.000 HD
ENDBRANCH  26  27
ENDBRANCH  22  25
ENDBRANCH   4  20
TORSDOF 6
ENDMDL
MODEL 6
REMARK VINA RESULT:      -7.7      1.326      1.401
REMARK  Name = 
REMARK  7 active torsions:
REMARK  status: ('A' for Active; 'I' for Inactive)
REMARK    1  A    between atoms: C_1  and  C_2
REMARK    2  A    between atoms: N_4  and  C_5
REMARK    3  A    between atoms: C_5  and  C_6
REMARK    4  A    between atoms: N_8  and  C_9
REMARK    5  A    between atoms: C_12  and  N_13
REMARK    6  A    between atoms: C_15  and  C_16
REMARK    7  A    between atoms: N_17  and  O_18
REMARK                            x       y       z     vdW  Elec       q    Type
REMARK                         _______ _______ _______ _____ _____    ______ ____
ROOT
ATOM      1  C   UNL     1       3.047   6.862  18.484  0.00  0.00    +0.000 A 
ATOM      2  C   UNL     1       2.767   7.972  17.677  0.00  0.00    +0.000 A 
ATOM      3  C   UNL     1       1.962   9.024  18.136  0.00  0.00    +0.000 A 
ATOM      4  C   UNL     1       1.437   8.993  19.433  0.00  0.00    +0.000 A 
ATOM      5  C   UNL     1       1.710   7.886  20.235  0.00  0.00    +0.000 A 
ATOM      6  F   UNL     1       1.250   7.787  21.488  0.00  0.00    +0.000 F 
ATOM      7  C   UNL     1       2.487   6.825  19.764  0.00  0.00    +0.000 A 
ENDROOT
BRANCH   1  10
ATOM      8  C   UNL     1       5.706   4.482  17.585  0.00  0.00    +0.000 C 
ATOM      9  C   UNL     1       5.289   5.911  17.866  0.00  0.00    +0.000 C 
ATOM     10  N   UNL     1       3.868   5.806  18.019  0.00  0.00    +0.000 N 
ATOM     11  C   UNL     1       3.431   4.591  17.519  0.00  0.00    +0.000 C 
ATOM     12  O   UNL     1       2.286   4.197  17.365  0.00  0.00    +0.000 OA
ATOM     13  O   UNL     1       4.504   3.836  17.133  0.00  0.00    +0.000 OA
BRANCH   8  14
ATOM     14  C   UNL     1       6.764   4.378  16.491  0.00  0.00    +0.000 C 
BRANCH  14  18
ATOM     15  C   UNL     1       5.910   3.606  12.884  0.00  0.00    +0.000 C 
ATOM     16  C   UNL     1       6.573   4.320  14.031  0.00  0.00    +0.000 C 
ATOM     17  O   UNL     1       7.326   5.273  13.881  0.00  0.00    +0.000 OA
ATOM     18  N   UNL     1       6.224   3.818  15.264  0.00  0.00    +0.000 N 
ATOM     19  H   UNL     1       5.818   2.891  15.310  0.00  0.00    +0.000 HD
ENDBRANCH  14  18
ENDBRANCH   8  14
ENDBRANCH   1  10
BRANCH   4  20
ATOM     20  N   UNL     1       0.664  10.082  19.899  0.00  0.00    +0.000 N 
ATOM     21  C   UNL     1      -0.383  10.088  20.783  0.00  0.00    +0.000 A 
ATOM     22  C   UNL     1      -0.735  11.412  20.921  0.00  0.00    +0.000 A 
ATOM     23  N   UNL     1       0.064  12.169  20.115  0.00  0.00    +0.000 NA
ATOM     24  N   UNL     1       0.909  11.356  19.495  0.00  0.00    +0.000 NA
BRANCH  22  25
ATOM     25  C   UNL     1      -1.755  11.964  21.774  0.00  0.00    +0.000 C 
ATOM     26  N   UNL     1      -1.878  11.505  22.976  0.00  0.00    +0.000 NA
BRANCH  26  27
ATOM     27  O   UNL     1      -2.912  12.187  23.631  0.00  0.00    +0.000 OA
ATOM     28  H   UNL     1      -3.707  11.737  23.287  0.00  0.00    +0.000 HD
ENDBRANCH  26  27
ENDBRANCH  22  25
ENDBRANCH   4  20
TORSDOF 6
ENDMDL
MODEL 7
REMARK VINA RESULT:      -7.5      1.347      1.551
REMARK  Name = 
REMARK  7 active torsions:
REMARK  status: ('A' for Active; 'I' for Inactive)
REMARK    1  A    between atoms: C_1  and  C_2
REMARK    2  A    between atoms: N_4  and  C_5
REMARK    3  A    between atoms: C_5  and  C_6
REMARK    4  A    between atoms: N_8  and  C_9
REMARK    5  A    between atoms: C_12  and  N_13
REMARK    6  A    between atoms: C_15  and  C_16
REMARK    7  A    between atoms: N_17  and  O_18
REMARK                            x       y       z     vdW  Elec       q    Type
REMARK                         _______ _______ _______ _____ _____    ______ ____
ROOT
ATOM      1  C   UNL     1       3.577   6.394  17.846  0.00  0.00    +0.000 A 
ATOM      2  C   UNL     1       3.298   7.666  17.329  0.00  0.00    +0.000 A 
ATOM      3  C   UNL     1       2.467   8.565  18.009  0.00  0.00    +0.000 A 
ATOM      4  C   UNL     1       1.912   8.213  19.244  0.00  0.00    +0.000 A 
ATOM      5  C   UNL     1       2.183   6.946  19.758  0.00  0.00    +0.000 A 
ATOM      6  F   UNL     1       1.695   6.539  20.937  0.00  0.00    +0.000 F 
ATOM      7  C   UNL     1       2.988   6.040  19.064  0.00  0.00    +0.000 A 
ENDROOT
BRANCH   1  10
ATOM      8  C   UNL     1       6.272   4.558  16.142  0.00  0.00    +0.000 C 
ATOM      9  C   UNL     1       5.633   5.886  16.495  0.00  0.00    +0.000 C 
ATOM     10  N   UNL     1       4.426   5.493  17.159  0.00  0.00    +0.000 N 
ATOM     11  C   UNL     1       4.164   4.157  16.906  0.00  0.00    +0.000 C 
ATOM     12  O   UNL     1       3.173   3.505  17.197  0.00  0.00    +0.000 OA
ATOM     13  O   UNL     1       5.192   3.612  16.188  0.00  0.00    +0.000 OA
BRANCH   8  14
ATOM     14  C   UNL     1       6.880   4.547  14.743  0.00  0.00    +0.000 C 
BRANCH  14  18
ATOM     15  C   UNL     1       5.644   2.560  11.766  0.00  0.00    +0.000 C 
ATOM     16  C   UNL     1       6.453   3.588  12.509  0.00  0.00    +0.000 C 
ATOM     17  O   UNL     1       7.242   4.345  11.958  0.00  0.00    +0.000 OA
ATOM     18  N   UNL     1       6.194   3.618  13.860  0.00  0.00    +0.000 N 
ATOM     19  H   UNL     1       5.742   2.817  14.282  0.00  0.00    +0.000 HD
ENDBRANCH  14  18
ENDBRANCH   8  14
ENDBRANCH   1  10
BRANCH   4  20
ATOM     20  N   UNL     1       1.110   9.147  19.941  0.00  0.00    +0.000 N 
ATOM     21  C   UNL     1       0.229  10.074  19.449  0.00  0.00    +0.000 A 
ATOM     22  C   UNL     1      -0.317  10.681  20.557  0.00  0.00    +0.000 A 
ATOM     23  N   UNL     1       0.250  10.149  21.679  0.00  0.00    +0.000 NA
ATOM     24  N   UNL     1       1.116   9.220  21.299  0.00  0.00    +0.000 NA
BRANCH  22  25
ATOM     25  C   UNL     1      -1.333  11.701  20.587  0.00  0.00    +0.000 C 
ATOM     26  N   UNL     1      -1.538  12.408  19.524  0.00  0.00    +0.000 NA
BRANCH  26  27
ATOM     27  O   UNL     1      -2.571  13.323  19.767  0.00  0.00    +0.000 OA
ATOM     28  H   UNL     1      -3.129  12.841  20.406  0.00  0.00    +0.000 HD
ENDBRANCH  26  27
ENDBRANCH  22  25
ENDBRANCH   4  20
TORSDOF 6
ENDMDL
MODEL 8
REMARK VINA RESULT:      -7.5      1.904      2.152
REMARK  Name = 
REMARK  7 active torsions:
REMARK  status: ('A' for Active; 'I' for Inactive)
REMARK    1  A    between atoms: C_1  and  C_2
REMARK    2  A    between atoms: N_4  and  C_5
REMARK    3  A    between atoms: C_5  and  C_6
REMARK    4  A    between atoms: N_8  and  C_9
REMARK    5  A    between atoms: C_12  and  N_13
REMARK    6  A    between atoms: C_15  and  C_16
REMARK    7  A    between atoms: N_17  and  O_18
REMARK                            x       y       z     vdW  Elec       q    Type
REMARK                         _______ _______ _______ _____ _____    ______ ____
ROOT
ATOM      1  C   UNL     1       3.667   6.373  17.867  0.00  0.00    +0.000 A 
ATOM      2  C   UNL     1       3.375   7.633  17.327  0.00  0.00    +0.000 A 
ATOM      3  C   UNL     1       2.493   8.515  17.965  0.00  0.00    +0.000 A 
ATOM      4  C   UNL     1       1.899   8.159  19.181  0.00  0.00    +0.000 A 
ATOM      5  C   UNL     1       2.183   6.903  19.717  0.00  0.00    +0.000 A 
ATOM      6  F   UNL     1       1.660   6.493  20.879  0.00  0.00    +0.000 F 
ATOM      7  C   UNL     1       3.039   6.013  19.063  0.00  0.00    +0.000 A 
ENDROOT
BRANCH   1  10
ATOM      8  C   UNL     1       6.453   4.622  16.222  0.00  0.00    +0.000 C 
ATOM      9  C   UNL     1       5.722   5.921  16.495  0.00  0.00    +0.000 C 
ATOM     10  N   UNL     1       4.565   5.489  17.223  0.00  0.00    +0.000 N 
ATOM     11  C   UNL     1       4.401   4.123  17.075  0.00  0.00    +0.000 C 
ATOM     12  O   UNL     1       3.471   3.421  17.443  0.00  0.00    +0.000 OA
ATOM     13  O   UNL     1       5.450   3.603  16.368  0.00  0.00    +0.000 OA
BRANCH   8  14
ATOM     14  C   UNL     1       7.026   4.552  14.810  0.00  0.00    +0.000 C 
BRANCH  14  18
ATOM     15  C   UNL     1       5.535   2.694  11.866  0.00  0.00    +0.000 C 
ATOM     16  C   UNL     1       6.451   3.646  12.587  0.00  0.00    +0.000 C 
ATOM     17  O   UNL     1       7.285   4.336  12.014  0.00  0.00    +0.000 OA
ATOM     18  N   UNL     1       6.237   3.690  13.946  0.00  0.00    +0.000 N 
ATOM     19  H   UNL     1       5.731   2.928  14.379  0.00  0.00    +0.000 HD
ENDBRANCH  14  18
ENDBRANCH   8  14
ENDBRANCH   1  10
BRANCH   4  20
ATOM     20  N   UNL     1       1.046   9.076  19.837  0.00  0.00    +0.000 N 
ATOM     21  C   UNL     1       0.976   9.400  21.167  0.00  0.00    +0.000 A 
ATOM     22  C   UNL     1       0.015  10.380  21.253  0.00  0.00    +0.000 A 
ATOM     23  N   UNL     1      -0.495  10.612  20.009  0.00  0.00    +0.000 NA
ATOM     24  N   UNL     1       0.134   9.816  19.153  0.00  0.00    +0.000 NA
BRANCH  22  25
ATOM     25  C   UNL     1      -0.411  11.091  22.430  0.00  0.00    +0.000 C 
ATOM     26  N   UNL     1      -0.743  12.336  22.321  0.00  0.00    +0.000 NA
BRANCH  26  27
ATOM     27  O   UNL     1      -1.136  12.825  23.573  0.00  0.00    +0.000 OA
ATOM     28  H   UNL     1      -2.073  12.557  23.616  0.00  0.00    +0.000 HD
ENDBRANCH  26  27
ENDBRANCH  22  25
ENDBRANCH   4  20
TORSDOF 6
ENDMDL
MODEL 9
REMARK VINA RESULT:      -7.4      1.363      1.469
REMARK  Name = 
REMARK  7 active torsions:
REMARK  status: ('A' for Active; 'I' for Inactive)
REMARK    1  A    between atoms: C_1  and  C_2
REMARK    2  A    between atoms: N_4  and  C_5
REMARK    3  A    between atoms: C_5  and  C_6
REMARK    4  A    between atoms: N_8  and  C_9
REMARK    5  A    between atoms: C_12  and  N_13
REMARK    6  A    between atoms: C_15  and  C_16
REMARK    7  A    between atoms: N_17  and  O_18
REMARK                            x       y       z     vdW  Elec       q    Type
REMARK                         _______ _______ _______ _____ _____    ______ ____
ROOT
ATOM      1  C   UNL     1       2.311   7.030  19.336  0.00  0.00    +0.000 A 
ATOM      2  C   UNL     1       2.140   8.097  18.445  0.00  0.00    +0.000 A 
ATOM      3  C   UNL     1       1.464   9.264  18.824  0.00  0.00    +0.000 A 
ATOM      4  C   UNL     1       0.964   9.396  20.124  0.00  0.00    +0.000 A 
ATOM      5  C   UNL     1       1.128   8.332  21.011  0.00  0.00    +0.000 A 
ATOM      6  F   UNL     1       0.684   8.385  22.273  0.00  0.00    +0.000 F 
ATOM      7  C   UNL     1       1.775   7.157  20.621  0.00  0.00    +0.000 A 
ENDROOT
BRANCH   1  10
ATOM      8  C   UNL     1       4.578   4.177  18.825  0.00  0.00    +0.000 C 
ATOM      9  C   UNL     1       4.395   5.632  19.203  0.00  0.00    +0.000 C 
ATOM     10  N   UNL     1       3.002   5.856  18.950  0.00  0.00    +0.000 N 
ATOM     11  C   UNL     1       2.498   4.831  18.168  0.00  0.00    +0.000 C 
ATOM     12  O   UNL     1       1.394   4.737  17.652  0.00  0.00    +0.000 OA
ATOM     13  O   UNL     1       3.461   3.880  17.972  0.00  0.00    +0.000 OA
BRANCH   8  14
ATOM     14  C   UNL     1       5.870   3.924  18.053  0.00  0.00    +0.000 C 
BRANCH  14  18
ATOM     15  C   UNL     1       6.267   4.212  14.299  0.00  0.00    +0.000 C 
ATOM     16  C   UNL     1       6.685   4.233  15.744  0.00  0.00    +0.000 C 
ATOM     17  O   UNL     1       7.822   4.502  16.108  0.00  0.00    +0.000 OA
ATOM     18  N   UNL     1       5.658   3.952  16.616  0.00  0.00    +0.000 N 
ATOM     19  H   UNL     1       4.831   3.492  16.255  0.00  0.00    +0.000 HD
ENDBRANCH  14  18
ENDBRANCH   8  14
ENDBRANCH   1  10
BRANCH   4  20
ATOM     20  N   UNL     1       0.323  10.597  20.508  0.00  0.00    +0.000 N 
ATOM     21  C   UNL     1      -0.832  11.157  20.029  0.00  0.00    +0.000 A 
ATOM     22  C   UNL     1      -1.027  12.291  20.783  0.00  0.00    +0.000 A 
ATOM     23  N   UNL     1       0.005  12.418  21.668  0.00  0.00    +0.000 NA
ATOM     24  N   UNL     1       0.822  11.388  21.495  0.00  0.00    +0.000 NA
BRANCH  22  25
ATOM     25  C   UNL     1      -2.126  13.217  20.708  0.00  0.00    +0.000 C 
ATOM     26  N   UNL     1      -1.876  14.465  20.474  0.00  0.00    +0.000 NA
BRANCH  26  27
ATOM     27  O   UNL     1      -3.080  15.180  20.427  0.00  0.00    +0.000 OA
ATOM     28  H   UNL     1      -3.109  15.594  21.311  0.00  0.00    +0.000 HD
ENDBRANCH  26  27
ENDBRANCH  22  25
ENDBRANCH   4  20
TORSDOF 6
ENDMDL
