MODEL 1
REMARK VINA RESULT:      -6.0      0.000      0.000
REMARK  Name = 
REMARK  3 active torsions:
REMARK  status: ('A' for Active; 'I' for Inactive)
REMARK    1  A    between atoms: C_2  and  C_3
REMARK    2  A    between atoms: C_3  and  C_4
REMARK    3  A    between atoms: C_10  and  C_11
REMARK                            x       y       z     vdW  Elec       q    Type
REMARK                         _______ _______ _______ _____ _____    ______ ____
ROOT
ATOM      1  C   UNL     1       4.019   4.079  17.764  0.00  0.00    +0.000 C 
ATOM      2  C   UNL     1       5.060   4.622  18.714  0.00  0.00    +0.000 C 
ATOM      3  C   UNL     1       6.348   4.807  18.393  0.00  0.00    +0.000 C 
ATOM      4  C   UNL     1       6.841   4.477  17.034  0.00  0.00    +0.000 C 
ATOM      5  O   UNL     1       8.043   4.489  16.802  0.00  0.00    +0.000 OA
ATOM      6  C   UNL     1       5.825   4.157  15.997  0.00  0.00    +0.000 C 
ATOM      7  C   UNL     1       4.542   3.972  16.353  0.00  0.00    +0.000 C 
ENDROOT
BRANCH   1   9
ATOM      8  C   UNL     1       3.540   1.423  18.594  0.00  0.00    +0.000 C 
ATOM      9  C   UNL     1       3.761   2.649  18.211  0.00  0.00    +0.000 C 
ENDBRANCH   1   9
BRANCH   1  10
ATOM     10  C   UNL     1       2.804   4.973  17.782  0.00  0.00    +0.000 C 
ATOM     11  C   UNL     1       1.540   4.530  17.758  0.00  0.00    +0.000 C 
ENDBRANCH   1  10
BRANCH   6  12
ATOM     12  C   UNL     1       6.221   4.073  14.631  0.00  0.00    +0.000 C 
ATOM     13  N   UNL     1       6.531   4.093  13.518  0.00  0.00    +0.000 NA
ENDBRANCH   6  12
TORSDOF 3
ENDMDL
MODEL 2
REMARK VINA RESULT:      -5.9      1.470      1.801
REMARK  Name = 
REMARK  3 active torsions:
REMARK  status: ('A' for Active; 'I' for Inactive)
REMARK    1  A    between atoms: C_2  and  C_3
REMARK    2  A    between atoms: C_3  and  C_4
REMARK    3  A    between atoms: C_10  and  C_11
REMARK                            x       y       z     vdW  Elec       q    Type
REMARK                         _______ _______ _______ _____ _____    ______ ____
ROOT
ATOM      1  C   UNL     1       4.294   5.782  17.629  0.00  0.00    +0.000 C 
ATOM      2  C   UNL     1       5.109   5.516  18.872  0.00  0.00    +0.000 C 
ATOM      3  C   UNL     1       6.365   5.051  18.863  0.00  0.00    +0.000 C 
ATOM      4  C   UNL     1       7.052   4.759  17.582  0.00  0.00    +0.000 C 
ATOM      5  O   UNL     1       8.130   4.177  17.586  0.00  0.00    +0.000 OA
ATOM      6  C   UNL     1       6.388   5.211  16.331  0.00  0.00    +0.000 C 
ATOM      7  C   UNL     1       5.124   5.669  16.374  0.00  0.00    +0.000 C 
ENDROOT
BRANCH   1   9
ATOM      8  C   UNL     1       2.418   3.677  17.483  0.00  0.00    +0.000 C 
ATOM      9  C   UNL     1       3.284   4.649  17.550  0.00  0.00    +0.000 C 
ENDBRANCH   1   9
BRANCH   1  10
ATOM     10  C   UNL     1       3.688   7.161  17.706  0.00  0.00    +0.000 C 
ATOM     11  C   UNL     1       2.460   7.421  18.174  0.00  0.00    +0.000 C 
ENDBRANCH   1  10
BRANCH   6  12
ATOM     12  C   UNL     1       7.108   5.176  15.103  0.00  0.00    +0.000 C 
ATOM     13  N   UNL     1       7.629   5.201  14.072  0.00  0.00    +0.000 NA
ENDBRANCH   6  12
TORSDOF 3
ENDMDL
MODEL 3
REMARK VINA RESULT:      -5.8      4.233      5.663
REMARK  Name = 
REMARK  3 active torsions:
REMARK  status: ('A' for Active; 'I' for Inactive)
REMARK    1  A    between atoms: C_2  and  C_3
REMARK    2  A    between atoms: C_3  and  C_4
REMARK    3  A    between atoms: C_10  and  C_11
REMARK                            x       y       z     vdW  Elec       q    Type
REMARK                         _______ _______ _______ _____ _____    ______ ____
ROOT
ATOM      1  C   UNL     1       2.911   5.718  19.208  0.00  0.00    +0.000 C 
ATOM      2  C   UNL     1       2.267   5.282  17.914  0.00  0.00    +0.000 C 
ATOM      3  C   UNL     1       1.589   4.137  17.759  0.00  0.00    +0.000 C 
ATOM      4  C   UNL     1       1.426   3.198  18.895  0.00  0.00    +0.000 C 
ATOM      5  O   UNL     1       0.956   2.084  18.703  0.00  0.00    +0.000 OA
ATOM      6  C   UNL     1       1.840   3.675  20.241  0.00  0.00    +0.000 C 
ATOM      7  C   UNL     1       2.524   4.826  20.361  0.00  0.00    +0.000 C 
ENDROOT
BRANCH   1   9
ATOM      8  C   UNL     1       5.684   5.325  18.850  0.00  0.00    +0.000 C 
ATOM      9  C   UNL     1       4.404   5.507  19.015  0.00  0.00    +0.000 C 
ENDBRANCH   1   9
BRANCH   1  10
ATOM     10  C   UNL     1       2.512   7.139  19.518  0.00  0.00    +0.000 C 
ATOM     11  C   UNL     1       2.238   8.067  18.591  0.00  0.00    +0.000 C 
ENDBRANCH   1  10
BRANCH   6  12
ATOM     12  C   UNL     1       1.485   2.915  21.393  0.00  0.00    +0.000 C 
ATOM     13  N   UNL     1       1.247   2.357  22.376  0.00  0.00    +0.000 NA
ENDBRANCH   6  12
TORSDOF 3
ENDMDL
MODEL 4
REMARK VINA RESULT:      -5.7      2.419      3.839
REMARK  Name = 
REMARK  3 active torsions:
REMARK  status: ('A' for Active; 'I' for Inactive)
REMARK    1  A    between atoms: C_2  and  C_3
REMARK    2  A    between atoms: C_3  and  C_4
REMARK    3  A    between atoms: C_10  and  C_11
REMARK                            x       y       z     vdW  Elec       q    Type
REMARK                         _______ _______ _______ _____ _____    ______ ____
ROOT
ATOM      1  C   UNL     1       2.697   5.710  18.970  0.00  0.00    +0.000 C 
ATOM      2  C   UNL     1       2.179   4.715  17.960  0.00  0.00    +0.000 C 
ATOM      3  C   UNL     1       2.961   3.992  17.147  0.00  0.00    +0.000 C 
ATOM      4  C   UNL     1       4.437   4.135  17.197  0.00  0.00    +0.000 C 
ATOM      5  O   UNL     1       5.130   3.602  16.340  0.00  0.00    +0.000 OA
ATOM      6  C   UNL     1       5.009   4.925  18.318  0.00  0.00    +0.000 C 
ATOM      7  C   UNL     1       4.197   5.645  19.113  0.00  0.00    +0.000 C 
ENDROOT
BRANCH   1   9
ATOM      8  C   UNL     1       2.155   8.258  17.878  0.00  0.00    +0.000 C 
ATOM      9  C   UNL     1       2.405   7.081  18.382  0.00  0.00    +0.000 C 
ENDBRANCH   1   9
BRANCH   1  10
ATOM     10  C   UNL     1       2.054   5.451  20.310  0.00  0.00    +0.000 C 
ATOM     11  C   UNL     1       1.321   4.369  20.600  0.00  0.00    +0.000 C 
ENDBRANCH   1  10
BRANCH   6  12
ATOM     12  C   UNL     1       6.415   4.893  18.552  0.00  0.00    +0.000 C 
ATOM     13  N   UNL     1       7.553   4.783  18.710  0.00  0.00    +0.000 NA
ENDBRANCH   6  12
TORSDOF 3
ENDMDL
MODEL 5
REMARK VINA RESULT:      -5.7      3.052      4.778
REMARK  Name = 
REMARK  3 active torsions:
REMARK  status: ('A' for Active; 'I' for Inactive)
REMARK    1  A    between atoms: C_2  and  C_3
REMARK    2  A    between atoms: C_3  and  C_4
REMARK    3  A    between atoms: C_10  and  C_11
REMARK                            x       y       z     vdW  Elec       q    Type
REMARK                         _______ _______ _______ _____ _____    ______ ____
ROOT
ATOM      1  C   UNL     1       6.406   5.903  17.314  0.00  0.00    +0.000 C 
ATOM      2  C   UNL     1       5.187   6.775  17.128  0.00  0.00    +0.000 C 
ATOM      3  C   UNL     1       3.954   6.441  17.533  0.00  0.00    +0.000 C 
ATOM      4  C   UNL     1       3.709   5.146  18.213  0.00  0.00    +0.000 C 
ATOM      5  O   UNL     1       2.561   4.776  18.426  0.00  0.00    +0.000 OA
ATOM      6  C   UNL     1       4.898   4.353  18.623  0.00  0.00    +0.000 C 
ATOM      7  C   UNL     1       6.121   4.712  18.195  0.00  0.00    +0.000 C 
ENDROOT
BRANCH   1   9
ATOM      8  C   UNL     1       6.974   4.833  14.763  0.00  0.00    +0.000 C 
ATOM      9  C   UNL     1       6.712   5.327  15.941  0.00  0.00    +0.000 C 
ENDBRANCH   1   9
BRANCH   1  10
ATOM     10  C   UNL     1       7.523   6.717  17.918  0.00  0.00    +0.000 C 
ATOM     11  C   UNL     1       7.783   7.993  17.604  0.00  0.00    +0.000 C 
ENDBRANCH   1  10
BRANCH   6  12
ATOM     12  C   UNL     1       4.729   3.232  19.487  0.00  0.00    +0.000 C 
ATOM     13  N   UNL     1       4.585   2.273  20.113  0.00  0.00    +0.000 NA
ENDBRANCH   6  12
TORSDOF 3
ENDMDL
MODEL 6
REMARK VINA RESULT:      -5.6      1.483      1.604
REMARK  Name = 
REMARK  3 active torsions:
REMARK  status: ('A' for Active; 'I' for Inactive)
REMARK    1  A    between atoms: C_2  and  C_3
REMARK    2  A    between atoms: C_3  and  C_4
REMARK    3  A    between atoms: C_10  and  C_11
REMARK                            x       y       z     vdW  Elec       q    Type
REMARK                         _______ _______ _______ _____ _____    ______ ____
ROOT
ATOM      1  C   UNL     1       3.391   4.219  17.863  0.00  0.00    +0.000 C 
ATOM      2  C   UNL     1       3.615   5.656  18.271  0.00  0.00    +0.000 C 
ATOM      3  C   UNL     1       4.533   6.460  17.720  0.00  0.00    +0.000 C 
ATOM      4  C   UNL     1       5.415   5.966  16.636  0.00  0.00    +0.000 C 
ATOM      5  O   UNL     1       6.359   6.650  16.258  0.00  0.00    +0.000 OA
ATOM      6  C   UNL     1       5.092   4.643  16.040  0.00  0.00    +0.000 C 
ATOM      7  C   UNL     1       4.169   3.857  16.621  0.00  0.00    +0.000 C 
ENDROOT
BRANCH   1   9
ATOM      8  C   UNL     1       4.507   2.655  19.932  0.00  0.00    +0.000 C 
ATOM      9  C   UNL     1       3.992   3.377  18.977  0.00  0.00    +0.000 C 
ENDBRANCH   1   9
BRANCH   1  10
ATOM     10  C   UNL     1       1.921   3.985  17.620  0.00  0.00    +0.000 C 
ATOM     11  C   UNL     1       1.136   3.234  18.402  0.00  0.00    +0.000 C 
ENDBRANCH   1  10
BRANCH   6  12
ATOM     12  C   UNL     1       5.749   4.233  14.845  0.00  0.00    +0.000 C 
ATOM     13  N   UNL     1       6.360   3.923  13.914  0.00  0.00    +0.000 NA
ENDBRANCH   6  12
TORSDOF 3
ENDMDL
MODEL 7
REMARK VINA RESULT:      -5.5      2.393      3.606
REMARK  Name = 
REMARK  3 active torsions:
REMARK  status: ('A' for Active; 'I' for Inactive)
REMARK    1  A    between atoms: C_2  and  C_3
REMARK    2  A    between atoms: C_3  and  C_4
REMARK    3  A    between atoms: C_10  and  C_11
REMARK                            x       y       z     vdW  Elec       q    Type
REMARK                         _______ _______ _______ _____ _____    ______ ____
ROOT
ATOM      1  C   UNL     1       3.674   5.182  18.193  0.00  0.00    +0.000 C 
ATOM      2  C   UNL     1       4.043   4.663  16.824  0.00  0.00    +0.000 C 
ATOM      3  C   UNL     1       5.302   4.530  16.384  0.00  0.00    +0.000 C 
ATOM      4  C   UNL     1       6.447   4.898  17.251  0.00  0.00    +0.000 C 
ATOM      5  O   UNL     1       7.578   4.934  16.785  0.00  0.00    +0.000 OA
ATOM      6  C   UNL     1       6.155   5.197  18.678  0.00  0.00    +0.000 C 
ATOM      7  C   UNL     1       4.881   5.330  19.086  0.00  0.00    +0.000 C 
ENDROOT
BRANCH   1   9
ATOM      8  C   UNL     1       2.715   7.806  17.781  0.00  0.00    +0.000 C 
ATOM      9  C   UNL     1       3.158   6.594  17.971  0.00  0.00    +0.000 C 
ENDBRANCH   1   9
BRANCH   1  10
ATOM     10  C   UNL     1       2.685   4.245  18.839  0.00  0.00    +0.000 C 
ATOM     11  C   UNL     1       1.502   3.911  18.307  0.00  0.00    +0.000 C 
ENDBRANCH   1  10
BRANCH   6  12
ATOM     12  C   UNL     1       7.232   5.317  19.603  0.00  0.00    +0.000 C 
ATOM     13  N   UNL     1       8.061   5.357  20.407  0.00  0.00    +0.000 NA
ENDBRANCH   6  12
TORSDOF 3
ENDMDL
MODEL 8
REMARK VINA RESULT:      -5.5      2.624      3.923
REMARK  Name = 
REMARK  3 active torsions:
REMARK  status: ('A' for Active; 'I' for Inactive)
REMARK    1  A    between atoms: C_2  and  C_3
REMARK    2  A    between atoms: C_3  and  C_4
REMARK    3  A    between atoms: C_10  and  C_11
REMARK                            x       y       z     vdW  Elec       q    Type
REMARK                         _______ _______ _______ _____ _____    ______ ____
ROOT
ATOM      1  C   UNL     1       2.659   5.002  19.806  0.00  0.00    +0.000 C 
ATOM      2  C   UNL     1       1.930   4.408  18.624  0.00  0.00    +0.000 C 
ATOM      3  C   UNL     1       2.516   4.084  17.464  0.00  0.00    +0.000 C 
ATOM      4  C   UNL     1       3.970   4.299  17.268  0.00  0.00    +0.000 C 
ATOM      5  O   UNL     1       4.463   4.160  16.155  0.00  0.00    +0.000 OA
ATOM      6  C   UNL     1       4.775   4.665  18.463  0.00  0.00    +0.000 C 
ATOM      7  C   UNL     1       4.155   4.991  19.611  0.00  0.00    +0.000 C 
ENDROOT
BRANCH   1   9
ATOM      8  C   UNL     1       1.929   7.729  19.861  0.00  0.00    +0.000 C 
ATOM      9  C   UNL     1       2.266   6.470  19.835  0.00  0.00    +0.000 C 
ENDBRANCH   1   9
BRANCH   1  10
ATOM     10  C   UNL     1       2.310   4.232  21.055  0.00  0.00    +0.000 C 
ATOM     11  C   UNL     1       1.407   3.244  21.106  0.00  0.00    +0.000 C 
ENDBRANCH   1  10
BRANCH   6  12
ATOM     12  C   UNL     1       6.197   4.645  18.384  0.00  0.00    +0.000 C 
ATOM     13  N   UNL     1       7.347   4.541  18.340  0.00  0.00    +0.000 NA
ENDBRANCH   6  12
TORSDOF 3
ENDMDL
MODEL 9
REMARK VINA RESULT:      -5.5      3.418      4.655
REMARK  Name = 
REMARK  3 active torsions:
REMARK  status: ('A' for Active; 'I' for Inactive)
REMARK    1  A    between atoms: C_2  and  C_3
REMARK    2  A    between atoms: C_3  and  C_4
REMARK    3  A    between atoms: C_10  and  C_11
REMARK                            x       y       z     vdW  Elec       q    Type
REMARK                         _______ _______ _______ _____ _____    ______ ____
ROOT
ATOM      1  C   UNL     1       3.092   5.717  18.653  0.00  0.00    +0.000 C 
ATOM      2  C   UNL     1       1.977   5.104  17.842  0.00  0.00    +0.000 C 
ATOM      3  C   UNL     1       1.812   3.786  17.663  0.00  0.00    +0.000 C 
ATOM      4  C   UNL     1       2.754   2.819  18.278  0.00  0.00    +0.000 C 
ATOM      5  O   UNL     1       2.697   1.635  17.973  0.00  0.00    +0.000 OA
ATOM      6  C   UNL     1       3.730   3.349  19.266  0.00  0.00    +0.000 C 
ATOM      7  C   UNL     1       3.875   4.678  19.417  0.00  0.00    +0.000 C 
ENDROOT
BRANCH   1   9
ATOM      8  C   UNL     1       4.904   6.790  16.771  0.00  0.00    +0.000 C 
ATOM      9  C   UNL     1       4.067   6.295  17.640  0.00  0.00    +0.000 C 
ENDBRANCH   1   9
BRANCH   1  10
ATOM     10  C   UNL     1       2.520   6.724  19.620  0.00  0.00    +0.000 C 
ATOM     11  C   UNL     1       1.681   6.421  20.618  0.00  0.00    +0.000 C 
ENDBRANCH   1  10
BRANCH   6  12
ATOM     12  C   UNL     1       4.487   2.440  20.060  0.00  0.00    +0.000 C 
ATOM     13  N   UNL     1       5.133   1.669  20.628  0.00  0.00    +0.000 NA
ENDBRANCH   6  12
TORSDOF 3
ENDMDL
