MODEL 1
REMARK VINA RESULT:      -8.6      0.000      0.000
REMARK  Name = 
REMARK  4 active torsions:
REMARK  status: ('A' for Active; 'I' for Inactive)
REMARK    1  A    between atoms: C_1  and  C_2
REMARK    2  A    between atoms: C_6  and  C_7
REMARK    3  A    between atoms: C_7  and  N_8
REMARK    4  A    between atoms: C_12  and  C_13
REMARK                            x       y       z     vdW  Elec       q    Type
REMARK                         _______ _______ _______ _____ _____    ______ ____
ROOT
ATOM      1  C   UNL     1       7.852   5.134  12.608  0.00  0.00    +0.000 C 
ATOM      2  C   UNL     1       7.181   4.867  13.904  0.00  0.00    +0.000 A 
ATOM      3  C   UNL     1       6.182   3.899  14.203  0.00  0.00    +0.000 A 
ATOM      4  C   UNL     1       5.914   4.068  15.543  0.00  0.00    +0.000 A 
ATOM      5  N   UNL     1       5.095   3.482  16.445  0.00  0.00    +0.000 N 
ATOM      6  C   UNL     1       5.103   3.856  17.792  0.00  0.00    +0.000 A 
ATOM      7  C   UNL     1       5.915   4.836  18.235  0.00  0.00    +0.000 A 
ATOM      8  C   UNL     1       6.813   5.556  17.297  0.00  0.00    +0.000 A 
ATOM      9  O   UNL     1       7.550   6.470  17.645  0.00  0.00    +0.000 OA
ATOM     10  N   UNL     1       6.747   5.088  15.975  0.00  0.00    +0.000 N 
ATOM     11  N   UNL     1       7.513   5.596  14.972  0.00  0.00    +0.000 NA
ATOM     12  H   UNL     1       4.411   2.768  16.194  0.00  0.00    +0.000 HD
ENDROOT
BRANCH   6  13
ATOM     13  C   UNL     1       4.213   3.103  18.780  0.00  0.00    +0.000 C 
BRANCH  13  14
ATOM     14  N   UNL     1       2.933   2.648  18.219  0.00  0.00    +0.000 NA
ATOM     15  C   UNL     1       2.107   3.746  17.682  0.00  0.00    +0.000 C 
ATOM     16  C   UNL     1       1.367   4.588  18.734  0.00  0.00    +0.000 C 
ATOM     17  O   UNL     1       0.632   3.822  19.686  0.00  0.00    +0.000 OA
ATOM     18  C   UNL     1       1.316   2.682  20.240  0.00  0.00    +0.000 C 
ATOM     19  C   UNL     1       2.113   1.882  19.188  0.00  0.00    +0.000 C 
BRANCH  18  20
ATOM     20  C   UNL     1       2.072   2.893  21.564  0.00  0.00    +0.000 C 
ATOM     21  F   UNL     1       2.267   4.196  21.857  0.00  0.00    +0.000 F 
ATOM     22  F   UNL     1       1.362   2.358  22.593  0.00  0.00    +0.000 F 
ATOM     23  F   UNL     1       3.281   2.290  21.586  0.00  0.00    +0.000 F 
ENDBRANCH  18  20
ENDBRANCH  13  14
ENDBRANCH   6  13
TORSDOF 3
ENDMDL
MODEL 2
REMARK VINA RESULT:      -8.5      1.813      2.249
REMARK  Name = 
REMARK  4 active torsions:
REMARK  status: ('A' for Active; 'I' for Inactive)
REMARK    1  A    between atoms: C_1  and  C_2
REMARK    2  A    between atoms: C_6  and  C_7
REMARK    3  A    between atoms: C_7  and  N_8
REMARK    4  A    between atoms: C_12  and  C_13
REMARK                            x       y       z     vdW  Elec       q    Type
REMARK                         _______ _______ _______ _____ _____    ______ ____
ROOT
ATOM      1  C   UNL     1       7.351   4.292  12.309  0.00  0.00    +0.000 C 
ATOM      2  C   UNL     1       6.827   4.489  13.682  0.00  0.00    +0.000 A 
ATOM      3  C   UNL     1       5.782   3.784  14.343  0.00  0.00    +0.000 A 
ATOM      4  C   UNL     1       5.705   4.355  15.594  0.00  0.00    +0.000 A 
ATOM      5  N   UNL     1       4.952   4.159  16.700  0.00  0.00    +0.000 N 
ATOM      6  C   UNL     1       5.168   4.891  17.871  0.00  0.00    +0.000 A 
ATOM      7  C   UNL     1       6.124   5.840  17.930  0.00  0.00    +0.000 A 
ATOM      8  C   UNL     1       6.963   6.143  16.743  0.00  0.00    +0.000 A 
ATOM      9  O   UNL     1       7.825   7.012  16.738  0.00  0.00    +0.000 OA
ATOM     10  N   UNL     1       6.683   5.337  15.629  0.00  0.00    +0.000 N 
ATOM     11  N   UNL     1       7.363   5.438  14.455  0.00  0.00    +0.000 NA
ATOM     12  H   UNL     1       4.174   3.500  16.734  0.00  0.00    +0.000 HD
ENDROOT
BRANCH   6  13
ATOM     13  C   UNL     1       4.341   4.568  19.115  0.00  0.00    +0.000 C 
BRANCH  13  14
ATOM     14  N   UNL     1       3.127   5.383  19.264  0.00  0.00    +0.000 NA
ATOM     15  C   UNL     1       2.667   5.496  20.662  0.00  0.00    +0.000 C 
ATOM     16  C   UNL     1       1.929   4.265  21.213  0.00  0.00    +0.000 C 
ATOM     17  O   UNL     1       0.881   3.785  20.374  0.00  0.00    +0.000 OA
ATOM     18  C   UNL     1       1.193   3.688  18.971  0.00  0.00    +0.000 C 
ATOM     19  C   UNL     1       1.995   4.897  18.442  0.00  0.00    +0.000 C 
BRANCH  18  20
ATOM     20  C   UNL     1       1.706   2.330  18.459  0.00  0.00    +0.000 C 
ATOM     21  F   UNL     1       2.651   1.790  19.257  0.00  0.00    +0.000 F 
ATOM     22  F   UNL     1       0.680   1.440  18.401  0.00  0.00    +0.000 F 
ATOM     23  F   UNL     1       2.222   2.395  17.211  0.00  0.00    +0.000 F 
ENDBRANCH  18  20
ENDBRANCH  13  14
ENDBRANCH   6  13
TORSDOF 3
ENDMDL
MODEL 3
REMARK VINA RESULT:      -8.4      1.055      1.411
REMARK  Name = 
REMARK  4 active torsions:
REMARK  status: ('A' for Active; 'I' for Inactive)
REMARK    1  A    between atoms: C_1  and  C_2
REMARK    2  A    between atoms: C_6  and  C_7
REMARK    3  A    between atoms: C_7  and  N_8
REMARK    4  A    between atoms: C_12  and  C_13
REMARK                            x       y       z     vdW  Elec       q    Type
REMARK                         _______ _______ _______ _____ _____    ______ ____
ROOT
ATOM      1  C   UNL     1       7.987   5.151  12.619  0.00  0.00    +0.000 C 
ATOM      2  C   UNL     1       7.186   4.938  13.849  0.00  0.00    +0.000 A 
ATOM      3  C   UNL     1       5.895   4.351  13.977  0.00  0.00    +0.000 A 
ATOM      4  C   UNL     1       5.620   4.390  15.326  0.00  0.00    +0.000 A 
ATOM      5  N   UNL     1       4.594   3.997  16.113  0.00  0.00    +0.000 N 
ATOM      6  C   UNL     1       4.647   4.128  17.504  0.00  0.00    +0.000 A 
ATOM      7  C   UNL     1       5.720   4.675  18.109  0.00  0.00    +0.000 A 
ATOM      8  C   UNL     1       6.869   5.169  17.308  0.00  0.00    +0.000 A 
ATOM      9  O   UNL     1       7.855   5.697  17.808  0.00  0.00    +0.000 OA
ATOM     10  N   UNL     1       6.727   4.969  15.926  0.00  0.00    +0.000 N 
ATOM     11  N   UNL     1       7.683   5.324  15.026  0.00  0.00    +0.000 NA
ATOM     12  H   UNL     1       3.721   3.620  15.743  0.00  0.00    +0.000 HD
ENDROOT
BRANCH   6  13
ATOM     13  C   UNL     1       3.492   3.592  18.348  0.00  0.00    +0.000 C 
BRANCH  13  14
ATOM     14  N   UNL     1       2.218   4.297  18.150  0.00  0.00    +0.000 NA
ATOM     15  C   UNL     1       2.255   5.706  18.589  0.00  0.00    +0.000 C 
ATOM     16  C   UNL     1       2.160   5.924  20.109  0.00  0.00    +0.000 C 
ATOM     17  O   UNL     1       1.085   5.228  20.735  0.00  0.00    +0.000 OA
ATOM     18  C   UNL     1       0.909   3.854  20.340  0.00  0.00    +0.000 C 
ATOM     19  C   UNL     1       1.075   3.634  18.821  0.00  0.00    +0.000 C 
BRANCH  18  20
ATOM     20  C   UNL     1       1.600   2.782  21.202  0.00  0.00    +0.000 C 
ATOM     21  F   UNL     1       1.851   1.643  20.523  0.00  0.00    +0.000 F 
ATOM     22  F   UNL     1       2.796   3.249  21.651  0.00  0.00    +0.000 F 
ATOM     23  F   UNL     1       0.888   2.448  22.302  0.00  0.00    +0.000 F 
ENDBRANCH  18  20
ENDBRANCH  13  14
ENDBRANCH   6  13
TORSDOF 3
ENDMDL
MODEL 4
REMARK VINA RESULT:      -8.2      1.995      2.633
REMARK  Name = 
REMARK  4 active torsions:
REMARK  status: ('A' for Active; 'I' for Inactive)
REMARK    1  A    between atoms: C_1  and  C_2
REMARK    2  A    between atoms: C_6  and  C_7
REMARK    3  A    between atoms: C_7  and  N_8
REMARK    4  A    between atoms: C_12  and  C_13
REMARK                            x       y       z     vdW  Elec       q    Type
REMARK                         _______ _______ _______ _____ _____    ______ ____
ROOT
ATOM      1  C   UNL     1       7.643   5.171  13.268  0.00  0.00    +0.000 C 
ATOM      2  C   UNL     1       7.049   4.871  14.593  0.00  0.00    +0.000 A 
ATOM      3  C   UNL     1       6.087   3.878  14.931  0.00  0.00    +0.000 A 
ATOM      4  C   UNL     1       5.890   4.021  16.286  0.00  0.00    +0.000 A 
ATOM      5  N   UNL     1       5.132   3.405  17.221  0.00  0.00    +0.000 N 
ATOM      6  C   UNL     1       5.206   3.759  18.572  0.00  0.00    +0.000 A 
ATOM      7  C   UNL     1       6.021   4.749  18.986  0.00  0.00    +0.000 A 
ATOM      8  C   UNL     1       6.852   5.502  18.012  0.00  0.00    +0.000 A 
ATOM      9  O   UNL     1       7.588   6.426  18.334  0.00  0.00    +0.000 OA
ATOM     10  N   UNL     1       6.724   5.052  16.688  0.00  0.00    +0.000 N 
ATOM     11  N   UNL     1       7.424   5.591  15.654  0.00  0.00    +0.000 NA
ATOM     12  H   UNL     1       4.450   2.680  16.996  0.00  0.00    +0.000 HD
ENDROOT
BRANCH   6  13
ATOM     13  C   UNL     1       4.387   2.972  19.594  0.00  0.00    +0.000 C 
BRANCH  13  14
ATOM     14  N   UNL     1       3.655   3.807  20.557  0.00  0.00    +0.000 NA
ATOM     15  C   UNL     1       2.687   3.048  21.373  0.00  0.00    +0.000 C 
ATOM     16  C   UNL     1       1.373   2.682  20.664  0.00  0.00    +0.000 C 
ATOM     17  O   UNL     1       0.734   3.777  20.012  0.00  0.00    +0.000 OA
ATOM     18  C   UNL     1       1.590   4.631  19.230  0.00  0.00    +0.000 C 
ATOM     19  C   UNL     1       2.937   4.936  19.920  0.00  0.00    +0.000 C 
BRANCH  18  20
ATOM     20  C   UNL     1       1.719   4.310  17.730  0.00  0.00    +0.000 C 
ATOM     21  F   UNL     1       1.926   2.998  17.488  0.00  0.00    +0.000 F 
ATOM     22  F   UNL     1       0.575   4.657  17.082  0.00  0.00    +0.000 F 
ATOM     23  F   UNL     1       2.718   4.993  17.126  0.00  0.00    +0.000 F 
ENDBRANCH  18  20
ENDBRANCH  13  14
ENDBRANCH   6  13
TORSDOF 3
ENDMDL
MODEL 5
REMARK VINA RESULT:      -8.2      1.349      1.620
REMARK  Name = 
REMARK  4 active torsions:
REMARK  status: ('A' for Active; 'I' for Inactive)
REMARK    1  A    between atoms: C_1  and  C_2
REMARK    2  A    between atoms: C_6  and  C_7
REMARK    3  A    between atoms: C_7  and  N_8
REMARK    4  A    between atoms: C_12  and  C_13
REMARK                            x       y       z     vdW  Elec       q    Type
REMARK                         _______ _______ _______ _____ _____    ______ ____
ROOT
ATOM      1  C   UNL     1       7.467   4.293  11.934  0.00  0.00    +0.000 C 
ATOM      2  C   UNL     1       6.845   4.471  13.268  0.00  0.00    +0.000 A 
ATOM      3  C   UNL     1       5.672   3.856  13.790  0.00  0.00    +0.000 A 
ATOM      4  C   UNL     1       5.544   4.360  15.065  0.00  0.00    +0.000 A 
ATOM      5  N   UNL     1       4.676   4.189  16.087  0.00  0.00    +0.000 N 
ATOM      6  C   UNL     1       4.863   4.823  17.320  0.00  0.00    +0.000 A 
ATOM      7  C   UNL     1       5.909   5.649  17.523  0.00  0.00    +0.000 A 
ATOM      8  C   UNL     1       6.882   5.920  16.434  0.00  0.00    +0.000 A 
ATOM      9  O   UNL     1       7.832   6.682  16.561  0.00  0.00    +0.000 OA
ATOM     10  N   UNL     1       6.618   5.217  15.248  0.00  0.00    +0.000 N 
ATOM     11  N   UNL     1       7.409   5.305  14.146  0.00  0.00    +0.000 NA
ATOM     12  H   UNL     1       3.830   3.624  16.011  0.00  0.00    +0.000 HD
ENDROOT
BRANCH   6  13
ATOM     13  C   UNL     1       3.895   4.528  18.464  0.00  0.00    +0.000 C 
BRANCH  13  14
ATOM     14  N   UNL     1       2.552   5.098  18.284  0.00  0.00    +0.000 NA
ATOM     15  C   UNL     1       2.314   6.305  19.100  0.00  0.00    +0.000 C 
ATOM     16  C   UNL     1       2.024   6.046  20.588  0.00  0.00    +0.000 C 
ATOM     17  O   UNL     1       1.015   5.068  20.827  0.00  0.00    +0.000 OA
ATOM     18  C   UNL     1       1.107   3.864  20.042  0.00  0.00    +0.000 C 
ATOM     19  C   UNL     1       1.466   4.128  18.565  0.00  0.00    +0.000 C 
BRANCH  18  20
ATOM     20  C   UNL     1       1.865   2.677  20.663  0.00  0.00    +0.000 C 
ATOM     21  F   UNL     1       1.336   2.270  21.836  0.00  0.00    +0.000 F 
ATOM     22  F   UNL     1       1.827   1.611  19.820  0.00  0.00    +0.000 F 
ATOM     23  F   UNL     1       3.173   2.940  20.881  0.00  0.00    +0.000 F 
ENDBRANCH  18  20
ENDBRANCH  13  14
ENDBRANCH   6  13
TORSDOF 3
ENDMDL
MODEL 6
REMARK VINA RESULT:      -8.0      1.833      2.361
REMARK  Name = 
REMARK  4 active torsions:
REMARK  status: ('A' for Active; 'I' for Inactive)
REMARK    1  A    between atoms: C_1  and  C_2
REMARK    2  A    between atoms: C_6  and  C_7
REMARK    3  A    between atoms: C_7  and  N_8
REMARK    4  A    between atoms: C_12  and  C_13
REMARK                            x       y       z     vdW  Elec       q    Type
REMARK                         _______ _______ _______ _____ _____    ______ ____
ROOT
ATOM      1  C   UNL     1       7.345   4.946  13.208  0.00  0.00    +0.000 C 
ATOM      2  C   UNL     1       6.750   5.037  14.563  0.00  0.00    +0.000 A 
ATOM      3  C   UNL     1       5.411   5.354  14.926  0.00  0.00    +0.000 A 
ATOM      4  C   UNL     1       5.392   5.293  16.301  0.00  0.00    +0.000 A 
ATOM      5  N   UNL     1       4.458   5.471  17.262  0.00  0.00    +0.000 N 
ATOM      6  C   UNL     1       4.752   5.269  18.615  0.00  0.00    +0.000 A 
ATOM      7  C   UNL     1       5.990   4.914  19.010  0.00  0.00    +0.000 A 
ATOM      8  C   UNL     1       7.081   4.742  18.017  0.00  0.00    +0.000 A 
ATOM      9  O   UNL     1       8.227   4.445  18.328  0.00  0.00    +0.000 OA
ATOM     10  N   UNL     1       6.676   4.942  16.688  0.00  0.00    +0.000 N 
ATOM     11  N   UNL     1       7.520   4.801  15.630  0.00  0.00    +0.000 NA
ATOM     12  H   UNL     1       3.509   5.788  17.064  0.00  0.00    +0.000 HD
ENDROOT
BRANCH   6  13
ATOM     13  C   UNL     1       3.635   5.405  19.648  0.00  0.00    +0.000 C 
BRANCH  13  14
ATOM     14  N   UNL     1       2.281   5.224  19.106  0.00  0.00    +0.000 NA
ATOM     15  C   UNL     1       1.264   4.967  20.145  0.00  0.00    +0.000 C 
ATOM     16  C   UNL     1       1.248   3.537  20.710  0.00  0.00    +0.000 C 
ATOM     17  O   UNL     1       1.225   2.514  19.717  0.00  0.00    +0.000 OA
ATOM     18  C   UNL     1       2.136   2.686  18.615  0.00  0.00    +0.000 C 
ATOM     19  C   UNL     1       2.198   4.139  18.099  0.00  0.00    +0.000 C 
BRANCH  18  20
ATOM     20  C   UNL     1       3.514   2.010  18.732  0.00  0.00    +0.000 C 
ATOM     21  F   UNL     1       4.135   2.280  19.900  0.00  0.00    +0.000 F 
ATOM     22  F   UNL     1       3.374   0.659  18.661  0.00  0.00    +0.000 F 
ATOM     23  F   UNL     1       4.361   2.355  17.736  0.00  0.00    +0.000 F 
ENDBRANCH  18  20
ENDBRANCH  13  14
ENDBRANCH   6  13
TORSDOF 3
ENDMDL
MODEL 7
REMARK VINA RESULT:      -7.9      1.770      2.193
REMARK  Name = 
REMARK  4 active torsions:
REMARK  status: ('A' for Active; 'I' for Inactive)
REMARK    1  A    between atoms: C_1  and  C_2
REMARK    2  A    between atoms: C_6  and  C_7
REMARK    3  A    between atoms: C_7  and  N_8
REMARK    4  A    between atoms: C_12  and  C_13
REMARK                            x       y       z     vdW  Elec       q    Type
REMARK                         _______ _______ _______ _____ _____    ______ ____
ROOT
ATOM      1  C   UNL     1       7.393   4.316  12.272  0.00  0.00    +0.000 C 
ATOM      2  C   UNL     1       6.775   4.583  13.594  0.00  0.00    +0.000 A 
ATOM      3  C   UNL     1       5.573   4.046  14.136  0.00  0.00    +0.000 A 
ATOM      4  C   UNL     1       5.465   4.613  15.386  0.00  0.00    +0.000 A 
ATOM      5  N   UNL     1       4.586   4.530  16.411  0.00  0.00    +0.000 N 
ATOM      6  C   UNL     1       4.799   5.210  17.614  0.00  0.00    +0.000 A 
ATOM      7  C   UNL     1       5.880   5.996  17.785  0.00  0.00    +0.000 A 
ATOM      8  C   UNL     1       6.868   6.172  16.690  0.00  0.00    +0.000 A 
ATOM      9  O   UNL     1       7.852   6.894  16.787  0.00  0.00    +0.000 OA
ATOM     10  N   UNL     1       6.576   5.428  15.536  0.00  0.00    +0.000 N 
ATOM     11  N   UNL     1       7.375   5.429  14.435  0.00  0.00    +0.000 NA
ATOM     12  H   UNL     1       3.715   4.001  16.356  0.00  0.00    +0.000 HD
ENDROOT
BRANCH   6  13
ATOM     13  C   UNL     1       3.814   5.013  18.765  0.00  0.00    +0.000 C 
BRANCH  13  14
ATOM     14  N   UNL     1       4.191   3.953  19.712  0.00  0.00    +0.000 NA
ATOM     15  C   UNL     1       4.693   2.732  19.052  0.00  0.00    +0.000 C 
ATOM     16  C   UNL     1       3.613   1.824  18.439  0.00  0.00    +0.000 C 
ATOM     17  O   UNL     1       2.537   1.516  19.321  0.00  0.00    +0.000 OA
ATOM     18  C   UNL     1       1.999   2.623  20.069  0.00  0.00    +0.000 C 
ATOM     19  C   UNL     1       3.087   3.567  20.623  0.00  0.00    +0.000 C 
BRANCH  18  20
ATOM     20  C   UNL     1       0.789   3.357  19.464  0.00  0.00    +0.000 C 
ATOM     21  F   UNL     1       1.092   4.028  18.333  0.00  0.00    +0.000 F 
ATOM     22  F   UNL     1      -0.184   2.461  19.145  0.00  0.00    +0.000 F 
ATOM     23  F   UNL     1       0.224   4.240  20.318  0.00  0.00    +0.000 F 
ENDBRANCH  18  20
ENDBRANCH  13  14
ENDBRANCH   6  13
TORSDOF 3
ENDMDL
MODEL 8
REMARK VINA RESULT:      -7.9      4.800      6.907
REMARK  Name = 
REMARK  4 active torsions:
REMARK  status: ('A' for Active; 'I' for Inactive)
REMARK    1  A    between atoms: C_1  and  C_2
REMARK    2  A    between atoms: C_6  and  C_7
REMARK    3  A    between atoms: C_7  and  N_8
REMARK    4  A    between atoms: C_12  and  C_13
REMARK                            x       y       z     vdW  Elec       q    Type
REMARK                         _______ _______ _______ _____ _____    ______ ____
ROOT
ATOM      1  C   UNL     1      -0.588  11.700  21.453  0.00  0.00    +0.000 C 
ATOM      2  C   UNL     1       0.179  10.522  20.982  0.00  0.00    +0.000 A 
ATOM      3  C   UNL     1       0.488   9.324  21.688  0.00  0.00    +0.000 A 
ATOM      4  C   UNL     1       1.207   8.563  20.794  0.00  0.00    +0.000 A 
ATOM      5  N   UNL     1       1.784   7.340  20.815  0.00  0.00    +0.000 N 
ATOM      6  C   UNL     1       2.412   6.808  19.684  0.00  0.00    +0.000 A 
ATOM      7  C   UNL     1       2.485   7.511  18.536  0.00  0.00    +0.000 A 
ATOM      8  C   UNL     1       1.912   8.879  18.449  0.00  0.00    +0.000 A 
ATOM      9  O   UNL     1       1.976   9.567  17.438  0.00  0.00    +0.000 OA
ATOM     10  N   UNL     1       1.284   9.308  19.628  0.00  0.00    +0.000 N 
ATOM     11  N   UNL     1       0.672  10.518  19.741  0.00  0.00    +0.000 NA
ATOM     12  H   UNL     1       1.824   6.757  21.651  0.00  0.00    +0.000 HD
ENDROOT
BRANCH   6  13
ATOM     13  C   UNL     1       2.974   5.389  19.742  0.00  0.00    +0.000 C 
BRANCH  13  14
ATOM     14  N   UNL     1       2.069   4.356  19.219  0.00  0.00    +0.000 NA
ATOM     15  C   UNL     1       2.279   3.029  19.831  0.00  0.00    +0.000 C 
ATOM     16  C   UNL     1       3.498   2.250  19.310  0.00  0.00    +0.000 C 
ATOM     17  O   UNL     1       3.577   2.168  17.889  0.00  0.00    +0.000 OA
ATOM     18  C   UNL     1       3.330   3.393  17.173  0.00  0.00    +0.000 C 
ATOM     19  C   UNL     1       2.148   4.204  17.747  0.00  0.00    +0.000 C 
BRANCH  18  20
ATOM     20  C   UNL     1       4.554   4.253  16.810  0.00  0.00    +0.000 C 
ATOM     21  F   UNL     1       5.535   4.189  17.735  0.00  0.00    +0.000 F 
ATOM     22  F   UNL     1       5.089   3.824  15.636  0.00  0.00    +0.000 F 
ATOM     23  F   UNL     1       4.252   5.559  16.633  0.00  0.00    +0.000 F 
ENDBRANCH  18  20
ENDBRANCH  13  14
ENDBRANCH   6  13
TORSDOF 3
ENDMDL
MODEL 9
REMARK VINA RESULT:      -7.9      1.033      1.269
REMARK  Name = 
REMARK  4 active torsions:
REMARK  status: ('A' for Active; 'I' for Inactive)
REMARK    1  A    between atoms: C_1  and  C_2
REMARK    2  A    between atoms: C_6  and  C_7
REMARK    3  A    between atoms: C_7  and  N_8
REMARK    4  A    between atoms: C_12  and  C_13
REMARK                            x       y       z     vdW  Elec       q    Type
REMARK                         _______ _______ _______ _____ _____    ______ ____
ROOT
ATOM      1  C   UNL     1       7.502   4.584  12.087  0.00  0.00    +0.000 C 
ATOM      2  C   UNL     1       7.015   4.552  13.487  0.00  0.00    +0.000 A 
ATOM      3  C   UNL     1       6.120   3.628  14.095  0.00  0.00    +0.000 A 
ATOM      4  C   UNL     1       6.011   4.047  15.402  0.00  0.00    +0.000 A 
ATOM      5  N   UNL     1       5.347   3.621  16.500  0.00  0.00    +0.000 N 
ATOM      6  C   UNL     1       5.500   4.252  17.738  0.00  0.00    +0.000 A 
ATOM      7  C   UNL     1       6.301   5.327  17.875  0.00  0.00    +0.000 A 
ATOM      8  C   UNL     1       7.031   5.880  16.706  0.00  0.00    +0.000 A 
ATOM      9  O   UNL     1       7.749   6.869  16.773  0.00  0.00    +0.000 OA
ATOM     10  N   UNL     1       6.829   5.160  15.518  0.00  0.00    +0.000 N 
ATOM     11  N   UNL     1       7.433   5.488  14.344  0.00  0.00    +0.000 NA
ATOM     12  H   UNL     1       4.681   2.848  16.483  0.00  0.00    +0.000 HD
ENDROOT
BRANCH   6  13
ATOM     13  C   UNL     1       4.787   3.676  18.961  0.00  0.00    +0.000 C 
BRANCH  13  14
ATOM     14  N   UNL     1       3.771   2.661  18.649  0.00  0.00    +0.000 NA
ATOM     15  C   UNL     1       3.017   2.948  17.413  0.00  0.00    +0.000 C 
ATOM     16  C   UNL     1       1.927   4.024  17.543  0.00  0.00    +0.000 C 
ATOM     17  O   UNL     1       1.040   3.830  18.642  0.00  0.00    +0.000 OA
ATOM     18  C   UNL     1       1.657   3.484  19.896  0.00  0.00    +0.000 C 
ATOM     19  C   UNL     1       2.798   2.455  19.748  0.00  0.00    +0.000 C 
BRANCH  18  20
ATOM     20  C   UNL     1       1.985   4.640  20.859  0.00  0.00    +0.000 C 
ATOM     21  F   UNL     1       0.947   5.484  21.040  0.00  0.00    +0.000 F 
ATOM     22  F   UNL     1       2.310   4.144  22.083  0.00  0.00    +0.000 F 
ATOM     23  F   UNL     1       3.042   5.381  20.458  0.00  0.00    +0.000 F 
ENDBRANCH  18  20
ENDBRANCH  13  14
ENDBRANCH   6  13
TORSDOF 3
ENDMDL
