MODEL 1
REMARK VINA RESULT:      -9.0      0.000      0.000
REMARK  Name = 
REMARK  1 active torsions:
REMARK  status: ('A' for Active; 'I' for Inactive)
REMARK    1  A    between atoms: C_1  and  C_2
REMARK                            x       y       z     vdW  Elec       q    Type
REMARK                         _______ _______ _______ _____ _____    ______ ____
ROOT
ATOM      1  C   UNL     1       0.776   3.125  19.522  0.00  0.00    +0.000 C 
ATOM      2  C   UNL     1       2.279   3.449  19.401  0.00  0.00    +0.000 C 
ATOM      3  C   UNL     1       2.851   3.939  20.723  0.00  0.00    +0.000 C 
ATOM      4  C   UNL     1       2.211   5.272  21.123  0.00  0.00    +0.000 C 
ATOM      5  C   UNL     1       2.369   6.340  20.024  0.00  0.00    +0.000 C 
ATOM      6  C   UNL     1       1.700   7.692  20.278  0.00  0.00    +0.000 A 
ATOM      7  C   UNL     1       1.080   8.057  21.494  0.00  0.00    +0.000 A 
ATOM      8  C   UNL     1       0.613   9.372  21.727  0.00  0.00    +0.000 A 
ATOM      9  C   UNL     1       0.857  10.329  20.747  0.00  0.00    +0.000 A 
ATOM     10  C   UNL     1       1.424   9.984  19.528  0.00  0.00    +0.000 A 
ATOM     11  C   UNL     1       1.801   8.661  19.263  0.00  0.00    +0.000 A 
ATOM     12  C   UNL     1       2.219   8.313  17.853  0.00  0.00    +0.000 C 
ATOM     13  C   UNL     1       2.767   6.898  17.645  0.00  0.00    +0.000 C 
ATOM     14  C   UNL     1       2.080   5.860  18.557  0.00  0.00    +0.000 C 
ATOM     15  C   UNL     1       2.643   4.451  18.291  0.00  0.00    +0.000 C 
ATOM     16  C   UNL     1       2.290   3.676  17.003  0.00  0.00    +0.000 C 
ATOM     17  C   UNL     1       2.812   2.246  17.284  0.00  0.00    +0.000 C 
ATOM     18  C   UNL     1       2.975   2.250  18.792  0.00  0.00    +0.000 C 
ATOM     19  O   UNL     1       3.603   1.408  19.419  0.00  0.00    +0.000 OA
ATOM     20  O   UNL     1       0.551  11.650  20.918  0.00  0.00    +0.000 OA
ATOM     21  S   UNL     1      -0.785  12.000  21.776  0.00  0.00    +0.000 S 
ATOM     22  O   UNL     1      -0.712  13.380  22.213  0.00  0.00    +0.000 OA
ATOM     23  O   UNL     1      -1.940  11.521  21.055  0.00  0.00    +0.000 OA
ATOM     24  N   UNL     1      -0.672  11.059  23.155  0.00  0.00    +0.000 NA
ATOM     25  C   UNL     1      -0.090   9.713  23.015  0.00  0.00    +0.000 C 
ATOM     26  H   UNL     1      -1.596  11.040  23.579  0.00  0.00    +0.000 HD
ENDROOT
TORSDOF 0
ENDMDL
MODEL 2
REMARK VINA RESULT:      -8.8      1.688      1.783
REMARK  Name = 
REMARK  1 active torsions:
REMARK  status: ('A' for Active; 'I' for Inactive)
REMARK    1  A    between atoms: C_1  and  C_2
REMARK                            x       y       z     vdW  Elec       q    Type
REMARK                         _______ _______ _______ _____ _____    ______ ____
ROOT
ATOM      1  C   UNL     1       0.840   3.501  19.396  0.00  0.00    +0.000 C 
ATOM      2  C   UNL     1       2.311   3.794  19.755  0.00  0.00    +0.000 C 
ATOM      3  C   UNL     1       2.421   4.600  21.041  0.00  0.00    +0.000 C 
ATOM      4  C   UNL     1       1.796   5.987  20.859  0.00  0.00    +0.000 C 
ATOM      5  C   UNL     1       2.419   6.750  19.675  0.00  0.00    +0.000 C 
ATOM      6  C   UNL     1       1.820   8.118  19.347  0.00  0.00    +0.000 A 
ATOM      7  C   UNL     1       0.845   8.769  20.135  0.00  0.00    +0.000 A 
ATOM      8  C   UNL     1       0.438  10.098  19.870  0.00  0.00    +0.000 A 
ATOM      9  C   UNL     1       1.091  10.784  18.851  0.00  0.00    +0.000 A 
ATOM     10  C   UNL     1       2.019  10.151  18.035  0.00  0.00    +0.000 A 
ATOM     11  C   UNL     1       2.352   8.806  18.241  0.00  0.00    +0.000 A 
ATOM     12  C   UNL     1       3.209   8.122  17.201  0.00  0.00    +0.000 C 
ATOM     13  C   UNL     1       3.674   6.703  17.542  0.00  0.00    +0.000 C 
ATOM     14  C   UNL     1       2.626   5.919  18.358  0.00  0.00    +0.000 C 
ATOM     15  C   UNL     1       3.125   4.492  18.651  0.00  0.00    +0.000 C 
ATOM     16  C   UNL     1       3.185   3.420  17.542  0.00  0.00    +0.000 C 
ATOM     17  C   UNL     1       3.452   2.107  18.318  0.00  0.00    +0.000 C 
ATOM     18  C   UNL     1       3.074   2.485  19.737  0.00  0.00    +0.000 C 
ATOM     19  O   UNL     1       3.368   1.829  20.726  0.00  0.00    +0.000 OA
ATOM     20  O   UNL     1       0.856  12.105  18.586  0.00  0.00    +0.000 OA
ATOM     21  S   UNL     1      -0.662  12.648  18.795  0.00  0.00    +0.000 S 
ATOM     22  O   UNL     1      -0.632  14.094  18.894  0.00  0.00    +0.000 OA
ATOM     23  O   UNL     1      -1.526  11.998  17.838  0.00  0.00    +0.000 OA
ATOM     24  N   UNL     1      -1.121  12.079  20.300  0.00  0.00    +0.000 NA
ATOM     25  C   UNL     1      -0.642  10.744  20.699  0.00  0.00    +0.000 C 
ATOM     26  H   UNL     1      -2.134  12.160  20.354  0.00  0.00    +0.000 HD
ENDROOT
TORSDOF 0
ENDMDL
MODEL 3
REMARK VINA RESULT:      -8.5      2.890      4.067
REMARK  Name = 
REMARK  1 active torsions:
REMARK  status: ('A' for Active; 'I' for Inactive)
REMARK    1  A    between atoms: C_1  and  C_2
REMARK                            x       y       z     vdW  Elec       q    Type
REMARK                         _______ _______ _______ _____ _____    ______ ____
ROOT
ATOM      1  C   UNL     1       6.820   7.286  17.436  0.00  0.00    +0.000 C 
ATOM      2  C   UNL     1       5.893   6.292  16.708  0.00  0.00    +0.000 C 
ATOM      3  C   UNL     1       4.747   7.009  16.008  0.00  0.00    +0.000 C 
ATOM      4  C   UNL     1       3.835   7.691  17.034  0.00  0.00    +0.000 C 
ATOM      5  C   UNL     1       3.304   6.696  18.084  0.00  0.00    +0.000 C 
ATOM      6  C   UNL     1       2.445   7.277  19.208  0.00  0.00    +0.000 A 
ATOM      7  C   UNL     1       2.003   8.618  19.259  0.00  0.00    +0.000 A 
ATOM      8  C   UNL     1       1.085   9.063  20.239  0.00  0.00    +0.000 A 
ATOM      9  C   UNL     1       0.559   8.115  21.111  0.00  0.00    +0.000 A 
ATOM     10  C   UNL     1       1.011   6.802  21.108  0.00  0.00    +0.000 A 
ATOM     11  C   UNL     1       1.990   6.386  20.197  0.00  0.00    +0.000 A 
ATOM     12  C   UNL     1       2.584   5.008  20.377  0.00  0.00    +0.000 C 
ATOM     13  C   UNL     1       3.535   4.537  19.273  0.00  0.00    +0.000 C 
ATOM     14  C   UNL     1       4.361   5.694  18.673  0.00  0.00    +0.000 C 
ATOM     15  C   UNL     1       5.321   5.168  17.590  0.00  0.00    +0.000 C 
ATOM     16  C   UNL     1       6.578   4.352  17.960  0.00  0.00    +0.000 C 
ATOM     17  C   UNL     1       7.376   4.291  16.634  0.00  0.00    +0.000 C 
ATOM     18  C   UNL     1       6.747   5.407  15.823  0.00  0.00    +0.000 C 
ATOM     19  O   UNL     1       6.896   5.552  14.618  0.00  0.00    +0.000 OA
ATOM     20  O   UNL     1      -0.418   8.414  22.020  0.00  0.00    +0.000 OA
ATOM     21  S   UNL     1      -0.379   9.891  22.697  0.00  0.00    +0.000 S 
ATOM     22  O   UNL     1      -1.679  10.179  23.269  0.00  0.00    +0.000 OA
ATOM     23  O   UNL     1       0.815  10.004  23.500  0.00  0.00    +0.000 OA
ATOM     24  N   UNL     1      -0.180  10.949  21.415  0.00  0.00    +0.000 NA
ATOM     25  C   UNL     1       0.674  10.511  20.297  0.00  0.00    +0.000 C 
ATOM     26  H   UNL     1       0.118  11.839  21.806  0.00  0.00    +0.000 HD
ENDROOT
TORSDOF 0
ENDMDL
MODEL 4
REMARK VINA RESULT:      -8.3      2.849      4.071
REMARK  Name = 
REMARK  1 active torsions:
REMARK  status: ('A' for Active; 'I' for Inactive)
REMARK    1  A    between atoms: C_1  and  C_2
REMARK                            x       y       z     vdW  Elec       q    Type
REMARK                         _______ _______ _______ _____ _____    ______ ____
ROOT
ATOM      1  C   UNL     1       7.063   7.365  17.274  0.00  0.00    +0.000 C 
ATOM      2  C   UNL     1       6.189   6.173  16.835  0.00  0.00    +0.000 C 
ATOM      3  C   UNL     1       5.089   6.610  15.879  0.00  0.00    +0.000 C 
ATOM      4  C   UNL     1       4.109   7.552  16.585  0.00  0.00    +0.000 C 
ATOM      5  C   UNL     1       3.514   6.919  17.857  0.00  0.00    +0.000 C 
ATOM      6  C   UNL     1       2.580   7.797  18.691  0.00  0.00    +0.000 A 
ATOM      7  C   UNL     1       2.130   9.077  18.297  0.00  0.00    +0.000 A 
ATOM      8  C   UNL     1       1.147   9.781  19.032  0.00  0.00    +0.000 A 
ATOM      9  C   UNL     1       0.569   9.136  20.122  0.00  0.00    +0.000 A 
ATOM     10  C   UNL     1       1.026   7.898  20.553  0.00  0.00    +0.000 A 
ATOM     11  C   UNL     1       2.065   7.245  19.877  0.00  0.00    +0.000 A 
ATOM     12  C   UNL     1       2.652   6.005  20.512  0.00  0.00    +0.000 C 
ATOM     13  C   UNL     1       3.676   5.240  19.669  0.00  0.00    +0.000 C 
ATOM     14  C   UNL     1       4.534   6.174  18.791  0.00  0.00    +0.000 C 
ATOM     15  C   UNL     1       5.565   5.362  17.986  0.00  0.00    +0.000 C 
ATOM     16  C   UNL     1       6.799   4.732  18.666  0.00  0.00    +0.000 C 
ATOM     17  C   UNL     1       7.683   4.283  17.477  0.00  0.00    +0.000 C 
ATOM     18  C   UNL     1       7.103   5.079  16.323  0.00  0.00    +0.000 C 
ATOM     19  O   UNL     1       7.331   4.848  15.144  0.00  0.00    +0.000 OA
ATOM     20  O   UNL     1      -0.467   9.678  20.831  0.00  0.00    +0.000 OA
ATOM     21  S   UNL     1      -0.478  11.292  21.017  0.00  0.00    +0.000 S 
ATOM     22  O   UNL     1      -1.814  11.711  21.391  0.00  0.00    +0.000 OA
ATOM     23  O   UNL     1       0.660  11.677  21.818  0.00  0.00    +0.000 OA
ATOM     24  N   UNL     1      -0.200  11.906  19.485  0.00  0.00    +0.000 NA
ATOM     25  C   UNL     1       0.728  11.166  18.613  0.00  0.00    +0.000 C 
ATOM     26  H   UNL     1       0.068  12.881  19.599  0.00  0.00    +0.000 HD
ENDROOT
TORSDOF 0
ENDMDL
MODEL 5
REMARK VINA RESULT:      -7.8      3.556      8.233
REMARK  Name = 
REMARK  1 active torsions:
REMARK  status: ('A' for Active; 'I' for Inactive)
REMARK    1  A    between atoms: C_1  and  C_2
REMARK                            x       y       z     vdW  Elec       q    Type
REMARK                         _______ _______ _______ _____ _____    ______ ____
ROOT
ATOM      1  C   UNL     1      -1.282  12.155  17.961  0.00  0.00    +0.000 C 
ATOM      2  C   UNL     1      -0.450  12.645  19.163  0.00  0.00    +0.000 C 
ATOM      3  C   UNL     1       1.041  12.601  18.865  0.00  0.00    +0.000 C 
ATOM      4  C   UNL     1       1.502  11.155  18.654  0.00  0.00    +0.000 C 
ATOM      5  C   UNL     1       1.154  10.257  19.857  0.00  0.00    +0.000 C 
ATOM      6  C   UNL     1       1.495   8.772  19.729  0.00  0.00    +0.000 A 
ATOM      7  C   UNL     1       2.224   8.213  18.654  0.00  0.00    +0.000 A 
ATOM      8  C   UNL     1       2.644   6.863  18.661  0.00  0.00    +0.000 A 
ATOM      9  C   UNL     1       2.389   6.112  19.804  0.00  0.00    +0.000 A 
ATOM     10  C   UNL     1       1.638   6.625  20.853  0.00  0.00    +0.000 A 
ATOM     11  C   UNL     1       1.143   7.935  20.802  0.00  0.00    +0.000 A 
ATOM     12  C   UNL     1       0.167   8.364  21.874  0.00  0.00    +0.000 C 
ATOM     13  C   UNL     1      -0.229   9.843  21.868  0.00  0.00    +0.000 C 
ATOM     14  C   UNL     1      -0.293  10.431  20.443  0.00  0.00    +0.000 C 
ATOM     15  C   UNL     1      -0.722  11.910  20.488  0.00  0.00    +0.000 C 
ATOM     16  C   UNL     1      -2.177  12.313  20.809  0.00  0.00    +0.000 C 
ATOM     17  C   UNL     1      -2.222  13.822  20.464  0.00  0.00    +0.000 C 
ATOM     18  C   UNL     1      -0.990  13.993  19.596  0.00  0.00    +0.000 C 
ATOM     19  O   UNL     1      -0.495  15.074  19.307  0.00  0.00    +0.000 OA
ATOM     20  O   UNL     1       2.851   4.835  19.962  0.00  0.00    +0.000 OA
ATOM     21  S   UNL     1       2.920   3.898  18.635  0.00  0.00    +0.000 S 
ATOM     22  O   UNL     1       3.807   2.782  18.895  0.00  0.00    +0.000 OA
ATOM     23  O   UNL     1       1.577   3.669  18.156  0.00  0.00    +0.000 OA
ATOM     24  N   UNL     1       3.673   4.843  17.478  0.00  0.00    +0.000 NA
ATOM     25  C   UNL     1       3.374   6.286  17.476  0.00  0.00    +0.000 C 
ATOM     26  H   UNL     1       3.495   4.409  16.576  0.00  0.00    +0.000 HD
ENDROOT
TORSDOF 0
ENDMDL
MODEL 6
REMARK VINA RESULT:      -7.6      3.538      8.045
REMARK  Name = 
REMARK  1 active torsions:
REMARK  status: ('A' for Active; 'I' for Inactive)
REMARK    1  A    between atoms: C_1  and  C_2
REMARK                            x       y       z     vdW  Elec       q    Type
REMARK                         _______ _______ _______ _____ _____    ______ ____
ROOT
ATOM      1  C   UNL     1      -0.908  10.730  17.606  0.00  0.00    +0.000 C 
ATOM      2  C   UNL     1       0.111  11.305  18.610  0.00  0.00    +0.000 C 
ATOM      3  C   UNL     1       1.539  11.147  18.107  0.00  0.00    +0.000 C 
ATOM      4  C   UNL     1       1.910   9.664  18.005  0.00  0.00    +0.000 C 
ATOM      5  C   UNL     1       1.711   8.927  19.343  0.00  0.00    +0.000 C 
ATOM      6  C   UNL     1       1.975   7.420  19.345  0.00  0.00    +0.000 A 
ATOM      7  C   UNL     1       2.513   6.706  18.250  0.00  0.00    +0.000 A 
ATOM      8  C   UNL     1       2.879   5.344  18.357  0.00  0.00    +0.000 A 
ATOM      9  C   UNL     1       2.770   4.740  19.606  0.00  0.00    +0.000 A 
ATOM     10  C   UNL     1       2.204   5.408  20.683  0.00  0.00    +0.000 A 
ATOM     11  C   UNL     1       1.755   6.729  20.549  0.00  0.00    +0.000 A 
ATOM     12  C   UNL     1       0.966   7.327  21.691  0.00  0.00    +0.000 C 
ATOM     13  C   UNL     1       0.630   8.815  21.568  0.00  0.00    +0.000 C 
ATOM     14  C   UNL     1       0.375   9.243  20.107  0.00  0.00    +0.000 C 
ATOM     15  C   UNL     1       0.013  10.738  20.037  0.00  0.00    +0.000 C 
ATOM     16  C   UNL     1      -1.362  11.254  20.515  0.00  0.00    +0.000 C 
ATOM     17  C   UNL     1      -1.401  12.714  20.002  0.00  0.00    +0.000 C 
ATOM     18  C   UNL     1      -0.307  12.720  18.952  0.00  0.00    +0.000 C 
ATOM     19  O   UNL     1       0.179  13.733  18.469  0.00  0.00    +0.000 OA
ATOM     20  O   UNL     1       3.203   3.466  19.846  0.00  0.00    +0.000 OA
ATOM     21  S   UNL     1       3.038   2.384  18.644  0.00  0.00    +0.000 S 
ATOM     22  O   UNL     1       3.912   1.258  18.904  0.00  0.00    +0.000 OA
ATOM     23  O   UNL     1       1.631   2.176  18.393  0.00  0.00    +0.000 OA
ATOM     24  N   UNL     1       3.644   3.152  17.286  0.00  0.00    +0.000 NA
ATOM     25  C   UNL     1       3.402   4.599  17.156  0.00  0.00    +0.000 C 
ATOM     26  H   UNL     1       3.317   2.630  16.477  0.00  0.00    +0.000 HD
ENDROOT
TORSDOF 0
ENDMDL
MODEL 7
REMARK VINA RESULT:      -7.3      3.838      7.705
REMARK  Name = 
REMARK  1 active torsions:
REMARK  status: ('A' for Active; 'I' for Inactive)
REMARK    1  A    between atoms: C_1  and  C_2
REMARK                            x       y       z     vdW  Elec       q    Type
REMARK                         _______ _______ _______ _____ _____    ______ ____
ROOT
ATOM      1  C   UNL     1       1.417   9.855  23.105  0.00  0.00    +0.000 C 
ATOM      2  C   UNL     1       0.192   9.756  22.174  0.00  0.00    +0.000 C 
ATOM      3  C   UNL     1      -0.256   8.313  21.994  0.00  0.00    +0.000 C 
ATOM      4  C   UNL     1       0.827   7.502  21.274  0.00  0.00    +0.000 C 
ATOM      5  C   UNL     1       1.218   8.132  19.924  0.00  0.00    +0.000 C 
ATOM      6  C   UNL     1       2.348   7.453  19.149  0.00  0.00    +0.000 A 
ATOM      7  C   UNL     1       2.946   6.229  19.524  0.00  0.00    +0.000 A 
ATOM      8  C   UNL     1       3.879   5.569  18.691  0.00  0.00    +0.000 A 
ATOM      9  C   UNL     1       4.135   6.123  17.441  0.00  0.00    +0.000 A 
ATOM     10  C   UNL     1       3.595   7.346  17.069  0.00  0.00    +0.000 A 
ATOM     11  C   UNL     1       2.742   8.043  17.935  0.00  0.00    +0.000 A 
ATOM     12  C   UNL     1       2.353   9.455  17.560  0.00  0.00    +0.000 C 
ATOM     13  C   UNL     1       1.303  10.122  18.453  0.00  0.00    +0.000 C 
ATOM     14  C   UNL     1       1.424   9.689  19.929  0.00  0.00    +0.000 C 
ATOM     15  C   UNL     1       0.369  10.407  20.791  0.00  0.00    +0.000 C 
ATOM     16  C   UNL     1       0.497  11.907  21.133  0.00  0.00    +0.000 C 
ATOM     17  C   UNL     1      -0.581  12.125  22.223  0.00  0.00    +0.000 C 
ATOM     18  C   UNL     1      -0.869  10.710  22.684  0.00  0.00    +0.000 C 
ATOM     19  O   UNL     1      -1.839  10.388  23.356  0.00  0.00    +0.000 OA
ATOM     20  O   UNL     1       4.931   5.508  16.514  0.00  0.00    +0.000 OA
ATOM     21  S   UNL     1       6.208   4.669  17.068  0.00  0.00    +0.000 S 
ATOM     22  O   UNL     1       6.658   3.762  16.031  0.00  0.00    +0.000 OA
ATOM     23  O   UNL     1       7.134   5.585  17.690  0.00  0.00    +0.000 OA
ATOM     24  N   UNL     1       5.597   3.716  18.300  0.00  0.00    +0.000 NA
ATOM     25  C   UNL     1       4.536   4.292  19.145  0.00  0.00    +0.000 C 
ATOM     26  H   UNL     1       6.390   3.386  18.844  0.00  0.00    +0.000 HD
ENDROOT
TORSDOF 0
ENDMDL
MODEL 8
REMARK VINA RESULT:      -7.2      2.343      3.654
REMARK  Name = 
REMARK  1 active torsions:
REMARK  status: ('A' for Active; 'I' for Inactive)
REMARK    1  A    between atoms: C_1  and  C_2
REMARK                            x       y       z     vdW  Elec       q    Type
REMARK                         _______ _______ _______ _____ _____    ______ ____
ROOT
ATOM      1  C   UNL     1       4.530   5.374  19.550  0.00  0.00    +0.000 C 
ATOM      2  C   UNL     1       3.092   4.966  19.171  0.00  0.00    +0.000 C 
ATOM      3  C   UNL     1       2.687   5.542  17.821  0.00  0.00    +0.000 C 
ATOM      4  C   UNL     1       2.638   7.072  17.885  0.00  0.00    +0.000 C 
ATOM      5  C   UNL     1       1.703   7.573  19.003  0.00  0.00    +0.000 C 
ATOM      6  C   UNL     1       1.633   9.086  19.214  0.00  0.00    +0.000 A 
ATOM      7  C   UNL     1       2.253  10.036  18.372  0.00  0.00    +0.000 A 
ATOM      8  C   UNL     1       2.030  11.425  18.524  0.00  0.00    +0.000 A 
ATOM      9  C   UNL     1       1.108  11.831  19.485  0.00  0.00    +0.000 A 
ATOM     10  C   UNL     1       0.521  10.920  20.352  0.00  0.00    +0.000 A 
ATOM     11  C   UNL     1       0.815   9.553  20.259  0.00  0.00    +0.000 A 
ATOM     12  C   UNL     1       0.307   8.644  21.355  0.00  0.00    +0.000 C 
ATOM     13  C   UNL     1       0.520   7.144  21.135  0.00  0.00    +0.000 C 
ATOM     14  C   UNL     1       1.834   6.838  20.385  0.00  0.00    +0.000 C 
ATOM     15  C   UNL     1       2.017   5.319  20.214  0.00  0.00    +0.000 C 
ATOM     16  C   UNL     1       2.393   4.417  21.409  0.00  0.00    +0.000 C 
ATOM     17  C   UNL     1       2.753   3.065  20.746  0.00  0.00    +0.000 C 
ATOM     18  C   UNL     1       2.977   3.461  19.299  0.00  0.00    +0.000 C 
ATOM     19  O   UNL     1       3.034   2.670  18.369  0.00  0.00    +0.000 OA
ATOM     20  O   UNL     1       0.733  13.137  19.637  0.00  0.00    +0.000 OA
ATOM     21  S   UNL     1       1.868  14.272  19.381  0.00  0.00    +0.000 S 
ATOM     22  O   UNL     1       1.214  15.547  19.161  0.00  0.00    +0.000 OA
ATOM     23  O   UNL     1       2.895  14.141  20.386  0.00  0.00    +0.000 OA
ATOM     24  N   UNL     1       2.582  13.849  17.927  0.00  0.00    +0.000 NA
ATOM     25  C   UNL     1       2.747  12.413  17.642  0.00  0.00    +0.000 C 
ATOM     26  H   UNL     1       3.458  14.361  17.865  0.00  0.00    +0.000 HD
ENDROOT
TORSDOF 0
ENDMDL
MODEL 9
REMARK VINA RESULT:      -7.1      9.204     10.824
REMARK  Name = 
REMARK  1 active torsions:
REMARK  status: ('A' for Active; 'I' for Inactive)
REMARK    1  A    between atoms: C_1  and  C_2
REMARK                            x       y       z     vdW  Elec       q    Type
REMARK                         _______ _______ _______ _____ _____    ______ ____
ROOT
ATOM      1  C   UNL     1       8.684  13.007  18.129  0.00  0.00    +0.000 C 
ATOM      2  C   UNL     1      10.135  12.989  18.651  0.00  0.00    +0.000 C 
ATOM      3  C   UNL     1      10.409  11.750  19.491  0.00  0.00    +0.000 C 
ATOM      4  C   UNL     1       9.554  11.764  20.762  0.00  0.00    +0.000 C 
ATOM      5  C   UNL     1       9.767  13.048  21.587  0.00  0.00    +0.000 C 
ATOM      6  C   UNL     1       8.906  13.211  22.840  0.00  0.00    +0.000 A 
ATOM      7  C   UNL     1       8.047  12.212  23.351  0.00  0.00    +0.000 A 
ATOM      8  C   UNL     1       7.391  12.358  24.596  0.00  0.00    +0.000 A 
ATOM      9  C   UNL     1       7.682  13.489  25.351  0.00  0.00    +0.000 A 
ATOM     10  C   UNL     1       8.486  14.504  24.851  0.00  0.00    +0.000 A 
ATOM     11  C   UNL     1       9.060  14.399  23.578  0.00  0.00    +0.000 A 
ATOM     12  C   UNL     1       9.753  15.617  23.011  0.00  0.00    +0.000 C 
ATOM     13  C   UNL     1      10.495  15.412  21.687  0.00  0.00    +0.000 C 
ATOM     14  C   UNL     1       9.793  14.389  20.769  0.00  0.00    +0.000 C 
ATOM     15  C   UNL     1      10.560  14.239  19.442  0.00  0.00    +0.000 C 
ATOM     16  C   UNL     1      10.530  15.348  18.369  0.00  0.00    +0.000 C 
ATOM     17  C   UNL     1      11.165  14.673  17.129  0.00  0.00    +0.000 C 
ATOM     18  C   UNL     1      11.066  13.200  17.474  0.00  0.00    +0.000 C 
ATOM     19  O   UNL     1      11.674  12.313  16.892  0.00  0.00    +0.000 OA
ATOM     20  O   UNL     1       7.193  13.674  26.615  0.00  0.00    +0.000 OA
ATOM     21  S   UNL     1       5.697  13.117  26.924  0.00  0.00    +0.000 S 
ATOM     22  O   UNL     1       5.527  13.006  28.359  0.00  0.00    +0.000 OA
ATOM     23  O   UNL     1       4.749  13.860  26.130  0.00  0.00    +0.000 OA
ATOM     24  N   UNL     1       5.685  11.555  26.323  0.00  0.00    +0.000 NA
ATOM     25  C   UNL     1       6.442  11.295  25.086  0.00  0.00    +0.000 C 
ATOM     26  H   UNL     1       4.712  11.271  26.249  0.00  0.00    +0.000 HD
ENDROOT
TORSDOF 0
ENDMDL
